MODEL 1
REMARK VINA RESULT:    -8.814      0.000      0.000
REMARK INTER + INTRA:         -11.286
REMARK INTER:                 -10.875
REMARK INTRA:                  -0.411
REMARK UNBOUND:                -0.411
REMARK  Name = 
REMARK  4 active torsions:
REMARK  status: ('A' for Active; 'I' for Inactive)
REMARK    1  A    between atoms: C_2  and  C_4
REMARK    2  A    between atoms: N_8  and  C_9
REMARK    3  A    between atoms: C_9  and  C_10
REMARK    4  A    between atoms: C_12  and  C_13
REMARK                            x       y       z     vdW  Elec       q    Type
REMARK                         _______ _______ _______ _____ _____    ______ ____
ROOT
ATOM      1  C   UNL     1      43.465   3.667  11.100  0.00  0.00    +0.000 C 
ENDROOT
BRANCH   1   6
ATOM      2  C   UNL     1      46.659   2.505   7.207  0.00  0.00    +0.000 A 
ATOM      3  C   UNL     1      46.098   3.718   7.579  0.00  0.00    +0.000 A 
ATOM      4  C   UNL     1      45.267   3.767   8.700  0.00  0.00    +0.000 A 
ATOM      5  C   UNL     1      45.008   2.607   9.422  0.00  0.00    +0.000 A 
ATOM      6  N   UNL     1      44.185   2.561  10.510  0.00  0.00    +0.000 N 
ATOM      7  N   UNL     1      45.551   1.426   9.067  0.00  0.00    +0.000 NA
ATOM      8  C   UNL     1      46.349   1.390   7.967  0.00  0.00    +0.000 A 
ATOM      9  H   UNL     1      44.123   1.645  10.933  0.00  0.00    +0.000 HD
BRANCH   2  11
ATOM     10  N   UNL     1      47.430   3.312   5.051  0.00  0.00    +0.000 N 
ATOM     11  C   UNL     1      47.540   2.361   6.028  0.00  0.00    +0.000 C 
ATOM     12  O   UNL     1      48.350   1.448   5.943  0.00  0.00    +0.000 OA
ATOM     13  H   UNL     1      48.097   3.256   4.291  0.00  0.00    +0.000 HD
ATOM     14  H   UNL     1      46.956   4.191   5.196  0.00  0.00    +0.000 HD
ENDBRANCH   2  11
ENDBRANCH   1   6
BRANCH   1  15
ATOM     15  C   UNL     1      44.384   4.673  11.742  0.00  0.00    +0.000 A 
ATOM     16  C   UNL     1      44.297   6.050  11.465  0.00  0.00    +0.000 A 
ATOM     17  C   UNL     1      45.181   6.992  12.032  0.00  0.00    +0.000 A 
ATOM     18  C   UNL     1      46.187   6.498  12.883  0.00  0.00    +0.000 A 
ATOM     19  C   UNL     1      46.307   5.130  13.148  0.00  0.00    +0.000 A 
ATOM     20  C   UNL     1      45.410   4.235  12.578  0.00  0.00    +0.000 A 
ATOM     21  F   UNL     1      45.548   2.928  12.842  0.00  0.00    +0.000 F 
BRANCH  17  22
ATOM     22  C   UNL     1      45.051   8.435  11.734  0.00  0.00    +0.000 A 
ATOM     23  C   UNL     1      43.989   8.951  10.976  0.00  0.00    +0.000 A 
ATOM     24  C   UNL     1      43.901  10.317  10.702  0.00  0.00    +0.000 A 
ATOM     25  C   UNL     1      44.878  11.151  11.209  0.00  0.00    +0.000 A 
ATOM     26  N   UNL     1      45.918  10.715  11.947  0.00  0.00    +0.000 NA
ATOM     27  C   UNL     1      45.979   9.380  12.183  0.00  0.00    +0.000 A 
ENDBRANCH  17  22
ENDBRANCH   1  15
TORSDOF 4
ENDMDL
MODEL 2
REMARK VINA RESULT:    -8.511      2.369      4.396
REMARK INTER + INTRA:         -10.913
REMARK INTER:                 -10.199
REMARK INTRA:                  -0.714
REMARK UNBOUND:                -0.411
REMARK  Name = 
REMARK  4 active torsions:
REMARK  status: ('A' for Active; 'I' for Inactive)
REMARK    1  A    between atoms: C_2  and  C_4
REMARK    2  A    between atoms: N_8  and  C_9
REMARK    3  A    between atoms: C_9  and  C_10
REMARK    4  A    between atoms: C_12  and  C_13
REMARK                            x       y       z     vdW  Elec       q    Type
REMARK                         _______ _______ _______ _____ _____    ______ ____
ROOT
ATOM      1  C   UNL     1      43.628   5.042  11.058  0.00  0.00    +0.000 C 
ENDROOT
BRANCH   1   6
ATOM      2  C   UNL     1      46.538   2.782   7.434  0.00  0.00    +0.000 A 
ATOM      3  C   UNL     1      46.399   4.121   7.771  0.00  0.00    +0.000 A 
ATOM      4  C   UNL     1      45.546   4.472   8.819  0.00  0.00    +0.000 A 
ATOM      5  C   UNL     1      44.845   3.486   9.503  0.00  0.00    +0.000 A 
ATOM      6  N   UNL     1      43.969   3.745  10.519  0.00  0.00    +0.000 N 
ATOM      7  N   UNL     1      44.977   2.183   9.182  0.00  0.00    +0.000 NA
ATOM      8  C   UNL     1      45.802   1.855   8.153  0.00  0.00    +0.000 A 
ATOM      9  H   UNL     1      43.562   2.914  10.925  0.00  0.00    +0.000 HD
BRANCH   2  11
ATOM     10  N   UNL     1      47.321   3.000   5.147  0.00  0.00    +0.000 N 
ATOM     11  C   UNL     1      47.409   2.323   6.332  0.00  0.00    +0.000 C 
ATOM     12  O   UNL     1      48.194   1.396   6.481  0.00  0.00    +0.000 OA
ATOM     13  H   UNL     1      47.983   2.737   4.427  0.00  0.00    +0.000 HD
ATOM     14  H   UNL     1      46.871   3.899   5.064  0.00  0.00    +0.000 HD
ENDBRANCH   2  11
ENDBRANCH   1   6
BRANCH   1  15
ATOM     15  C   UNL     1      44.752   5.646  11.857  0.00  0.00    +0.000 A 
ATOM     16  C   UNL     1      45.420   4.931  12.869  0.00  0.00    +0.000 A 
ATOM     17  C   UNL     1      46.446   5.504  13.648  0.00  0.00    +0.000 A 
ATOM     18  C   UNL     1      46.770   6.850  13.393  0.00  0.00    +0.000 A 
ATOM     19  C   UNL     1      46.099   7.586  12.412  0.00  0.00    +0.000 A 
ATOM     20  C   UNL     1      45.101   6.980  11.658  0.00  0.00    +0.000 A 
ATOM     21  F   UNL     1      44.467   7.707  10.726  0.00  0.00    +0.000 F 
BRANCH  17  22
ATOM     22  C   UNL     1      47.140   4.719  14.692  0.00  0.00    +0.000 A 
ATOM     23  C   UNL     1      47.659   5.311  15.854  0.00  0.00    +0.000 A 
ATOM     24  C   UNL     1      48.319   4.545  16.816  0.00  0.00    +0.000 A 
ATOM     25  C   UNL     1      48.437   3.185  16.601  0.00  0.00    +0.000 A 
ATOM     26  N   UNL     1      47.956   2.560  15.509  0.00  0.00    +0.000 NA
ATOM     27  C   UNL     1      47.330   3.338  14.589  0.00  0.00    +0.000 A 
ENDBRANCH  17  22
ENDBRANCH   1  15
TORSDOF 4
ENDMDL
MODEL 3
REMARK VINA RESULT:    -8.165      3.143      7.104
REMARK INTER + INTRA:         -10.486
REMARK INTER:                  -9.817
REMARK INTRA:                  -0.669
REMARK UNBOUND:                -0.411
REMARK  Name = 
REMARK  4 active torsions:
REMARK  status: ('A' for Active; 'I' for Inactive)
REMARK    1  A    between atoms: C_2  and  C_4
REMARK    2  A    between atoms: N_8  and  C_9
REMARK    3  A    between atoms: C_9  and  C_10
REMARK    4  A    between atoms: C_12  and  C_13
REMARK                            x       y       z     vdW  Elec       q    Type
REMARK                         _______ _______ _______ _____ _____    ______ ____
ROOT
ATOM      1  C   UNL     1      43.798   6.330  11.053  0.00  0.00    +0.000 C 
ENDROOT
BRANCH   1   6
ATOM      2  C   UNL     1      48.265   6.875  13.594  0.00  0.00    +0.000 A 
ATOM      3  C   UNL     1      47.213   5.994  13.801  0.00  0.00    +0.000 A 
ATOM      4  C   UNL     1      46.109   6.042  12.949  0.00  0.00    +0.000 A 
ATOM      5  C   UNL     1      46.072   6.969  11.913  0.00  0.00    +0.000 A 
ATOM      6  N   UNL     1      45.019   7.103  11.054  0.00  0.00    +0.000 N 
ATOM      7  N   UNL     1      47.091   7.826  11.705  0.00  0.00    +0.000 NA
ATOM      8  C   UNL     1      48.155   7.777  12.548  0.00  0.00    +0.000 A 
ATOM      9  H   UNL     1      45.162   7.808  10.344  0.00  0.00    +0.000 HD
BRANCH   2  11
ATOM     10  N   UNL     1      50.534   7.631  14.008  0.00  0.00    +0.000 N 
ATOM     11  C   UNL     1      49.466   6.901  14.454  0.00  0.00    +0.000 C 
ATOM     12  O   UNL     1      49.496   6.319  15.530  0.00  0.00    +0.000 OA
ATOM     13  H   UNL     1      51.318   7.717  14.643  0.00  0.00    +0.000 HD
ATOM     14  H   UNL     1      50.460   8.304  13.260  0.00  0.00    +0.000 HD
ENDBRANCH   2  11
ENDBRANCH   1   6
BRANCH   1  15
ATOM     15  C   UNL     1      44.037   4.878  10.731  0.00  0.00    +0.000 A 
ATOM     16  C   UNL     1      44.812   4.473   9.628  0.00  0.00    +0.000 A 
ATOM     17  C   UNL     1      45.006   3.116   9.298  0.00  0.00    +0.000 A 
ATOM     18  C   UNL     1      44.367   2.160  10.109  0.00  0.00    +0.000 A 
ATOM     19  C   UNL     1      43.570   2.543  11.192  0.00  0.00    +0.000 A 
ATOM     20  C   UNL     1      43.412   3.891  11.491  0.00  0.00    +0.000 A 
ATOM     21  F   UNL     1      42.639   4.233  12.531  0.00  0.00    +0.000 F 
BRANCH  17  22
ATOM     22  C   UNL     1      45.842   2.725   8.142  0.00  0.00    +0.000 A 
ATOM     23  C   UNL     1      46.113   3.603   7.082  0.00  0.00    +0.000 A 
ATOM     24  C   UNL     1      46.897   3.199   5.999  0.00  0.00    +0.000 A 
ATOM     25  C   UNL     1      47.411   1.917   6.005  0.00  0.00    +0.000 A 
ATOM     26  N   UNL     1      47.190   1.032   6.996  0.00  0.00    +0.000 NA
ATOM     27  C   UNL     1      46.413   1.454   8.026  0.00  0.00    +0.000 A 
ENDBRANCH  17  22
ENDBRANCH   1  15
TORSDOF 4
ENDMDL
MODEL 4
REMARK VINA RESULT:    -8.160      3.301      6.859
REMARK INTER + INTRA:         -10.480
REMARK INTER:                  -9.645
REMARK INTRA:                  -0.834
REMARK UNBOUND:                -0.411
REMARK  Name = 
REMARK  4 active torsions:
REMARK  status: ('A' for Active; 'I' for Inactive)
REMARK    1  A    between atoms: C_2  and  C_4
REMARK    2  A    between atoms: N_8  and  C_9
REMARK    3  A    between atoms: C_9  and  C_10
REMARK    4  A    between atoms: C_12  and  C_13
REMARK                            x       y       z     vdW  Elec       q    Type
REMARK                         _______ _______ _______ _____ _____    ______ ____
ROOT
ATOM      1  C   UNL     1      44.547   6.403  12.375  0.00  0.00    +0.000 C 
ENDROOT
BRANCH   1   6
ATOM      2  C   UNL     1      49.526   7.772  12.555  0.00  0.00    +0.000 A 
ATOM      3  C   UNL     1      48.615   7.827  11.510  0.00  0.00    +0.000 A 
ATOM      4  C   UNL     1      47.303   7.404  11.730  0.00  0.00    +0.000 A 
ATOM      5  C   UNL     1      46.928   6.932  12.983  0.00  0.00    +0.000 A 
ATOM      6  N   UNL     1      45.675   6.473  13.275  0.00  0.00    +0.000 N 
ATOM      7  N   UNL     1      47.807   6.879  14.003  0.00  0.00    +0.000 NA
ATOM      8  C   UNL     1      49.084   7.282  13.772  0.00  0.00    +0.000 A 
ATOM      9  H   UNL     1      45.562   6.187  14.237  0.00  0.00    +0.000 HD
BRANCH   2  11
ATOM     10  N   UNL     1      51.749   8.028  13.496  0.00  0.00    +0.000 N 
ATOM     11  C   UNL     1      50.937   8.188  12.406  0.00  0.00    +0.000 C 
ATOM     12  O   UNL     1      51.367   8.629  11.349  0.00  0.00    +0.000 OA
ATOM     13  H   UNL     1      52.732   8.232  13.359  0.00  0.00    +0.000 HD
ATOM     14  H   UNL     1      51.494   7.458  14.288  0.00  0.00    +0.000 HD
ENDBRANCH   2  11
ENDBRANCH   1   6
BRANCH   1  15
ATOM     15  C   UNL     1      44.390   5.040  11.753  0.00  0.00    +0.000 A 
ATOM     16  C   UNL     1      45.058   4.676  10.569  0.00  0.00    +0.000 A 
ATOM     17  C   UNL     1      44.883   3.416   9.960  0.00  0.00    +0.000 A 
ATOM     18  C   UNL     1      43.983   2.525  10.574  0.00  0.00    +0.000 A 
ATOM     19  C   UNL     1      43.289   2.879  11.735  0.00  0.00    +0.000 A 
ATOM     20  C   UNL     1      43.497   4.127  12.310  0.00  0.00    +0.000 A 
ATOM     21  F   UNL     1      42.816   4.446  13.420  0.00  0.00    +0.000 F 
BRANCH  17  22
ATOM     22  C   UNL     1      45.614   3.058   8.725  0.00  0.00    +0.000 A 
ATOM     23  C   UNL     1      46.041   1.748   8.460  0.00  0.00    +0.000 A 
ATOM     24  C   UNL     1      46.739   1.444   7.290  0.00  0.00    +0.000 A 
ATOM     25  C   UNL     1      46.987   2.463   6.392  0.00  0.00    +0.000 A 
ATOM     26  N   UNL     1      46.598   3.738   6.588  0.00  0.00    +0.000 NA
ATOM     27  C   UNL     1      45.933   4.000   7.742  0.00  0.00    +0.000 A 
ENDBRANCH  17  22
ENDBRANCH   1  15
TORSDOF 4
ENDMDL
MODEL 5
REMARK VINA RESULT:    -7.991      2.355      3.141
REMARK INTER + INTRA:         -10.270
REMARK INTER:                  -9.464
REMARK INTRA:                  -0.807
REMARK UNBOUND:                -0.411
REMARK  Name = 
REMARK  4 active torsions:
REMARK  status: ('A' for Active; 'I' for Inactive)
REMARK    1  A    between atoms: C_2  and  C_4
REMARK    2  A    between atoms: N_8  and  C_9
REMARK    3  A    between atoms: C_9  and  C_10
REMARK    4  A    between atoms: C_12  and  C_13
REMARK                            x       y       z     vdW  Elec       q    Type
REMARK                         _______ _______ _______ _____ _____    ______ ____
ROOT
ATOM      1  C   UNL     1      44.374   5.499  10.985  0.00  0.00    +0.000 C 
ENDROOT
BRANCH   1   6
ATOM      2  C   UNL     1      46.651   2.446   7.492  0.00  0.00    +0.000 A 
ATOM      3  C   UNL     1      46.032   2.133   8.693  0.00  0.00    +0.000 A 
ATOM      4  C   UNL     1      45.471   3.159   9.456  0.00  0.00    +0.000 A 
ATOM      5  C   UNL     1      45.544   4.474   9.010  0.00  0.00    +0.000 A 
ATOM      6  N   UNL     1      45.049   5.539   9.707  0.00  0.00    +0.000 N 
ATOM      7  N   UNL     1      46.142   4.785   7.843  0.00  0.00    +0.000 NA
ATOM      8  C   UNL     1      46.694   3.779   7.115  0.00  0.00    +0.000 A 
ATOM      9  H   UNL     1      45.163   6.423   9.232  0.00  0.00    +0.000 HD
BRANCH   2  11
ATOM     10  N   UNL     1      48.269   1.851   5.783  0.00  0.00    +0.000 N 
ATOM     11  C   UNL     1      47.281   1.425   6.628  0.00  0.00    +0.000 C 
ATOM     12  O   UNL     1      46.953   0.248   6.684  0.00  0.00    +0.000 OA
ATOM     13  H   UNL     1      48.755   1.133   5.260  0.00  0.00    +0.000 HD
ATOM     14  H   UNL     1      48.722   2.748   5.880  0.00  0.00    +0.000 HD
ENDBRANCH   2  11
ENDBRANCH   1   6
BRANCH   1  15
ATOM     15  C   UNL     1      45.337   5.460  12.142  0.00  0.00    +0.000 A 
ATOM     16  C   UNL     1      46.279   6.481  12.368  0.00  0.00    +0.000 A 
ATOM     17  C   UNL     1      47.210   6.430  13.425  0.00  0.00    +0.000 A 
ATOM     18  C   UNL     1      47.182   5.291  14.252  0.00  0.00    +0.000 A 
ATOM     19  C   UNL     1      46.272   4.253  14.027  0.00  0.00    +0.000 A 
ATOM     20  C   UNL     1      45.364   4.346  12.980  0.00  0.00    +0.000 A 
ATOM     21  F   UNL     1      44.506   3.336  12.780  0.00  0.00    +0.000 F 
BRANCH  17  22
ATOM     22  C   UNL     1      48.175   7.529  13.645  0.00  0.00    +0.000 A 
ATOM     23  C   UNL     1      49.524   7.428  13.271  0.00  0.00    +0.000 A 
ATOM     24  C   UNL     1      50.413   8.479  13.502  0.00  0.00    +0.000 A 
ATOM     25  C   UNL     1      49.928   9.628  14.096  0.00  0.00    +0.000 A 
ATOM     26  N   UNL     1      48.644   9.786  14.472  0.00  0.00    +0.000 NA
ATOM     27  C   UNL     1      47.811   8.739  14.244  0.00  0.00    +0.000 A 
ENDBRANCH  17  22
ENDBRANCH   1  15
TORSDOF 4
ENDMDL
MODEL 6
REMARK VINA RESULT:    -7.424      3.089      6.843
REMARK INTER + INTRA:          -9.572
REMARK INTER:                  -8.888
REMARK INTRA:                  -0.683
REMARK UNBOUND:                -0.411
REMARK  Name = 
REMARK  4 active torsions:
REMARK  status: ('A' for Active; 'I' for Inactive)
REMARK    1  A    between atoms: C_2  and  C_4
REMARK    2  A    between atoms: N_8  and  C_9
REMARK    3  A    between atoms: C_9  and  C_10
REMARK    4  A    between atoms: C_12  and  C_13
REMARK                            x       y       z     vdW  Elec       q    Type
REMARK                         _______ _______ _______ _____ _____    ______ ____
ROOT
ATOM      1  C   UNL     1      45.759   4.729  13.686  0.00  0.00    +0.000 C 
ENDROOT
BRANCH   1   6
ATOM      2  C   UNL     1      48.752   8.584  11.990  0.00  0.00    +0.000 A 
ATOM      3  C   UNL     1      47.372   8.500  12.106  0.00  0.00    +0.000 A 
ATOM      4  C   UNL     1      46.803   7.333  12.618  0.00  0.00    +0.000 A 
ATOM      5  C   UNL     1      47.619   6.273  12.997  0.00  0.00    +0.000 A 
ATOM      6  N   UNL     1      47.143   5.087  13.479  0.00  0.00    +0.000 N 
ATOM      7  N   UNL     1      48.960   6.348  12.889  0.00  0.00    +0.000 NA
ATOM      8  C   UNL     1      49.501   7.486  12.378  0.00  0.00    +0.000 A 
ATOM      9  H   UNL     1      47.870   4.431  13.730  0.00  0.00    +0.000 HD
BRANCH   2  11
ATOM     10  N   UNL     1      48.715  10.937  11.396  0.00  0.00    +0.000 N 
ATOM     11  C   UNL     1      49.437   9.777  11.448  0.00  0.00    +0.000 C 
ATOM     12  O   UNL     1      50.606   9.735  11.087  0.00  0.00    +0.000 OA
ATOM     13  H   UNL     1      49.218  11.768  11.108  0.00  0.00    +0.000 HD
ATOM     14  H   UNL     1      47.849  11.064  11.897  0.00  0.00    +0.000 HD
ENDBRANCH   2  11
ENDBRANCH   1   6
BRANCH   1  15
ATOM     15  C   UNL     1      45.013   4.541  12.390  0.00  0.00    +0.000 A 
ATOM     16  C   UNL     1      45.615   3.961  11.257  0.00  0.00    +0.000 A 
ATOM     17  C   UNL     1      44.936   3.820  10.030  0.00  0.00    +0.000 A 
ATOM     18  C   UNL     1      43.618   4.311   9.965  0.00  0.00    +0.000 A 
ATOM     19  C   UNL     1      43.013   4.917  11.071  0.00  0.00    +0.000 A 
ATOM     20  C   UNL     1      43.713   5.026  12.266  0.00  0.00    +0.000 A 
ATOM     21  F   UNL     1      43.114   5.616  13.310  0.00  0.00    +0.000 F 
BRANCH  17  22
ATOM     22  C   UNL     1      45.591   3.189   8.864  0.00  0.00    +0.000 A 
ATOM     23  C   UNL     1      46.042   3.934   7.763  0.00  0.00    +0.000 A 
ATOM     24  C   UNL     1      46.646   3.307   6.672  0.00  0.00    +0.000 A 
ATOM     25  C   UNL     1      46.804   1.935   6.710  0.00  0.00    +0.000 A 
ATOM     26  N   UNL     1      46.397   1.168   7.740  0.00  0.00    +0.000 NA
ATOM     27  C   UNL     1      45.802   1.809   8.778  0.00  0.00    +0.000 A 
ENDBRANCH  17  22
ENDBRANCH   1  15
TORSDOF 4
ENDMDL
MODEL 7
REMARK VINA RESULT:    -7.154      4.579      8.189
REMARK INTER + INTRA:          -9.238
REMARK INTER:                  -8.706
REMARK INTRA:                  -0.532
REMARK UNBOUND:                -0.411
REMARK  Name = 
REMARK  4 active torsions:
REMARK  status: ('A' for Active; 'I' for Inactive)
REMARK    1  A    between atoms: C_2  and  C_4
REMARK    2  A    between atoms: N_8  and  C_9
REMARK    3  A    between atoms: C_9  and  C_10
REMARK    4  A    between atoms: C_12  and  C_13
REMARK                            x       y       z     vdW  Elec       q    Type
REMARK                         _______ _______ _______ _____ _____    ______ ____
ROOT
ATOM      1  C   UNL     1      45.567   3.752  13.481  0.00  0.00    +0.000 C 
ENDROOT
BRANCH   1   6
ATOM      2  C   UNL     1      48.843   5.158  17.222  0.00  0.00    +0.000 A 
ATOM      3  C   UNL     1      47.937   4.109  17.167  0.00  0.00    +0.000 A 
ATOM      4  C   UNL     1      47.169   3.935  16.014  0.00  0.00    +0.000 A 
ATOM      5  C   UNL     1      47.314   4.811  14.945  0.00  0.00    +0.000 A 
ATOM      6  N   UNL     1      46.582   4.731  13.795  0.00  0.00    +0.000 N 
ATOM      7  N   UNL     1      48.194   5.832  14.992  0.00  0.00    +0.000 NA
ATOM      8  C   UNL     1      48.927   5.997  16.124  0.00  0.00    +0.000 A 
ATOM      9  H   UNL     1      46.828   5.431  13.108  0.00  0.00    +0.000 HD
BRANCH   2  11
ATOM     10  N   UNL     1      50.055   4.342  19.160  0.00  0.00    +0.000 N 
ATOM     11  C   UNL     1      49.687   5.423  18.407  0.00  0.00    +0.000 C 
ATOM     12  O   UNL     1      50.063   6.553  18.685  0.00  0.00    +0.000 OA
ATOM     13  H   UNL     1      50.704   4.520  19.917  0.00  0.00    +0.000 HD
ATOM     14  H   UNL     1      49.966   3.392  18.832  0.00  0.00    +0.000 HD
ENDBRANCH   2  11
ENDBRANCH   1   6
BRANCH   1  15
ATOM     15  C   UNL     1      45.002   3.932  12.096  0.00  0.00    +0.000 A 
ATOM     16  C   UNL     1      45.618   3.376  10.958  0.00  0.00    +0.000 A 
ATOM     17  C   UNL     1      45.117   3.576   9.656  0.00  0.00    +0.000 A 
ATOM     18  C   UNL     1      43.973   4.386   9.524  0.00  0.00    +0.000 A 
ATOM     19  C   UNL     1      43.364   4.970  10.639  0.00  0.00    +0.000 A 
ATOM     20  C   UNL     1      43.883   4.740  11.908  0.00  0.00    +0.000 A 
ATOM     21  F   UNL     1      43.285   5.315  12.961  0.00  0.00    +0.000 F 
BRANCH  17  22
ATOM     22  C   UNL     1      45.777   2.963   8.483  0.00  0.00    +0.000 A 
ATOM     23  C   UNL     1      46.126   3.707   7.345  0.00  0.00    +0.000 A 
ATOM     24  C   UNL     1      46.738   3.096   6.249  0.00  0.00    +0.000 A 
ATOM     25  C   UNL     1      47.005   1.742   6.319  0.00  0.00    +0.000 A 
ATOM     26  N   UNL     1      46.698   0.977   7.384  0.00  0.00    +0.000 NA
ATOM     27  C   UNL     1      46.093   1.602   8.427  0.00  0.00    +0.000 A 
ENDBRANCH  17  22
ENDBRANCH   1  15
TORSDOF 4
ENDMDL
MODEL 8
REMARK VINA RESULT:    -6.975      6.380      8.556
REMARK INTER + INTRA:          -9.018
REMARK INTER:                  -8.222
REMARK INTRA:                  -0.795
REMARK UNBOUND:                -0.411
REMARK  Name = 
REMARK  4 active torsions:
REMARK  status: ('A' for Active; 'I' for Inactive)
REMARK    1  A    between atoms: C_2  and  C_4
REMARK    2  A    between atoms: N_8  and  C_9
REMARK    3  A    between atoms: C_9  and  C_10
REMARK    4  A    between atoms: C_12  and  C_13
REMARK                            x       y       z     vdW  Elec       q    Type
REMARK                         _______ _______ _______ _____ _____    ______ ____
ROOT
ATOM      1  C   UNL     1      47.686   3.952  17.078  0.00  0.00    +0.000 C 
ENDROOT
BRANCH   1   6
ATOM      2  C   UNL     1      52.487   2.263  17.977  0.00  0.00    +0.000 A 
ATOM      3  C   UNL     1      51.890   3.478  18.277  0.00  0.00    +0.000 A 
ATOM      4  C   UNL     1      50.551   3.680  17.936  0.00  0.00    +0.000 A 
ATOM      5  C   UNL     1      49.838   2.671  17.299  0.00  0.00    +0.000 A 
ATOM      6  N   UNL     1      48.536   2.796  16.905  0.00  0.00    +0.000 N 
ATOM      7  N   UNL     1      50.411   1.487  17.007  0.00  0.00    +0.000 NA
ATOM      8  C   UNL     1      51.718   1.307  17.333  0.00  0.00    +0.000 A 
ATOM      9  H   UNL     1      48.160   1.962  16.477  0.00  0.00    +0.000 HD
BRANCH   2  11
ATOM     10  N   UNL     1      54.838   2.394  17.390  0.00  0.00    +0.000 N 
ATOM     11  C   UNL     1      53.901   1.968  18.291  0.00  0.00    +0.000 C 
ATOM     12  O   UNL     1      54.221   1.394  19.323  0.00  0.00    +0.000 OA
ATOM     13  H   UNL     1      55.808   2.267  17.655  0.00  0.00    +0.000 HD
ATOM     14  H   UNL     1      54.634   3.065  16.666  0.00  0.00    +0.000 HD
ENDBRANCH   2  11
ENDBRANCH   1   6
BRANCH   1  15
ATOM     15  C   UNL     1      47.596   4.792  15.831  0.00  0.00    +0.000 A 
ATOM     16  C   UNL     1      46.793   4.421  14.735  0.00  0.00    +0.000 A 
ATOM     17  C   UNL     1      46.737   5.181  13.549  0.00  0.00    +0.000 A 
ATOM     18  C   UNL     1      47.543   6.333  13.485  0.00  0.00    +0.000 A 
ATOM     19  C   UNL     1      48.369   6.702  14.551  0.00  0.00    +0.000 A 
ATOM     20  C   UNL     1      48.388   5.932  15.707  0.00  0.00    +0.000 A 
ATOM     21  F   UNL     1      49.192   6.302  16.715  0.00  0.00    +0.000 F 
BRANCH  17  22
ATOM     22  C   UNL     1      45.868   4.773  12.423  0.00  0.00    +0.000 A 
ATOM     23  C   UNL     1      45.702   5.569  11.279  0.00  0.00    +0.000 A 
ATOM     24  C   UNL     1      44.867   5.161  10.238  0.00  0.00    +0.000 A 
ATOM     25  C   UNL     1      44.219   3.946  10.355  0.00  0.00    +0.000 A 
ATOM     26  N   UNL     1      44.343   3.138  11.425  0.00  0.00    +0.000 NA
ATOM     27  C   UNL     1      45.153   3.572  12.424  0.00  0.00    +0.000 A 
ENDBRANCH  17  22
ENDBRANCH   1  15
TORSDOF 4
ENDMDL
MODEL 9
REMARK VINA RESULT:    -6.770      5.428      8.541
REMARK INTER + INTRA:          -8.765
REMARK INTER:                  -8.252
REMARK INTRA:                  -0.512
REMARK UNBOUND:                -0.411
REMARK  Name = 
REMARK  4 active torsions:
REMARK  status: ('A' for Active; 'I' for Inactive)
REMARK    1  A    between atoms: C_2  and  C_4
REMARK    2  A    between atoms: N_8  and  C_9
REMARK    3  A    between atoms: C_9  and  C_10
REMARK    4  A    between atoms: C_12  and  C_13
REMARK                            x       y       z     vdW  Elec       q    Type
REMARK                         _______ _______ _______ _____ _____    ______ ____
ROOT
ATOM      1  C   UNL     1      47.895   6.783  13.984  0.00  0.00    +0.000 C 
ENDROOT
BRANCH   1   6
ATOM      2  C   UNL     1      49.866   5.135  18.468  0.00  0.00    +0.000 A 
ATOM      3  C   UNL     1      50.321   6.107  17.588  0.00  0.00    +0.000 A 
ATOM      4  C   UNL     1      49.582   6.378  16.435  0.00  0.00    +0.000 A 
ATOM      5  C   UNL     1      48.412   5.673  16.180  0.00  0.00    +0.000 A 
ATOM      6  N   UNL     1      47.647   5.854  15.063  0.00  0.00    +0.000 N 
ATOM      7  N   UNL     1      47.963   4.729  17.031  0.00  0.00    +0.000 NA
ATOM      8  C   UNL     1      48.697   4.467  18.144  0.00  0.00    +0.000 A 
ATOM      9  H   UNL     1      46.817   5.278  15.042  0.00  0.00    +0.000 HD
BRANCH   2  11
ATOM     10  N   UNL     1      49.832   4.443  20.794  0.00  0.00    +0.000 N 
ATOM     11  C   UNL     1      50.591   4.777  19.706  0.00  0.00    +0.000 C 
ATOM     12  O   UNL     1      51.813   4.753  19.748  0.00  0.00    +0.000 OA
ATOM     13  H   UNL     1      50.335   4.113  21.609  0.00  0.00    +0.000 HD
ATOM     14  H   UNL     1      48.850   4.223  20.729  0.00  0.00    +0.000 HD
ENDBRANCH   2  11
ENDBRANCH   1   6
BRANCH   1  15
ATOM     15  C   UNL     1      46.755   6.841  13.001  0.00  0.00    +0.000 A 
ATOM     16  C   UNL     1      46.455   5.769  12.139  0.00  0.00    +0.000 A 
ATOM     17  C   UNL     1      45.415   5.833  11.189  0.00  0.00    +0.000 A 
ATOM     18  C   UNL     1      44.688   7.036  11.111  0.00  0.00    +0.000 A 
ATOM     19  C   UNL     1      44.990   8.122  11.940  0.00  0.00    +0.000 A 
ATOM     20  C   UNL     1      46.016   8.015  12.871  0.00  0.00    +0.000 A 
ATOM     21  F   UNL     1      46.291   9.071  13.650  0.00  0.00    +0.000 F 
BRANCH  17  22
ATOM     22  C   UNL     1      45.114   4.682  10.310  0.00  0.00    +0.000 A 
ATOM     23  C   UNL     1      45.539   4.628   8.974  0.00  0.00    +0.000 A 
ATOM     24  C   UNL     1      45.228   3.532   8.167  0.00  0.00    +0.000 A 
ATOM     25  C   UNL     1      44.504   2.495   8.721  0.00  0.00    +0.000 A 
ATOM     26  N   UNL     1      44.074   2.487   9.998  0.00  0.00    +0.000 NA
ATOM     27  C   UNL     1      44.383   3.574  10.750  0.00  0.00    +0.000 A 
ENDBRANCH  17  22
ENDBRANCH   1  15
TORSDOF 4
ENDMDL
