MODEL 1
REMARK VINA RESULT:    -7.712      0.000      0.000
REMARK INTER + INTRA:         -11.001
REMARK INTER:                 -10.191
REMARK INTRA:                  -0.810
REMARK UNBOUND:                -0.810
REMARK  Name = 
REMARK  9 active torsions:
REMARK  status: ('A' for Active; 'I' for Inactive)
REMARK    1  A    between atoms: C_1  and  C_2
REMARK    2  A    between atoms: C_2  and  C_3
REMARK    3  A    between atoms: C_2  and  C_4
REMARK    4  A    between atoms: C_2  and  C_5
REMARK    5  A    between atoms: N_7  and  C_8
REMARK    6  A    between atoms: C_8  and  C_9
REMARK    7  A    between atoms: C_12  and  C_13
REMARK    8  A    between atoms: C_13  and  C_14
REMARK    9  A    between atoms: C_14  and  N_15
REMARK                            x       y       z     vdW  Elec       q    Type
REMARK                         _______ _______ _______ _____ _____    ______ ____
ROOT
ATOM      1  C   UNL     1      46.131   7.218  12.297  0.00  0.00    +0.000 A 
ATOM      2  C   UNL     1      45.141   6.932  11.368  0.00  0.00    +0.000 A 
ATOM      3  N   UNL     1      44.897   5.585  11.351  0.00  0.00    +0.000 N 
ATOM      4  C   UNL     1      45.650   4.967  12.325  0.00  0.00    +0.000 A 
ATOM      5  C   UNL     1      45.689   3.620  12.733  0.00  0.00    +0.000 A 
ATOM      6  C   UNL     1      46.578   3.250  13.744  0.00  0.00    +0.000 A 
ATOM      7  C   UNL     1      47.413   4.192  14.323  0.00  0.00    +0.000 A 
ATOM      8  C   UNL     1      47.365   5.531  13.918  0.00  0.00    +0.000 A 
ATOM      9  C   UNL     1      46.463   5.952  12.910  0.00  0.00    +0.000 A 
ENDROOT
BRANCH   1  11
ATOM     10  C   UNL     1      45.579   9.665  12.149  0.00  0.00    +0.000 C 
ATOM     11  C   UNL     1      46.658   8.636  12.556  0.00  0.00    +0.000 C 
ATOM     12  C   UNL     1      47.926   8.888  11.708  0.00  0.00    +0.000 C 
ATOM     13  C   UNL     1      47.034   8.923  14.019  0.00  0.00    +0.000 C 
ENDBRANCH   1  11
BRANCH   3  14
ATOM     14  C   UNL     1      43.942   4.936  10.454  0.00  0.00    +0.000 C 
BRANCH  14  15
ATOM     15  C   UNL     1      44.637   3.997   9.494  0.00  0.00    +0.000 A 
ATOM     16  C   UNL     1      44.461   2.611   9.593  0.00  0.00    +0.000 A 
ATOM     17  C   UNL     1      45.208   1.737   8.798  0.00  0.00    +0.000 A 
ATOM     18  C   UNL     1      46.151   2.231   7.889  0.00  0.00    +0.000 A 
ATOM     19  C   UNL     1      46.275   3.616   7.732  0.00  0.00    +0.000 A 
ATOM     20  C   UNL     1      45.529   4.491   8.532  0.00  0.00    +0.000 A 
BRANCH  18  21
ATOM     21  C   UNL     1      47.064   1.283   7.147  0.00  0.00    +0.000 C 
BRANCH  21  22
ATOM     22  C   UNL     1      48.361   1.930   6.660  0.00  0.00    +0.000 C 
BRANCH  22  23
ATOM     23  N   UNL     1      48.393   1.990   5.197  0.00  0.00    +0.000 NA
ATOM     24  H   UNL     1      48.375   1.045   4.813  0.00  0.00    +0.000 HD
ATOM     25  H   UNL     1      49.272   2.405   4.892  0.00  0.00    +0.000 HD
ENDBRANCH  22  23
ENDBRANCH  21  22
ENDBRANCH  18  21
ENDBRANCH  14  15
ENDBRANCH   3  14
TORSDOF 6
ENDMDL
MODEL 2
REMARK VINA RESULT:    -7.427      1.136      3.104
REMARK INTER + INTRA:         -10.625
REMARK INTER:                  -9.949
REMARK INTRA:                  -0.676
REMARK UNBOUND:                -0.810
REMARK  Name = 
REMARK  9 active torsions:
REMARK  status: ('A' for Active; 'I' for Inactive)
REMARK    1  A    between atoms: C_1  and  C_2
REMARK    2  A    between atoms: C_2  and  C_3
REMARK    3  A    between atoms: C_2  and  C_4
REMARK    4  A    between atoms: C_2  and  C_5
REMARK    5  A    between atoms: N_7  and  C_8
REMARK    6  A    between atoms: C_8  and  C_9
REMARK    7  A    between atoms: C_12  and  C_13
REMARK    8  A    between atoms: C_13  and  C_14
REMARK    9  A    between atoms: C_14  and  N_15
REMARK                            x       y       z     vdW  Elec       q    Type
REMARK                         _______ _______ _______ _____ _____    ______ ____
ROOT
ATOM      1  C   UNL     1      46.453   6.876  12.736  0.00  0.00    +0.000 A 
ATOM      2  C   UNL     1      45.811   5.730  12.289  0.00  0.00    +0.000 A 
ATOM      3  N   UNL     1      44.678   6.072  11.600  0.00  0.00    +0.000 N 
ATOM      4  C   UNL     1      44.596   7.443  11.499  0.00  0.00    +0.000 A 
ATOM      5  C   UNL     1      43.660   8.256  10.832  0.00  0.00    +0.000 A 
ATOM      6  C   UNL     1      43.795   9.643  10.915  0.00  0.00    +0.000 A 
ATOM      7  C   UNL     1      44.824  10.205  11.652  0.00  0.00    +0.000 A 
ATOM      8  C   UNL     1      45.756   9.392  12.309  0.00  0.00    +0.000 A 
ATOM      9  C   UNL     1      45.667   7.980  12.233  0.00  0.00    +0.000 A 
ENDROOT
BRANCH   1  11
ATOM     10  C   UNL     1      48.959   6.762  12.606  0.00  0.00    +0.000 C 
ATOM     11  C   UNL     1      47.746   6.849  13.561  0.00  0.00    +0.000 C 
ATOM     12  C   UNL     1      47.755   5.610  14.485  0.00  0.00    +0.000 C 
ATOM     13  C   UNL     1      47.960   8.079  14.458  0.00  0.00    +0.000 C 
ENDBRANCH   1  11
BRANCH   3  14
ATOM     14  C   UNL     1      43.743   5.105  11.029  0.00  0.00    +0.000 C 
BRANCH  14  15
ATOM     15  C   UNL     1      44.414   4.238   9.988  0.00  0.00    +0.000 A 
ATOM     16  C   UNL     1      44.303   2.841  10.037  0.00  0.00    +0.000 A 
ATOM     17  C   UNL     1      45.034   2.035   9.161  0.00  0.00    +0.000 A 
ATOM     18  C   UNL     1      45.895   2.608   8.217  0.00  0.00    +0.000 A 
ATOM     19  C   UNL     1      45.949   4.003   8.112  0.00  0.00    +0.000 A 
ATOM     20  C   UNL     1      45.220   4.809   8.994  0.00  0.00    +0.000 A 
BRANCH  18  21
ATOM     21  C   UNL     1      46.797   1.733   7.378  0.00  0.00    +0.000 C 
BRANCH  21  22
ATOM     22  C   UNL     1      47.987   2.477   6.769  0.00  0.00    +0.000 C 
BRANCH  22  23
ATOM     23  N   UNL     1      48.492   1.770   5.591  0.00  0.00    +0.000 NA
ATOM     24  H   UNL     1      47.984   2.075   4.761  0.00  0.00    +0.000 HD
ATOM     25  H   UNL     1      48.307   0.772   5.688  0.00  0.00    +0.000 HD
ENDBRANCH  22  23
ENDBRANCH  21  22
ENDBRANCH  18  21
ENDBRANCH  14  15
ENDBRANCH   3  14
TORSDOF 6
ENDMDL
MODEL 3
REMARK VINA RESULT:    -6.710      1.541      2.741
REMARK INTER + INTRA:          -9.678
REMARK INTER:                  -9.119
REMARK INTRA:                  -0.559
REMARK UNBOUND:                -0.810
REMARK  Name = 
REMARK  9 active torsions:
REMARK  status: ('A' for Active; 'I' for Inactive)
REMARK    1  A    between atoms: C_1  and  C_2
REMARK    2  A    between atoms: C_2  and  C_3
REMARK    3  A    between atoms: C_2  and  C_4
REMARK    4  A    between atoms: C_2  and  C_5
REMARK    5  A    between atoms: N_7  and  C_8
REMARK    6  A    between atoms: C_8  and  C_9
REMARK    7  A    between atoms: C_12  and  C_13
REMARK    8  A    between atoms: C_13  and  C_14
REMARK    9  A    between atoms: C_14  and  N_15
REMARK                            x       y       z     vdW  Elec       q    Type
REMARK                         _______ _______ _______ _____ _____    ______ ____
ROOT
ATOM      1  C   UNL     1      44.071   8.602  11.173  0.00  0.00    +0.000 A 
ATOM      2  C   UNL     1      43.366   7.438  10.907  0.00  0.00    +0.000 A 
ATOM      3  N   UNL     1      44.080   6.354  11.345  0.00  0.00    +0.000 N 
ATOM      4  C   UNL     1      45.221   6.782  11.987  0.00  0.00    +0.000 A 
ATOM      5  C   UNL     1      46.222   6.052  12.657  0.00  0.00    +0.000 A 
ATOM      6  C   UNL     1      47.304   6.742  13.204  0.00  0.00    +0.000 A 
ATOM      7  C   UNL     1      47.396   8.118  13.076  0.00  0.00    +0.000 A 
ATOM      8  C   UNL     1      46.395   8.840  12.415  0.00  0.00    +0.000 A 
ATOM      9  C   UNL     1      45.270   8.180  11.863  0.00  0.00    +0.000 A 
ENDROOT
BRANCH   1  11
ATOM     10  C   UNL     1      42.018   9.988  10.754  0.00  0.00    +0.000 C 
ATOM     11  C   UNL     1      43.563   9.999  10.793  0.00  0.00    +0.000 C 
ATOM     12  C   UNL     1      44.090  10.388   9.392  0.00  0.00    +0.000 C 
ATOM     13  C   UNL     1      43.987  11.120  11.757  0.00  0.00    +0.000 C 
ENDBRANCH   1  11
BRANCH   3  14
ATOM     14  C   UNL     1      43.646   4.968  11.183  0.00  0.00    +0.000 C 
BRANCH  14  15
ATOM     15  C   UNL     1      44.504   4.236  10.176  0.00  0.00    +0.000 A 
ATOM     16  C   UNL     1      45.247   4.941   9.220  0.00  0.00    +0.000 A 
ATOM     17  C   UNL     1      45.928   4.265   8.204  0.00  0.00    +0.000 A 
ATOM     18  C   UNL     1      45.879   2.869   8.120  0.00  0.00    +0.000 A 
ATOM     19  C   UNL     1      45.203   2.157   9.118  0.00  0.00    +0.000 A 
ATOM     20  C   UNL     1      44.517   2.835  10.132  0.00  0.00    +0.000 A 
BRANCH  18  21
ATOM     21  C   UNL     1      46.486   2.154   6.936  0.00  0.00    +0.000 C 
BRANCH  21  22
ATOM     22  C   UNL     1      47.994   2.366   6.793  0.00  0.00    +0.000 C 
BRANCH  22  23
ATOM     23  N   UNL     1      48.460   1.906   5.482  0.00  0.00    +0.000 NA
ATOM     24  H   UNL     1      47.762   2.128   4.772  0.00  0.00    +0.000 HD
ATOM     25  H   UNL     1      48.548   0.891   5.490  0.00  0.00    +0.000 HD
ENDBRANCH  22  23
ENDBRANCH  21  22
ENDBRANCH  18  21
ENDBRANCH  14  15
ENDBRANCH   3  14
TORSDOF 6
ENDMDL
MODEL 4
REMARK VINA RESULT:    -6.234      1.541      3.533
REMARK INTER + INTRA:          -9.049
REMARK INTER:                  -8.703
REMARK INTRA:                  -0.346
REMARK UNBOUND:                -0.810
REMARK  Name = 
REMARK  9 active torsions:
REMARK  status: ('A' for Active; 'I' for Inactive)
REMARK    1  A    between atoms: C_1  and  C_2
REMARK    2  A    between atoms: C_2  and  C_3
REMARK    3  A    between atoms: C_2  and  C_4
REMARK    4  A    between atoms: C_2  and  C_5
REMARK    5  A    between atoms: N_7  and  C_8
REMARK    6  A    between atoms: C_8  and  C_9
REMARK    7  A    between atoms: C_12  and  C_13
REMARK    8  A    between atoms: C_13  and  C_14
REMARK    9  A    between atoms: C_14  and  N_15
REMARK                            x       y       z     vdW  Elec       q    Type
REMARK                         _______ _______ _______ _____ _____    ______ ____
ROOT
ATOM      1  C   UNL     1      47.229   5.044  14.728  0.00  0.00    +0.000 A 
ATOM      2  C   UNL     1      46.033   4.700  14.116  0.00  0.00    +0.000 A 
ATOM      3  N   UNL     1      45.841   5.476  13.004  0.00  0.00    +0.000 N 
ATOM      4  C   UNL     1      46.942   6.281  12.808  0.00  0.00    +0.000 A 
ATOM      5  C   UNL     1      47.238   7.188  11.772  0.00  0.00    +0.000 A 
ATOM      6  C   UNL     1      48.431   7.909  11.832  0.00  0.00    +0.000 A 
ATOM      7  C   UNL     1      49.299   7.742  12.898  0.00  0.00    +0.000 A 
ATOM      8  C   UNL     1      49.003   6.834  13.922  0.00  0.00    +0.000 A 
ATOM      9  C   UNL     1      47.813   6.068  13.889  0.00  0.00    +0.000 A 
ENDROOT
BRANCH   1  11
ATOM     10  C   UNL     1      48.979   5.146  16.528  0.00  0.00    +0.000 C 
ATOM     11  C   UNL     1      47.740   4.380  16.014  0.00  0.00    +0.000 C 
ATOM     12  C   UNL     1      48.148   2.917  15.722  0.00  0.00    +0.000 C 
ATOM     13  C   UNL     1      46.719   4.339  17.163  0.00  0.00    +0.000 C 
ENDBRANCH   1  11
BRANCH   3  14
ATOM     14  C   UNL     1      44.658   5.403  12.149  0.00  0.00    +0.000 C 
BRANCH  14  15
ATOM     15  C   UNL     1      44.935   4.612  10.891  0.00  0.00    +0.000 A 
ATOM     16  C   UNL     1      44.792   3.218  10.873  0.00  0.00    +0.000 A 
ATOM     17  C   UNL     1      45.180   2.474   9.756  0.00  0.00    +0.000 A 
ATOM     18  C   UNL     1      45.723   3.108   8.631  0.00  0.00    +0.000 A 
ATOM     19  C   UNL     1      45.795   4.506   8.615  0.00  0.00    +0.000 A 
ATOM     20  C   UNL     1      45.410   5.250   9.736  0.00  0.00    +0.000 A 
BRANCH  18  21
ATOM     21  C   UNL     1      46.282   2.290   7.491  0.00  0.00    +0.000 C 
BRANCH  21  22
ATOM     22  C   UNL     1      47.612   2.816   6.948  0.00  0.00    +0.000 C 
BRANCH  22  23
ATOM     23  N   UNL     1      48.323   1.766   6.214  0.00  0.00    +0.000 NA
ATOM     24  H   UNL     1      49.098   2.176   5.693  0.00  0.00    +0.000 HD
ATOM     25  H   UNL     1      47.699   1.354   5.522  0.00  0.00    +0.000 HD
ENDBRANCH  22  23
ENDBRANCH  21  22
ENDBRANCH  18  21
ENDBRANCH  14  15
ENDBRANCH   3  14
TORSDOF 6
ENDMDL
MODEL 5
REMARK VINA RESULT:    -5.794      2.354      6.605
REMARK INTER + INTRA:          -8.467
REMARK INTER:                  -7.598
REMARK INTRA:                  -0.870
REMARK UNBOUND:                -0.810
REMARK  Name = 
REMARK  9 active torsions:
REMARK  status: ('A' for Active; 'I' for Inactive)
REMARK    1  A    between atoms: C_1  and  C_2
REMARK    2  A    between atoms: C_2  and  C_3
REMARK    3  A    between atoms: C_2  and  C_4
REMARK    4  A    between atoms: C_2  and  C_5
REMARK    5  A    between atoms: N_7  and  C_8
REMARK    6  A    between atoms: C_8  and  C_9
REMARK    7  A    between atoms: C_12  and  C_13
REMARK    8  A    between atoms: C_13  and  C_14
REMARK    9  A    between atoms: C_14  and  N_15
REMARK                            x       y       z     vdW  Elec       q    Type
REMARK                         _______ _______ _______ _____ _____    ______ ____
ROOT
ATOM      1  C   UNL     1      45.314   4.266   9.437  0.00  0.00    +0.000 A 
ATOM      2  C   UNL     1      45.751   5.577   9.556  0.00  0.00    +0.000 A 
ATOM      3  N   UNL     1      45.311   6.107  10.740  0.00  0.00    +0.000 N 
ATOM      4  C   UNL     1      44.656   5.136  11.465  0.00  0.00    +0.000 A 
ATOM      5  C   UNL     1      44.096   5.181  12.756  0.00  0.00    +0.000 A 
ATOM      6  C   UNL     1      43.455   4.044  13.250  0.00  0.00    +0.000 A 
ATOM      7  C   UNL     1      43.362   2.899  12.476  0.00  0.00    +0.000 A 
ATOM      8  C   UNL     1      43.925   2.857  11.195  0.00  0.00    +0.000 A 
ATOM      9  C   UNL     1      44.603   3.982  10.664  0.00  0.00    +0.000 A 
ENDROOT
BRANCH   1  11
ATOM     10  C   UNL     1      46.772   4.012   7.407  0.00  0.00    +0.000 C 
ATOM     11  C   UNL     1      45.615   3.384   8.218  0.00  0.00    +0.000 C 
ATOM     12  C   UNL     1      44.366   3.297   7.311  0.00  0.00    +0.000 C 
ATOM     13  C   UNL     1      46.026   1.942   8.556  0.00  0.00    +0.000 C 
ENDBRANCH   1  11
BRANCH   3  14
ATOM     14  C   UNL     1      45.556   7.484  11.162  0.00  0.00    +0.000 C 
BRANCH  14  15
ATOM     15  C   UNL     1      46.760   7.575  12.073  0.00  0.00    +0.000 A 
ATOM     16  C   UNL     1      47.972   6.965  11.724  0.00  0.00    +0.000 A 
ATOM     17  C   UNL     1      49.039   6.930  12.625  0.00  0.00    +0.000 A 
ATOM     18  C   UNL     1      48.918   7.503  13.897  0.00  0.00    +0.000 A 
ATOM     19  C   UNL     1      47.737   8.182  14.219  0.00  0.00    +0.000 A 
ATOM     20  C   UNL     1      46.666   8.212  13.319  0.00  0.00    +0.000 A 
BRANCH  18  21
ATOM     21  C   UNL     1      50.015   7.329  14.920  0.00  0.00    +0.000 C 
BRANCH  21  22
ATOM     22  C   UNL     1      49.522   6.809  16.271  0.00  0.00    +0.000 C 
BRANCH  22  23
ATOM     23  N   UNL     1      49.001   5.447  16.144  0.00  0.00    +0.000 NA
ATOM     24  H   UNL     1      49.080   5.137  15.175  0.00  0.00    +0.000 HD
ATOM     25  H   UNL     1      48.007   5.441  16.366  0.00  0.00    +0.000 HD
ENDBRANCH  22  23
ENDBRANCH  21  22
ENDBRANCH  18  21
ENDBRANCH  14  15
ENDBRANCH   3  14
TORSDOF 6
ENDMDL
MODEL 6
REMARK VINA RESULT:    -5.559      3.856      7.107
REMARK INTER + INTRA:          -8.157
REMARK INTER:                  -8.058
REMARK INTRA:                  -0.099
REMARK UNBOUND:                -0.810
REMARK  Name = 
REMARK  9 active torsions:
REMARK  status: ('A' for Active; 'I' for Inactive)
REMARK    1  A    between atoms: C_1  and  C_2
REMARK    2  A    between atoms: C_2  and  C_3
REMARK    3  A    between atoms: C_2  and  C_4
REMARK    4  A    between atoms: C_2  and  C_5
REMARK    5  A    between atoms: N_7  and  C_8
REMARK    6  A    between atoms: C_8  and  C_9
REMARK    7  A    between atoms: C_12  and  C_13
REMARK    8  A    between atoms: C_13  and  C_14
REMARK    9  A    between atoms: C_14  and  N_15
REMARK                            x       y       z     vdW  Elec       q    Type
REMARK                         _______ _______ _______ _____ _____    ______ ____
ROOT
ATOM      1  C   UNL     1      48.103   6.705  13.457  0.00  0.00    +0.000 A 
ATOM      2  C   UNL     1      48.131   6.011  14.658  0.00  0.00    +0.000 A 
ATOM      3  N   UNL     1      47.139   5.066  14.670  0.00  0.00    +0.000 N 
ATOM      4  C   UNL     1      46.497   5.056  13.451  0.00  0.00    +0.000 A 
ATOM      5  C   UNL     1      45.470   4.224  12.966  0.00  0.00    +0.000 A 
ATOM      6  C   UNL     1      44.973   4.449  11.681  0.00  0.00    +0.000 A 
ATOM      7  C   UNL     1      45.475   5.483  10.906  0.00  0.00    +0.000 A 
ATOM      8  C   UNL     1      46.500   6.303  11.391  0.00  0.00    +0.000 A 
ATOM      9  C   UNL     1      47.047   6.095  12.681  0.00  0.00    +0.000 A 
ENDROOT
BRANCH   1  11
ATOM     10  C   UNL     1      49.827   7.513  11.818  0.00  0.00    +0.000 C 
ATOM     11  C   UNL     1      49.071   7.848  13.123  0.00  0.00    +0.000 C 
ATOM     12  C   UNL     1      50.102   8.013  14.263  0.00  0.00    +0.000 C 
ATOM     13  C   UNL     1      48.401   9.218  12.923  0.00  0.00    +0.000 C 
ENDBRANCH   1  11
BRANCH   3  14
ATOM     14  C   UNL     1      46.859   4.187  15.803  0.00  0.00    +0.000 C 
BRANCH  14  15
ATOM     15  C   UNL     1      48.134   3.730  16.474  0.00  0.00    +0.000 A 
ATOM     16  C   UNL     1      48.901   4.620  17.239  0.00  0.00    +0.000 A 
ATOM     17  C   UNL     1      50.146   4.238  17.743  0.00  0.00    +0.000 A 
ATOM     18  C   UNL     1      50.655   2.958  17.492  0.00  0.00    +0.000 A 
ATOM     19  C   UNL     1      49.859   2.042  16.796  0.00  0.00    +0.000 A 
ATOM     20  C   UNL     1      48.613   2.426  16.287  0.00  0.00    +0.000 A 
BRANCH  18  21
ATOM     21  C   UNL     1      52.064   2.603  17.906  0.00  0.00    +0.000 C 
BRANCH  21  22
ATOM     22  C   UNL     1      52.516   1.220  17.434  0.00  0.00    +0.000 C 
BRANCH  22  23
ATOM     23  N   UNL     1      51.912   0.169  18.256  0.00  0.00    +0.000 NA
ATOM     24  H   UNL     1      51.305   0.588  18.960  0.00  0.00    +0.000 HD
ATOM     25  H   UNL     1      52.643  -0.325  18.765  0.00  0.00    +0.000 HD
ENDBRANCH  22  23
ENDBRANCH  21  22
ENDBRANCH  18  21
ENDBRANCH  14  15
ENDBRANCH   3  14
TORSDOF 6
ENDMDL
MODEL 7
REMARK VINA RESULT:    -5.376      4.084      7.166
REMARK INTER + INTRA:          -7.915
REMARK INTER:                  -7.148
REMARK INTRA:                  -0.766
REMARK UNBOUND:                -0.810
REMARK  Name = 
REMARK  9 active torsions:
REMARK  status: ('A' for Active; 'I' for Inactive)
REMARK    1  A    between atoms: C_1  and  C_2
REMARK    2  A    between atoms: C_2  and  C_3
REMARK    3  A    between atoms: C_2  and  C_4
REMARK    4  A    between atoms: C_2  and  C_5
REMARK    5  A    between atoms: N_7  and  C_8
REMARK    6  A    between atoms: C_8  and  C_9
REMARK    7  A    between atoms: C_12  and  C_13
REMARK    8  A    between atoms: C_13  and  C_14
REMARK    9  A    between atoms: C_14  and  N_15
REMARK                            x       y       z     vdW  Elec       q    Type
REMARK                         _______ _______ _______ _____ _____    ______ ____
ROOT
ATOM      1  C   UNL     1      48.735   5.640  17.486  0.00  0.00    +0.000 A 
ATOM      2  C   UNL     1      49.094   5.832  16.160  0.00  0.00    +0.000 A 
ATOM      3  N   UNL     1      48.888   7.140  15.809  0.00  0.00    +0.000 N 
ATOM      4  C   UNL     1      48.478   7.855  16.913  0.00  0.00    +0.000 A 
ATOM      5  C   UNL     1      48.212   9.229  17.065  0.00  0.00    +0.000 A 
ATOM      6  C   UNL     1      47.776   9.696  18.306  0.00  0.00    +0.000 A 
ATOM      7  C   UNL     1      47.597   8.817  19.362  0.00  0.00    +0.000 A 
ATOM      8  C   UNL     1      47.868   7.452  19.207  0.00  0.00    +0.000 A 
ATOM      9  C   UNL     1      48.332   6.941  17.970  0.00  0.00    +0.000 A 
ENDROOT
BRANCH   1  11
ATOM     10  C   UNL     1      50.149   3.588  17.804  0.00  0.00    +0.000 C 
ATOM     11  C   UNL     1      48.824   4.282  18.194  0.00  0.00    +0.000 C 
ATOM     12  C   UNL     1      47.647   3.381  17.753  0.00  0.00    +0.000 C 
ATOM     13  C   UNL     1      48.782   4.355  19.729  0.00  0.00    +0.000 C 
ENDBRANCH   1  11
BRANCH   3  14
ATOM     14  C   UNL     1      49.122   7.676  14.469  0.00  0.00    +0.000 C 
BRANCH  14  15
ATOM     15  C   UNL     1      47.908   7.501  13.586  0.00  0.00    +0.000 A 
ATOM     16  C   UNL     1      46.948   8.516  13.476  0.00  0.00    +0.000 A 
ATOM     17  C   UNL     1      45.761   8.303  12.771  0.00  0.00    +0.000 A 
ATOM     18  C   UNL     1      45.504   7.067  12.164  0.00  0.00    +0.000 A 
ATOM     19  C   UNL     1      46.494   6.078  12.205  0.00  0.00    +0.000 A 
ATOM     20  C   UNL     1      47.681   6.291  12.914  0.00  0.00    +0.000 A 
BRANCH  18  21
ATOM     21  C   UNL     1      44.158   6.790  11.538  0.00  0.00    +0.000 C 
BRANCH  21  22
ATOM     22  C   UNL     1      43.538   5.461  11.971  0.00  0.00    +0.000 C 
BRANCH  22  23
ATOM     23  N   UNL     1      42.821   5.613  13.239  0.00  0.00    +0.000 NA
ATOM     24  H   UNL     1      42.781   4.715  13.722  0.00  0.00    +0.000 HD
ATOM     25  H   UNL     1      41.856   5.881  13.054  0.00  0.00    +0.000 HD
ENDBRANCH  22  23
ENDBRANCH  21  22
ENDBRANCH  18  21
ENDBRANCH  14  15
ENDBRANCH   3  14
TORSDOF 6
ENDMDL
MODEL 8
REMARK VINA RESULT:    -5.298      3.657      6.691
REMARK INTER + INTRA:          -7.812
REMARK INTER:                  -7.080
REMARK INTRA:                  -0.731
REMARK UNBOUND:                -0.810
REMARK  Name = 
REMARK  9 active torsions:
REMARK  status: ('A' for Active; 'I' for Inactive)
REMARK    1  A    between atoms: C_1  and  C_2
REMARK    2  A    between atoms: C_2  and  C_3
REMARK    3  A    between atoms: C_2  and  C_4
REMARK    4  A    between atoms: C_2  and  C_5
REMARK    5  A    between atoms: N_7  and  C_8
REMARK    6  A    between atoms: C_8  and  C_9
REMARK    7  A    between atoms: C_12  and  C_13
REMARK    8  A    between atoms: C_13  and  C_14
REMARK    9  A    between atoms: C_14  and  N_15
REMARK                            x       y       z     vdW  Elec       q    Type
REMARK                         _______ _______ _______ _____ _____    ______ ____
ROOT
ATOM      1  C   UNL     1      48.667   6.520  17.559  0.00  0.00    +0.000 A 
ATOM      2  C   UNL     1      48.715   5.977  16.283  0.00  0.00    +0.000 A 
ATOM      3  N   UNL     1      48.657   6.980  15.351  0.00  0.00    +0.000 N 
ATOM      4  C   UNL     1      48.662   8.202  15.987  0.00  0.00    +0.000 A 
ATOM      5  C   UNL     1      48.683   9.506  15.459  0.00  0.00    +0.000 A 
ATOM      6  C   UNL     1      48.654  10.589  16.340  0.00  0.00    +0.000 A 
ATOM      7  C   UNL     1      48.592  10.378  17.708  0.00  0.00    +0.000 A 
ATOM      8  C   UNL     1      48.578   9.078  18.228  0.00  0.00    +0.000 A 
ATOM      9  C   UNL     1      48.627   7.953  17.369  0.00  0.00    +0.000 A 
ENDROOT
BRANCH   1  11
ATOM     10  C   UNL     1      47.467   6.023  19.709  0.00  0.00    +0.000 C 
ATOM     11  C   UNL     1      48.693   5.670  18.837  0.00  0.00    +0.000 C 
ATOM     12  C   UNL     1      49.977   5.973  19.643  0.00  0.00    +0.000 C 
ATOM     13  C   UNL     1      48.662   4.152  18.597  0.00  0.00    +0.000 C 
ENDBRANCH   1  11
BRANCH   3  14
ATOM     14  C   UNL     1      48.642   6.755  13.907  0.00  0.00    +0.000 C 
BRANCH  14  15
ATOM     15  C   UNL     1      47.310   6.207  13.449  0.00  0.00    +0.000 A 
ATOM     16  C   UNL     1      46.317   7.060  12.948  0.00  0.00    +0.000 A 
ATOM     17  C   UNL     1      45.040   6.575  12.654  0.00  0.00    +0.000 A 
ATOM     18  C   UNL     1      44.725   5.226  12.858  0.00  0.00    +0.000 A 
ATOM     19  C   UNL     1      45.736   4.356  13.284  0.00  0.00    +0.000 A 
ATOM     20  C   UNL     1      47.014   4.843  13.582  0.00  0.00    +0.000 A 
BRANCH  18  21
ATOM     21  C   UNL     1      43.306   4.739  12.688  0.00  0.00    +0.000 C 
BRANCH  21  22
ATOM     22  C   UNL     1      43.083   3.917  11.417  0.00  0.00    +0.000 C 
BRANCH  22  23
ATOM     23  N   UNL     1      43.063   2.485  11.723  0.00  0.00    +0.000 NA
ATOM     24  H   UNL     1      42.146   2.098  11.500  0.00  0.00    +0.000 HD
ATOM     25  H   UNL     1      43.194   2.350  12.725  0.00  0.00    +0.000 HD
ENDBRANCH  22  23
ENDBRANCH  21  22
ENDBRANCH  18  21
ENDBRANCH  14  15
ENDBRANCH   3  14
TORSDOF 6
ENDMDL
MODEL 9
REMARK VINA RESULT:    -5.215      3.929      6.438
REMARK INTER + INTRA:          -7.703
REMARK INTER:                  -6.811
REMARK INTRA:                  -0.891
REMARK UNBOUND:                -0.810
REMARK  Name = 
REMARK  9 active torsions:
REMARK  status: ('A' for Active; 'I' for Inactive)
REMARK    1  A    between atoms: C_1  and  C_2
REMARK    2  A    between atoms: C_2  and  C_3
REMARK    3  A    between atoms: C_2  and  C_4
REMARK    4  A    between atoms: C_2  and  C_5
REMARK    5  A    between atoms: N_7  and  C_8
REMARK    6  A    between atoms: C_8  and  C_9
REMARK    7  A    between atoms: C_12  and  C_13
REMARK    8  A    between atoms: C_13  and  C_14
REMARK    9  A    between atoms: C_14  and  N_15
REMARK                            x       y       z     vdW  Elec       q    Type
REMARK                         _______ _______ _______ _____ _____    ______ ____
ROOT
ATOM      1  C   UNL     1      48.517   8.470  17.749  0.00  0.00    +0.000 A 
ATOM      2  C   UNL     1      48.598   8.524  16.365  0.00  0.00    +0.000 A 
ATOM      3  N   UNL     1      48.780   7.263  15.861  0.00  0.00    +0.000 N 
ATOM      4  C   UNL     1      48.731   6.345  16.887  0.00  0.00    +0.000 A 
ATOM      5  C   UNL     1      48.796   4.939  16.860  0.00  0.00    +0.000 A 
ATOM      6  C   UNL     1      48.751   4.241  18.067  0.00  0.00    +0.000 A 
ATOM      7  C   UNL     1      48.658   4.923  19.269  0.00  0.00    +0.000 A 
ATOM      8  C   UNL     1      48.588   6.321  19.291  0.00  0.00    +0.000 A 
ATOM      9  C   UNL     1      48.609   7.067  18.087  0.00  0.00    +0.000 A 
ENDROOT
BRANCH   1  11
ATOM     10  C   UNL     1      49.583   9.895  19.522  0.00  0.00    +0.000 C 
ATOM     11  C   UNL     1      48.333   9.711  18.631  0.00  0.00    +0.000 C 
ATOM     12  C   UNL     1      47.098   9.530  19.543  0.00  0.00    +0.000 C 
ATOM     13  C   UNL     1      48.129  11.024  17.856  0.00  0.00    +0.000 C 
ENDBRANCH   1  11
BRANCH   3  14
ATOM     14  C   UNL     1      48.949   6.965  14.441  0.00  0.00    +0.000 C 
BRANCH  14  15
ATOM     15  C   UNL     1      47.622   6.670  13.778  0.00  0.00    +0.000 A 
ATOM     16  C   UNL     1      47.190   5.350  13.591  0.00  0.00    +0.000 A 
ATOM     17  C   UNL     1      46.034   5.074  12.857  0.00  0.00    +0.000 A 
ATOM     18  C   UNL     1      45.285   6.112  12.290  0.00  0.00    +0.000 A 
ATOM     19  C   UNL     1      45.669   7.434  12.540  0.00  0.00    +0.000 A 
ATOM     20  C   UNL     1      46.830   7.710  13.271  0.00  0.00    +0.000 A 
BRANCH  18  21
ATOM     21  C   UNL     1      44.127   5.802  11.371  0.00  0.00    +0.000 C 
BRANCH  21  22
ATOM     22  C   UNL     1      43.066   4.895  11.997  0.00  0.00    +0.000 C 
BRANCH  22  23
ATOM     23  N   UNL     1      42.631   5.424  13.292  0.00  0.00    +0.000 NA
ATOM     24  H   UNL     1      41.639   5.660  13.251  0.00  0.00    +0.000 HD
ATOM     25  H   UNL     1      43.124   6.294  13.486  0.00  0.00    +0.000 HD
ENDBRANCH  22  23
ENDBRANCH  21  22
ENDBRANCH  18  21
ENDBRANCH  14  15
ENDBRANCH   3  14
TORSDOF 6
ENDMDL
