MODEL 1
REMARK VINA RESULT:    -8.716      0.000      0.000
REMARK INTER + INTRA:         -12.943
REMARK INTER:                 -11.773
REMARK INTRA:                  -1.170
REMARK UNBOUND:                -1.170
REMARK  Name = 
REMARK  9 active torsions:
REMARK  status: ('A' for Active; 'I' for Inactive)
REMARK    1  A    between atoms: C_1  and  N_2
REMARK    2  A    between atoms: N_5  and  C_6
REMARK    3  A    between atoms: C_10  and  C_11
REMARK    4  A    between atoms: C_11  and  C_12
REMARK    5  A    between atoms: C_11  and  C_13
REMARK    6  A    between atoms: C_11  and  C_14
REMARK    7  A    between atoms: C_14  and  N_15
REMARK    8  A    between atoms: N_15  and  C_16
REMARK    9  A    between atoms: C_19  and  C_20
REMARK                            x       y       z     vdW  Elec       q    Type
REMARK                         _______ _______ _______ _____ _____    ______ ____
ROOT
ATOM      1  C   UNL     1      43.867   4.803  12.041  0.00  0.00    +0.000 C 
ATOM      2  C   UNL     1      43.028   4.730  13.341  0.00  0.00    +0.000 C 
ATOM      3  C   UNL     1      43.116   5.694  11.026  0.00  0.00    +0.000 C 
ENDROOT
BRANCH   1   8
ATOM      4  C   UNL     1      47.166   5.689  13.907  0.00  0.00    +0.000 A 
ATOM      5  C   UNL     1      47.815   6.430  12.915  0.00  0.00    +0.000 A 
ATOM      6  C   UNL     1      47.205   6.694  11.686  0.00  0.00    +0.000 A 
ATOM      7  C   UNL     1      45.934   6.191  11.410  0.00  0.00    +0.000 A 
ATOM      8  C   UNL     1      45.239   5.434  12.365  0.00  0.00    +0.000 A 
ATOM      9  C   UNL     1      45.869   5.245  13.610  0.00  0.00    +0.000 A 
BRANCH   4  14
ATOM     10  C   UNL     1      48.056   5.351  19.355  0.00  0.00    +0.000 C 
ATOM     11  N   UNL     1      48.332   5.105  17.943  0.00  0.00    +0.000 NA
ATOM     12  C   UNL     1      47.215   4.376  17.305  0.00  0.00    +0.000 C 
ATOM     13  C   UNL     1      47.460   4.097  15.800  0.00  0.00    +0.000 C 
ATOM     14  N   UNL     1      47.769   5.349  15.098  0.00  0.00    +0.000 N 
ATOM     15  C   UNL     1      48.841   6.149  15.717  0.00  0.00    +0.000 C 
ATOM     16  C   UNL     1      48.552   6.377  17.219  0.00  0.00    +0.000 C 
ENDBRANCH   4  14
ENDBRANCH   1   8
BRANCH   1  17
ATOM     17  C   UNL     1      43.931   3.337  11.471  0.00  0.00    +0.000 C 
BRANCH  17  18
ATOM     18  N   UNL     1      43.730   3.275  10.016  0.00  0.00    +0.000 N 
ATOM     19  H   UNL     1      43.048   3.937   9.653  0.00  0.00    +0.000 HD
BRANCH  18  20
ATOM     20  C   UNL     1      44.795   3.028   9.151  0.00  0.00    +0.000 A 
ATOM     21  C   UNL     1      45.291   1.746   8.891  0.00  0.00    +0.000 A 
ATOM     22  C   UNL     1      46.272   1.531   7.915  0.00  0.00    +0.000 A 
ATOM     23  C   UNL     1      46.766   2.600   7.162  0.00  0.00    +0.000 A 
ATOM     24  C   UNL     1      46.302   3.888   7.420  0.00  0.00    +0.000 A 
ATOM     25  C   UNL     1      45.320   4.092   8.400  0.00  0.00    +0.000 A 
BRANCH  23  26
ATOM     26  C   UNL     1      47.779   2.310   6.110  0.00  0.00    +0.000 C 
ATOM     27  N   UNL     1      47.790   3.119   5.006  0.00  0.00    +0.000 N 
ATOM     28  O   UNL     1      48.546   1.364   6.200  0.00  0.00    +0.000 OA
ATOM     29  H   UNL     1      47.022   3.731   4.773  0.00  0.00    +0.000 HD
ATOM     30  H   UNL     1      48.399   2.829   4.251  0.00  0.00    +0.000 HD
ENDBRANCH  23  26
ENDBRANCH  18  20
ENDBRANCH  17  18
ENDBRANCH   1  17
TORSDOF 6
ENDMDL
MODEL 2
REMARK VINA RESULT:    -7.837      2.090      2.913
REMARK INTER + INTRA:         -11.756
REMARK INTER:                 -11.027
REMARK INTRA:                  -0.730
REMARK UNBOUND:                -1.170
REMARK  Name = 
REMARK  9 active torsions:
REMARK  status: ('A' for Active; 'I' for Inactive)
REMARK    1  A    between atoms: C_1  and  N_2
REMARK    2  A    between atoms: N_5  and  C_6
REMARK    3  A    between atoms: C_10  and  C_11
REMARK    4  A    between atoms: C_11  and  C_12
REMARK    5  A    between atoms: C_11  and  C_13
REMARK    6  A    between atoms: C_11  and  C_14
REMARK    7  A    between atoms: C_14  and  N_15
REMARK    8  A    between atoms: N_15  and  C_16
REMARK    9  A    between atoms: C_19  and  C_20
REMARK                            x       y       z     vdW  Elec       q    Type
REMARK                         _______ _______ _______ _____ _____    ______ ____
ROOT
ATOM      1  C   UNL     1      44.073   4.456  12.321  0.00  0.00    +0.000 C 
ATOM      2  C   UNL     1      45.085   3.299  12.502  0.00  0.00    +0.000 C 
ATOM      3  C   UNL     1      43.102   4.447  13.525  0.00  0.00    +0.000 C 
ENDROOT
BRANCH   1   8
ATOM      4  C   UNL     1      46.933   7.069  12.687  0.00  0.00    +0.000 A 
ATOM      5  C   UNL     1      46.327   8.178  12.089  0.00  0.00    +0.000 A 
ATOM      6  C   UNL     1      45.013   8.126  11.618  0.00  0.00    +0.000 A 
ATOM      7  C   UNL     1      44.282   6.942  11.707  0.00  0.00    +0.000 A 
ATOM      8  C   UNL     1      44.842   5.795  12.291  0.00  0.00    +0.000 A 
ATOM      9  C   UNL     1      46.147   5.913  12.805  0.00  0.00    +0.000 A 
BRANCH   4  14
ATOM     10  C   UNL     1      51.764   8.945  14.619  0.00  0.00    +0.000 C 
ATOM     11  N   UNL     1      50.836   7.945  14.101  0.00  0.00    +0.000 NA
ATOM     12  C   UNL     1      49.661   7.803  14.988  0.00  0.00    +0.000 C 
ATOM     13  C   UNL     1      48.642   6.756  14.473  0.00  0.00    +0.000 C 
ATOM     14  N   UNL     1      48.250   7.067  13.093  0.00  0.00    +0.000 N 
ATOM     15  C   UNL     1      49.380   7.274  12.168  0.00  0.00    +0.000 C 
ATOM     16  C   UNL     1      50.371   8.311  12.743  0.00  0.00    +0.000 C 
ENDBRANCH   4  14
ENDBRANCH   1   8
BRANCH   1  17
ATOM     17  C   UNL     1      43.256   4.132  11.016  0.00  0.00    +0.000 C 
BRANCH  17  18
ATOM     18  N   UNL     1      43.820   4.757   9.811  0.00  0.00    +0.000 N 
ATOM     19  H   UNL     1      44.019   5.751   9.902  0.00  0.00    +0.000 HD
BRANCH  18  20
ATOM     20  C   UNL     1      44.721   4.071   8.998  0.00  0.00    +0.000 A 
ATOM     21  C   UNL     1      45.698   4.709   8.227  0.00  0.00    +0.000 A 
ATOM     22  C   UNL     1      46.668   3.976   7.530  0.00  0.00    +0.000 A 
ATOM     23  C   UNL     1      46.689   2.581   7.608  0.00  0.00    +0.000 A 
ATOM     24  C   UNL     1      45.712   1.924   8.354  0.00  0.00    +0.000 A 
ATOM     25  C   UNL     1      44.746   2.668   9.047  0.00  0.00    +0.000 A 
BRANCH  23  26
ATOM     26  C   UNL     1      47.765   1.852   6.881  0.00  0.00    +0.000 C 
ATOM     27  N   UNL     1      48.657   2.599   6.161  0.00  0.00    +0.000 N 
ATOM     28  O   UNL     1      47.831   0.632   6.887  0.00  0.00    +0.000 OA
ATOM     29  H   UNL     1      48.486   3.564   5.918  0.00  0.00    +0.000 HD
ATOM     30  H   UNL     1      49.299   2.079   5.576  0.00  0.00    +0.000 HD
ENDBRANCH  23  26
ENDBRANCH  18  20
ENDBRANCH  17  18
ENDBRANCH   1  17
TORSDOF 6
ENDMDL
MODEL 3
REMARK VINA RESULT:    -7.173      1.697      2.353
REMARK INTER + INTRA:         -10.859
REMARK INTER:                 -10.484
REMARK INTRA:                  -0.375
REMARK UNBOUND:                -1.170
REMARK  Name = 
REMARK  9 active torsions:
REMARK  status: ('A' for Active; 'I' for Inactive)
REMARK    1  A    between atoms: C_1  and  N_2
REMARK    2  A    between atoms: N_5  and  C_6
REMARK    3  A    between atoms: C_10  and  C_11
REMARK    4  A    between atoms: C_11  and  C_12
REMARK    5  A    between atoms: C_11  and  C_13
REMARK    6  A    between atoms: C_11  and  C_14
REMARK    7  A    between atoms: C_14  and  N_15
REMARK    8  A    between atoms: N_15  and  C_16
REMARK    9  A    between atoms: C_19  and  C_20
REMARK                            x       y       z     vdW  Elec       q    Type
REMARK                         _______ _______ _______ _____ _____    ______ ____
ROOT
ATOM      1  C   UNL     1      45.143   5.376  12.422  0.00  0.00    +0.000 C 
ATOM      2  C   UNL     1      43.789   5.519  13.159  0.00  0.00    +0.000 C 
ATOM      3  C   UNL     1      45.107   6.268  11.160  0.00  0.00    +0.000 C 
ENDROOT
BRANCH   1   8
ATOM      4  C   UNL     1      47.834   5.398  15.233  0.00  0.00    +0.000 A 
ATOM      5  C   UNL     1      48.453   6.624  14.967  0.00  0.00    +0.000 A 
ATOM      6  C   UNL     1      48.000   7.463  13.947  0.00  0.00    +0.000 A 
ATOM      7  C   UNL     1      46.929   7.076  13.142  0.00  0.00    +0.000 A 
ATOM      8  C   UNL     1      46.275   5.853  13.357  0.00  0.00    +0.000 A 
ATOM      9  C   UNL     1      46.729   5.069  14.435  0.00  0.00    +0.000 A 
BRANCH   4  14
ATOM     10  C   UNL     1      51.063   1.606  17.638  0.00  0.00    +0.000 C 
ATOM     11  N   UNL     1      49.933   2.525  17.543  0.00  0.00    +0.000 NA
ATOM     12  C   UNL     1      50.397   3.918  17.357  0.00  0.00    +0.000 C 
ATOM     13  C   UNL     1      49.230   4.930  17.243  0.00  0.00    +0.000 C 
ATOM     14  N   UNL     1      48.303   4.516  16.182  0.00  0.00    +0.000 N 
ATOM     15  C   UNL     1      47.844   3.119  16.281  0.00  0.00    +0.000 C 
ATOM     16  C   UNL     1      49.049   2.159  16.413  0.00  0.00    +0.000 C 
ENDBRANCH   4  14
ENDBRANCH   1   8
BRANCH   1  17
ATOM     17  C   UNL     1      45.247   3.872  11.970  0.00  0.00    +0.000 C 
BRANCH  17  18
ATOM     18  N   UNL     1      44.456   3.574  10.767  0.00  0.00    +0.000 N 
ATOM     19  H   UNL     1      43.577   4.084  10.700  0.00  0.00    +0.000 HD
BRANCH  18  20
ATOM     20  C   UNL     1      45.072   3.344   9.538  0.00  0.00    +0.000 A 
ATOM     21  C   UNL     1      45.504   4.369   8.692  0.00  0.00    +0.000 A 
ATOM     22  C   UNL     1      46.237   4.094   7.531  0.00  0.00    +0.000 A 
ATOM     23  C   UNL     1      46.572   2.777   7.203  0.00  0.00    +0.000 A 
ATOM     24  C   UNL     1      46.133   1.738   8.021  0.00  0.00    +0.000 A 
ATOM     25  C   UNL     1      45.399   2.025   9.180  0.00  0.00    +0.000 A 
BRANCH  23  26
ATOM     26  C   UNL     1      47.387   2.542   5.979  0.00  0.00    +0.000 C 
ATOM     27  N   UNL     1      48.665   2.087   6.151  0.00  0.00    +0.000 N 
ATOM     28  O   UNL     1      46.954   2.784   4.863  0.00  0.00    +0.000 OA
ATOM     29  H   UNL     1      49.141   2.126   7.041  0.00  0.00    +0.000 HD
ATOM     30  H   UNL     1      49.240   2.055   5.318  0.00  0.00    +0.000 HD
ENDBRANCH  23  26
ENDBRANCH  18  20
ENDBRANCH  17  18
ENDBRANCH   1  17
TORSDOF 6
ENDMDL
MODEL 4
REMARK VINA RESULT:    -6.944      3.165      8.843
REMARK INTER + INTRA:         -10.550
REMARK INTER:                  -9.699
REMARK INTRA:                  -0.850
REMARK UNBOUND:                -1.170
REMARK  Name = 
REMARK  9 active torsions:
REMARK  status: ('A' for Active; 'I' for Inactive)
REMARK    1  A    between atoms: C_1  and  N_2
REMARK    2  A    between atoms: N_5  and  C_6
REMARK    3  A    between atoms: C_10  and  C_11
REMARK    4  A    between atoms: C_11  and  C_12
REMARK    5  A    between atoms: C_11  and  C_13
REMARK    6  A    between atoms: C_11  and  C_14
REMARK    7  A    between atoms: C_14  and  N_15
REMARK    8  A    between atoms: N_15  and  C_16
REMARK    9  A    between atoms: C_19  and  C_20
REMARK                            x       y       z     vdW  Elec       q    Type
REMARK                         _______ _______ _______ _____ _____    ______ ____
ROOT
ATOM      1  C   UNL     1      47.065   7.064  12.526  0.00  0.00    +0.000 C 
ATOM      2  C   UNL     1      47.976   7.611  11.401  0.00  0.00    +0.000 C 
ATOM      3  C   UNL     1      46.601   8.252  13.399  0.00  0.00    +0.000 C 
ENDROOT
BRANCH   1   8
ATOM      4  C   UNL     1      44.880   4.856  10.181  0.00  0.00    +0.000 A 
ATOM      5  C   UNL     1      43.637   4.994  10.806  0.00  0.00    +0.000 A 
ATOM      6  C   UNL     1      43.470   5.813  11.926  0.00  0.00    +0.000 A 
ATOM      7  C   UNL     1      44.561   6.491  12.468  0.00  0.00    +0.000 A 
ATOM      8  C   UNL     1      45.834   6.384  11.887  0.00  0.00    +0.000 A 
ATOM      9  C   UNL     1      45.940   5.595  10.726  0.00  0.00    +0.000 A 
BRANCH   4  14
ATOM     10  C   UNL     1      47.333   1.054   7.001  0.00  0.00    +0.000 C 
ATOM     11  N   UNL     1      46.291   2.006   7.375  0.00  0.00    +0.000 NA
ATOM     12  C   UNL     1      45.679   1.638   8.670  0.00  0.00    +0.000 C 
ATOM     13  C   UNL     1      44.571   2.627   9.113  0.00  0.00    +0.000 C 
ATOM     14  N   UNL     1      45.091   3.999   9.123  0.00  0.00    +0.000 N 
ATOM     15  C   UNL     1      45.762   4.409   7.875  0.00  0.00    +0.000 C 
ATOM     16  C   UNL     1      46.841   3.376   7.474  0.00  0.00    +0.000 C 
ENDBRANCH   4  14
ENDBRANCH   1   8
BRANCH   1  17
ATOM     17  C   UNL     1      47.963   6.116  13.404  0.00  0.00    +0.000 C 
BRANCH  17  18
ATOM     18  N   UNL     1      47.202   5.382  14.426  0.00  0.00    +0.000 N 
ATOM     19  H   UNL     1      46.674   4.587  14.072  0.00  0.00    +0.000 HD
BRANCH  18  20
ATOM     20  C   UNL     1      47.711   5.198  15.710  0.00  0.00    +0.000 A 
ATOM     21  C   UNL     1      48.638   6.063  16.300  0.00  0.00    +0.000 A 
ATOM     22  C   UNL     1      49.022   5.916  17.639  0.00  0.00    +0.000 A 
ATOM     23  C   UNL     1      48.465   4.903  18.425  0.00  0.00    +0.000 A 
ATOM     24  C   UNL     1      47.556   4.016  17.852  0.00  0.00    +0.000 A 
ATOM     25  C   UNL     1      47.180   4.173  16.510  0.00  0.00    +0.000 A 
BRANCH  23  26
ATOM     26  C   UNL     1      48.876   4.815  19.854  0.00  0.00    +0.000 C 
ATOM     27  N   UNL     1      48.607   3.649  20.516  0.00  0.00    +0.000 N 
ATOM     28  O   UNL     1      49.396   5.758  20.431  0.00  0.00    +0.000 OA
ATOM     29  H   UNL     1      47.957   2.961  20.163  0.00  0.00    +0.000 HD
ATOM     30  H   UNL     1      48.779   3.656  21.514  0.00  0.00    +0.000 HD
ENDBRANCH  23  26
ENDBRANCH  18  20
ENDBRANCH  17  18
ENDBRANCH   1  17
TORSDOF 6
ENDMDL
MODEL 5
REMARK VINA RESULT:    -6.801      2.999      4.217
REMARK INTER + INTRA:         -10.357
REMARK INTER:                  -9.704
REMARK INTRA:                  -0.653
REMARK UNBOUND:                -1.170
REMARK  Name = 
REMARK  9 active torsions:
REMARK  status: ('A' for Active; 'I' for Inactive)
REMARK    1  A    between atoms: C_1  and  N_2
REMARK    2  A    between atoms: N_5  and  C_6
REMARK    3  A    between atoms: C_10  and  C_11
REMARK    4  A    between atoms: C_11  and  C_12
REMARK    5  A    between atoms: C_11  and  C_13
REMARK    6  A    between atoms: C_11  and  C_14
REMARK    7  A    between atoms: C_14  and  N_15
REMARK    8  A    between atoms: N_15  and  C_16
REMARK    9  A    between atoms: C_19  and  C_20
REMARK                            x       y       z     vdW  Elec       q    Type
REMARK                         _______ _______ _______ _____ _____    ______ ____
ROOT
ATOM      1  C   UNL     1      45.244   6.237  11.858  0.00  0.00    +0.000 C 
ATOM      2  C   UNL     1      46.053   4.924  11.990  0.00  0.00    +0.000 C 
ATOM      3  C   UNL     1      44.101   6.211  12.899  0.00  0.00    +0.000 C 
ENDROOT
BRANCH   1   8
ATOM      4  C   UNL     1      48.470   8.330  12.457  0.00  0.00    +0.000 A 
ATOM      5  C   UNL     1      47.920   9.615  12.505  0.00  0.00    +0.000 A 
ATOM      6  C   UNL     1      46.543   9.823  12.402  0.00  0.00    +0.000 A 
ATOM      7  C   UNL     1      45.681   8.744  12.213  0.00  0.00    +0.000 A 
ATOM      8  C   UNL     1      46.177   7.432  12.149  0.00  0.00    +0.000 A 
ATOM      9  C   UNL     1      47.565   7.267  12.318  0.00  0.00    +0.000 A 
BRANCH   4  14
ATOM     10  C   UNL     1      53.904   9.342  12.285  0.00  0.00    +0.000 C 
ATOM     11  N   UNL     1      52.707   8.516  12.410  0.00  0.00    +0.000 NA
ATOM     12  C   UNL     1      51.886   8.946  13.563  0.00  0.00    +0.000 C 
ATOM     13  C   UNL     1      50.598   8.101  13.731  0.00  0.00    +0.000 C 
ATOM     14  N   UNL     1      49.828   8.098  12.482  0.00  0.00    +0.000 N 
ATOM     15  C   UNL     1      50.605   7.729  11.284  0.00  0.00    +0.000 C 
ATOM     16  C   UNL     1      51.886   8.590  11.181  0.00  0.00    +0.000 C 
ENDBRANCH   4  14
ENDBRANCH   1   8
BRANCH   1  17
ATOM     17  C   UNL     1      44.610   6.226  10.418  0.00  0.00    +0.000 C 
BRANCH  17  18
ATOM     18  N   UNL     1      43.976   4.945  10.075  0.00  0.00    +0.000 N 
ATOM     19  H   UNL     1      42.979   5.004   9.880  0.00  0.00    +0.000 HD
BRANCH  18  20
ATOM     20  C   UNL     1      44.647   3.990   9.314  0.00  0.00    +0.000 A 
ATOM     21  C   UNL     1      45.607   4.313   8.349  0.00  0.00    +0.000 A 
ATOM     22  C   UNL     1      46.352   3.318   7.703  0.00  0.00    +0.000 A 
ATOM     23  C   UNL     1      46.163   1.972   8.026  0.00  0.00    +0.000 A 
ATOM     24  C   UNL     1      45.196   1.626   8.969  0.00  0.00    +0.000 A 
ATOM     25  C   UNL     1      44.456   2.630   9.609  0.00  0.00    +0.000 A 
BRANCH  23  26
ATOM     26  C   UNL     1      47.009   0.957   7.339  0.00  0.00    +0.000 C 
ATOM     27  N   UNL     1      46.762  -0.360   7.614  0.00  0.00    +0.000 N 
ATOM     28  O   UNL     1      47.918   1.281   6.590  0.00  0.00    +0.000 OA
ATOM     29  H   UNL     1      46.213  -0.656   8.408  0.00  0.00    +0.000 HD
ATOM     30  H   UNL     1      47.427  -1.024   7.236  0.00  0.00    +0.000 HD
ENDBRANCH  23  26
ENDBRANCH  18  20
ENDBRANCH  17  18
ENDBRANCH   1  17
TORSDOF 6
ENDMDL
MODEL 6
REMARK VINA RESULT:    -6.618      3.111      5.265
REMARK INTER + INTRA:         -10.110
REMARK INTER:                  -8.861
REMARK INTRA:                  -1.249
REMARK UNBOUND:                -1.170
REMARK  Name = 
REMARK  9 active torsions:
REMARK  status: ('A' for Active; 'I' for Inactive)
REMARK    1  A    between atoms: C_1  and  N_2
REMARK    2  A    between atoms: N_5  and  C_6
REMARK    3  A    between atoms: C_10  and  C_11
REMARK    4  A    between atoms: C_11  and  C_12
REMARK    5  A    between atoms: C_11  and  C_13
REMARK    6  A    between atoms: C_11  and  C_14
REMARK    7  A    between atoms: C_14  and  N_15
REMARK    8  A    between atoms: N_15  and  C_16
REMARK    9  A    between atoms: C_19  and  C_20
REMARK                            x       y       z     vdW  Elec       q    Type
REMARK                         _______ _______ _______ _____ _____    ______ ____
ROOT
ATOM      1  C   UNL     1      48.455   8.256  13.145  0.00  0.00    +0.000 C 
ATOM      2  C   UNL     1      49.331   9.455  12.707  0.00  0.00    +0.000 C 
ATOM      3  C   UNL     1      49.075   6.963  12.566  0.00  0.00    +0.000 C 
ENDROOT
BRANCH   1   8
ATOM      4  C   UNL     1      48.818   6.871  16.764  0.00  0.00    +0.000 A 
ATOM      5  C   UNL     1      48.614   8.045  17.495  0.00  0.00    +0.000 A 
ATOM      6  C   UNL     1      48.315   9.255  16.864  0.00  0.00    +0.000 A 
ATOM      7  C   UNL     1      48.245   9.322  15.473  0.00  0.00    +0.000 A 
ATOM      8  C   UNL     1      48.449   8.177  14.687  0.00  0.00    +0.000 A 
ATOM      9  C   UNL     1      48.688   6.970  15.371  0.00  0.00    +0.000 A 
BRANCH   4  14
ATOM     10  C   UNL     1      50.856   1.755  17.275  0.00  0.00    +0.000 C 
ATOM     11  N   UNL     1      50.235   2.993  17.736  0.00  0.00    +0.000 NA
ATOM     12  C   UNL     1      51.126   4.150  17.503  0.00  0.00    +0.000 C 
ATOM     13  C   UNL     1      50.505   5.491  17.971  0.00  0.00    +0.000 C 
ATOM     14  N   UNL     1      49.187   5.681  17.352  0.00  0.00    +0.000 N 
ATOM     15  C   UNL     1      48.269   4.537  17.505  0.00  0.00    +0.000 C 
ATOM     16  C   UNL     1      48.949   3.228  17.042  0.00  0.00    +0.000 C 
ENDBRANCH   4  14
ENDBRANCH   1   8
BRANCH   1  17
ATOM     17  C   UNL     1      47.043   8.473  12.487  0.00  0.00    +0.000 C 
BRANCH  17  18
ATOM     18  N   UNL     1      45.953   7.826  13.233  0.00  0.00    +0.000 N 
ATOM     19  H   UNL     1      45.298   8.470  13.671  0.00  0.00    +0.000 HD
BRANCH  18  20
ATOM     20  C   UNL     1      45.368   6.646  12.775  0.00  0.00    +0.000 A 
ATOM     21  C   UNL     1      44.488   6.597  11.689  0.00  0.00    +0.000 A 
ATOM     22  C   UNL     1      44.029   5.375  11.180  0.00  0.00    +0.000 A 
ATOM     23  C   UNL     1      44.460   4.170  11.741  0.00  0.00    +0.000 A 
ATOM     24  C   UNL     1      45.320   4.197  12.838  0.00  0.00    +0.000 A 
ATOM     25  C   UNL     1      45.773   5.425  13.339  0.00  0.00    +0.000 A 
BRANCH  23  26
ATOM     26  C   UNL     1      43.974   2.899  11.137  0.00  0.00    +0.000 C 
ATOM     27  N   UNL     1      44.697   2.377  10.099  0.00  0.00    +0.000 N 
ATOM     28  O   UNL     1      42.947   2.359  11.518  0.00  0.00    +0.000 OA
ATOM     29  H   UNL     1      45.384   2.915   9.591  0.00  0.00    +0.000 HD
ATOM     30  H   UNL     1      44.281   1.585   9.623  0.00  0.00    +0.000 HD
ENDBRANCH  23  26
ENDBRANCH  18  20
ENDBRANCH  17  18
ENDBRANCH   1  17
TORSDOF 6
ENDMDL
MODEL 7
REMARK VINA RESULT:    -6.545      3.769      7.941
REMARK INTER + INTRA:         -10.011
REMARK INTER:                  -8.698
REMARK INTRA:                  -1.313
REMARK UNBOUND:                -1.170
REMARK  Name = 
REMARK  9 active torsions:
REMARK  status: ('A' for Active; 'I' for Inactive)
REMARK    1  A    between atoms: C_1  and  N_2
REMARK    2  A    between atoms: N_5  and  C_6
REMARK    3  A    between atoms: C_10  and  C_11
REMARK    4  A    between atoms: C_11  and  C_12
REMARK    5  A    between atoms: C_11  and  C_13
REMARK    6  A    between atoms: C_11  and  C_14
REMARK    7  A    between atoms: C_14  and  N_15
REMARK    8  A    between atoms: N_15  and  C_16
REMARK    9  A    between atoms: C_19  and  C_20
REMARK                            x       y       z     vdW  Elec       q    Type
REMARK                         _______ _______ _______ _____ _____    ______ ____
ROOT
ATOM      1  C   UNL     1      48.966   8.958  12.476  0.00  0.00    +0.000 C 
ATOM      2  C   UNL     1      49.590   7.719  11.787  0.00  0.00    +0.000 C 
ATOM      3  C   UNL     1      49.664  10.223  11.927  0.00  0.00    +0.000 C 
ENDROOT
BRANCH   1   8
ATOM      4  C   UNL     1      45.263   7.873  11.970  0.00  0.00    +0.000 A 
ATOM      5  C   UNL     1      44.681   9.115  11.698  0.00  0.00    +0.000 A 
ATOM      6  C   UNL     1      45.449  10.280  11.623  0.00  0.00    +0.000 A 
ATOM      7  C   UNL     1      46.823  10.231  11.853  0.00  0.00    +0.000 A 
ATOM      8  C   UNL     1      47.460   9.013  12.138  0.00  0.00    +0.000 A 
ATOM      9  C   UNL     1      46.655   7.858  12.144  0.00  0.00    +0.000 A 
BRANCH   4  14
ATOM     10  C   UNL     1      43.612   2.642  11.266  0.00  0.00    +0.000 C 
ATOM     11  N   UNL     1      43.570   3.986  11.834  0.00  0.00    +0.000 NA
ATOM     12  C   UNL     1      44.831   4.301  12.540  0.00  0.00    +0.000 C 
ATOM     13  C   UNL     1      44.836   5.724  13.155  0.00  0.00    +0.000 C 
ATOM     14  N   UNL     1      44.523   6.721  12.123  0.00  0.00    +0.000 N 
ATOM     15  C   UNL     1      43.304   6.435  11.346  0.00  0.00    +0.000 C 
ATOM     16  C   UNL     1      43.346   4.998  10.776  0.00  0.00    +0.000 C 
ENDBRANCH   4  14
ENDBRANCH   1   8
BRANCH   1  17
ATOM     17  C   UNL     1      49.297   8.828  14.008  0.00  0.00    +0.000 C 
BRANCH  17  18
ATOM     18  N   UNL     1      49.913   7.540  14.359  0.00  0.00    +0.000 N 
ATOM     19  H   UNL     1      50.924   7.570  14.470  0.00  0.00    +0.000 HD
BRANCH  18  20
ATOM     20  C   UNL     1      49.276   6.645  15.217  0.00  0.00    +0.000 A 
ATOM     21  C   UNL     1      48.112   5.950  14.874  0.00  0.00    +0.000 A 
ATOM     22  C   UNL     1      47.580   4.963  15.714  0.00  0.00    +0.000 A 
ATOM     23  C   UNL     1      48.220   4.636  16.912  0.00  0.00    +0.000 A 
ATOM     24  C   UNL     1      49.369   5.331  17.284  0.00  0.00    +0.000 A 
ATOM     25  C   UNL     1      49.892   6.318  16.436  0.00  0.00    +0.000 A 
BRANCH  23  26
ATOM     26  C   UNL     1      47.636   3.551  17.748  0.00  0.00    +0.000 C 
ATOM     27  N   UNL     1      48.308   3.203  18.889  0.00  0.00    +0.000 N 
ATOM     28  O   UNL     1      46.621   2.960  17.415  0.00  0.00    +0.000 OA
ATOM     29  H   UNL     1      49.265   3.475  19.060  0.00  0.00    +0.000 HD
ATOM     30  H   UNL     1      47.964   2.383  19.373  0.00  0.00    +0.000 HD
ENDBRANCH  23  26
ENDBRANCH  18  20
ENDBRANCH  17  18
ENDBRANCH   1  17
TORSDOF 6
ENDMDL
MODEL 8
REMARK VINA RESULT:    -6.399      3.931      8.663
REMARK INTER + INTRA:          -9.814
REMARK INTER:                  -9.007
REMARK INTRA:                  -0.807
REMARK UNBOUND:                -1.170
REMARK  Name = 
REMARK  9 active torsions:
REMARK  status: ('A' for Active; 'I' for Inactive)
REMARK    1  A    between atoms: C_1  and  N_2
REMARK    2  A    between atoms: N_5  and  C_6
REMARK    3  A    between atoms: C_10  and  C_11
REMARK    4  A    between atoms: C_11  and  C_12
REMARK    5  A    between atoms: C_11  and  C_13
REMARK    6  A    between atoms: C_11  and  C_14
REMARK    7  A    between atoms: C_14  and  N_15
REMARK    8  A    between atoms: N_15  and  C_16
REMARK    9  A    between atoms: C_19  and  C_20
REMARK                            x       y       z     vdW  Elec       q    Type
REMARK                         _______ _______ _______ _____ _____    ______ ____
ROOT
ATOM      1  C   UNL     1      49.349   6.783  16.043  0.00  0.00    +0.000 C 
ATOM      2  C   UNL     1      50.888   6.878  16.178  0.00  0.00    +0.000 C 
ATOM      3  C   UNL     1      48.717   7.932  16.863  0.00  0.00    +0.000 C 
ENDROOT
BRANCH   1   8
ATOM      4  C   UNL     1      47.418   6.440  12.682  0.00  0.00    +0.000 A 
ATOM      5  C   UNL     1      48.139   7.341  11.894  0.00  0.00    +0.000 A 
ATOM      6  C   UNL     1      49.255   8.016  12.395  0.00  0.00    +0.000 A 
ATOM      7  C   UNL     1      49.657   7.826  13.716  0.00  0.00    +0.000 A 
ATOM      8  C   UNL     1      48.965   6.940  14.556  0.00  0.00    +0.000 A 
ATOM      9  C   UNL     1      47.884   6.238  13.990  0.00  0.00    +0.000 A 
BRANCH   4  14
ATOM     10  C   UNL     1      44.171   2.723  10.185  0.00  0.00    +0.000 C 
ATOM     11  N   UNL     1      44.468   3.920  10.966  0.00  0.00    +0.000 NA
ATOM     12  C   UNL     1      45.217   3.577  12.195  0.00  0.00    +0.000 C 
ATOM     13  C   UNL     1      45.562   4.820  13.054  0.00  0.00    +0.000 C 
ATOM     14  N   UNL     1      46.271   5.816  12.241  0.00  0.00    +0.000 N 
ATOM     15  C   UNL     1      45.600   6.161  10.974  0.00  0.00    +0.000 C 
ATOM     16  C   UNL     1      45.263   4.884  10.172  0.00  0.00    +0.000 C 
ENDBRANCH   4  14
ENDBRANCH   1   8
BRANCH   1  17
ATOM     17  C   UNL     1      48.930   5.413  16.694  0.00  0.00    +0.000 C 
BRANCH  17  18
ATOM     18  N   UNL     1      49.726   5.071  17.882  0.00  0.00    +0.000 N 
ATOM     19  H   UNL     1      49.276   5.284  18.770  0.00  0.00    +0.000 HD
BRANCH  18  20
ATOM     20  C   UNL     1      50.522   3.927  17.911  0.00  0.00    +0.000 A 
ATOM     21  C   UNL     1      50.118   2.697  17.383  0.00  0.00    +0.000 A 
ATOM     22  C   UNL     1      50.999   1.610  17.313  0.00  0.00    +0.000 A 
ATOM     23  C   UNL     1      52.318   1.741  17.756  0.00  0.00    +0.000 A 
ATOM     24  C   UNL     1      52.735   2.952  18.306  0.00  0.00    +0.000 A 
ATOM     25  C   UNL     1      51.844   4.032  18.372  0.00  0.00    +0.000 A 
BRANCH  23  26
ATOM     26  C   UNL     1      53.225   0.568  17.622  0.00  0.00    +0.000 C 
ATOM     27  N   UNL     1      52.982  -0.512  18.426  0.00  0.00    +0.000 N 
ATOM     28  O   UNL     1      54.177   0.578  16.857  0.00  0.00    +0.000 OA
ATOM     29  H   UNL     1      52.385  -0.461  19.239  0.00  0.00    +0.000 HD
ATOM     30  H   UNL     1      53.682  -1.243  18.409  0.00  0.00    +0.000 HD
ENDBRANCH  23  26
ENDBRANCH  18  20
ENDBRANCH  17  18
ENDBRANCH   1  17
TORSDOF 6
ENDMDL
MODEL 9
REMARK VINA RESULT:    -6.233      3.784      8.163
REMARK INTER + INTRA:          -9.589
REMARK INTER:                  -8.252
REMARK INTRA:                  -1.338
REMARK UNBOUND:                -1.170
REMARK  Name = 
REMARK  9 active torsions:
REMARK  status: ('A' for Active; 'I' for Inactive)
REMARK    1  A    between atoms: C_1  and  N_2
REMARK    2  A    between atoms: N_5  and  C_6
REMARK    3  A    between atoms: C_10  and  C_11
REMARK    4  A    between atoms: C_11  and  C_12
REMARK    5  A    between atoms: C_11  and  C_13
REMARK    6  A    between atoms: C_11  and  C_14
REMARK    7  A    between atoms: C_14  and  N_15
REMARK    8  A    between atoms: N_15  and  C_16
REMARK    9  A    between atoms: C_19  and  C_20
REMARK                            x       y       z     vdW  Elec       q    Type
REMARK                         _______ _______ _______ _____ _____    ______ ____
ROOT
ATOM      1  C   UNL     1      49.391   9.248  15.381  0.00  0.00    +0.000 C 
ATOM      2  C   UNL     1      49.955  10.626  14.958  0.00  0.00    +0.000 C 
ATOM      3  C   UNL     1      48.171   9.482  16.302  0.00  0.00    +0.000 C 
ENDROOT
BRANCH   1   8
ATOM      4  C   UNL     1      47.393   6.880  13.025  0.00  0.00    +0.000 A 
ATOM      5  C   UNL     1      47.988   7.197  11.800  0.00  0.00    +0.000 A 
ATOM      6  C   UNL     1      49.042   8.110  11.716  0.00  0.00    +0.000 A 
ATOM      7  C   UNL     1      49.506   8.754  12.862  0.00  0.00    +0.000 A 
ATOM      8  C   UNL     1      48.942   8.481  14.118  0.00  0.00    +0.000 A 
ATOM      9  C   UNL     1      47.922   7.511  14.161  0.00  0.00    +0.000 A 
BRANCH   4  14
ATOM     10  C   UNL     1      43.611   3.095  11.626  0.00  0.00    +0.000 C 
ATOM     11  N   UNL     1      44.267   4.061  12.502  0.00  0.00    +0.000 NA
ATOM     12  C   UNL     1      45.674   3.679  12.751  0.00  0.00    +0.000 C 
ATOM     13  C   UNL     1      46.414   4.682  13.672  0.00  0.00    +0.000 C 
ATOM     14  N   UNL     1      46.304   6.042  13.131  0.00  0.00    +0.000 N 
ATOM     15  C   UNL     1      44.928   6.464  12.811  0.00  0.00    +0.000 C 
ATOM     16  C   UNL     1      44.234   5.417  11.909  0.00  0.00    +0.000 C 
ENDBRANCH   4  14
ENDBRANCH   1   8
BRANCH   1  17
ATOM     17  C   UNL     1      50.522   8.542  16.216  0.00  0.00    +0.000 C 
BRANCH  17  18
ATOM     18  N   UNL     1      50.005   7.798  17.375  0.00  0.00    +0.000 N 
ATOM     19  H   UNL     1      49.182   8.209  17.810  0.00  0.00    +0.000 HD
BRANCH  18  20
ATOM     20  C   UNL     1      50.027   6.405  17.405  0.00  0.00    +0.000 A 
ATOM     21  C   UNL     1      48.898   5.614  17.166  0.00  0.00    +0.000 A 
ATOM     22  C   UNL     1      48.993   4.220  17.075  0.00  0.00    +0.000 A 
ATOM     23  C   UNL     1      50.233   3.587  17.202  0.00  0.00    +0.000 A 
ATOM     24  C   UNL     1      51.367   4.354  17.462  0.00  0.00    +0.000 A 
ATOM     25  C   UNL     1      51.260   5.749  17.552  0.00  0.00    +0.000 A 
BRANCH  23  26
ATOM     26  C   UNL     1      50.285   2.106  17.056  0.00  0.00    +0.000 C 
ATOM     27  N   UNL     1      51.127   1.420  17.887  0.00  0.00    +0.000 N 
ATOM     28  O   UNL     1      49.635   1.522  16.202  0.00  0.00    +0.000 OA
ATOM     29  H   UNL     1      51.861   1.873  18.412  0.00  0.00    +0.000 HD
ATOM     30  H   UNL     1      51.241   0.433  17.687  0.00  0.00    +0.000 HD
ENDBRANCH  23  26
ENDBRANCH  18  20
ENDBRANCH  17  18
ENDBRANCH   1  17
TORSDOF 6
ENDMDL
