MODEL 1
REMARK VINA RESULT:    -7.934      0.000      0.000
REMARK INTER + INTRA:         -10.929
REMARK INTER:                 -10.254
REMARK INTRA:                  -0.676
REMARK UNBOUND:                -0.676
REMARK  Name = 
REMARK  6 active torsions:
REMARK  status: ('A' for Active; 'I' for Inactive)
REMARK    1  A    between atoms: C_1  and  O_2
REMARK    2  A    between atoms: O_2  and  C_3
REMARK    3  A    between atoms: C_6  and  O_7
REMARK    4  A    between atoms: O_7  and  C_8
REMARK    5  A    between atoms: C_8  and  C_9
REMARK    6  A    between atoms: C_12  and  C_13
REMARK                            x       y       z     vdW  Elec       q    Type
REMARK                         _______ _______ _______ _____ _____    ______ ____
ROOT
ATOM      1  C   UNL     1      44.688   3.875   9.413  0.00  0.00    +0.000 A 
ATOM      2  C   UNL     1      45.505   4.550   8.497  0.00  0.00    +0.000 A 
ATOM      3  C   UNL     1      46.375   3.839   7.663  0.00  0.00    +0.000 A 
ATOM      4  C   UNL     1      46.462   2.445   7.752  0.00  0.00    +0.000 A 
ATOM      5  C   UNL     1      45.661   1.763   8.673  0.00  0.00    +0.000 A 
ATOM      6  C   UNL     1      44.784   2.476   9.499  0.00  0.00    +0.000 A 
ENDROOT
BRANCH   4   7
ATOM      7  C   UNL     1      47.390   1.735   6.831  0.00  0.00    +0.000 C 
ATOM      8  N   UNL     1      48.476   2.425   6.366  0.00  0.00    +0.000 N 
ATOM      9  O   UNL     1      47.181   0.583   6.473  0.00  0.00    +0.000 OA
ATOM     10  H   UNL     1      48.590   3.421   6.475  0.00  0.00    +0.000 HD
ATOM     11  H   UNL     1      49.041   1.953   5.673  0.00  0.00    +0.000 HD
ENDBRANCH   4   7
BRANCH   1  12
ATOM     12  C   UNL     1      43.761   4.616  10.355  0.00  0.00    +0.000 C 
BRANCH  12  13
ATOM     13  O   UNL     1      44.339   5.842  10.807  0.00  0.00    +0.000 OA
BRANCH  13  17
ATOM     14  C   UNL     1      47.175   5.344  13.842  0.00  0.00    +0.000 A 
ATOM     15  C   UNL     1      47.472   6.200  12.782  0.00  0.00    +0.000 A 
ATOM     16  C   UNL     1      46.550   6.394  11.747  0.00  0.00    +0.000 A 
ATOM     17  C   UNL     1      45.316   5.741  11.762  0.00  0.00    +0.000 A 
ATOM     18  C   UNL     1      45.016   4.892  12.831  0.00  0.00    +0.000 A 
ATOM     19  C   UNL     1      45.938   4.699  13.863  0.00  0.00    +0.000 A 
BRANCH  14  21
ATOM     20  C   UNL     1      47.426   4.324  15.974  0.00  0.00    +0.000 C 
ATOM     21  O   UNL     1      47.996   5.062  14.898  0.00  0.00    +0.000 OA
ENDBRANCH  14  21
ENDBRANCH  13  17
ENDBRANCH  12  13
ENDBRANCH   1  12
TORSDOF 5
ENDMDL
MODEL 2
REMARK VINA RESULT:    -7.369      1.410      2.381
REMARK INTER + INTRA:         -10.199
REMARK INTER:                  -9.500
REMARK INTRA:                  -0.699
REMARK UNBOUND:                -0.676
REMARK  Name = 
REMARK  6 active torsions:
REMARK  status: ('A' for Active; 'I' for Inactive)
REMARK    1  A    between atoms: C_1  and  O_2
REMARK    2  A    between atoms: O_2  and  C_3
REMARK    3  A    between atoms: C_6  and  O_7
REMARK    4  A    between atoms: O_7  and  C_8
REMARK    5  A    between atoms: C_8  and  C_9
REMARK    6  A    between atoms: C_12  and  C_13
REMARK                            x       y       z     vdW  Elec       q    Type
REMARK                         _______ _______ _______ _____ _____    ______ ____
ROOT
ATOM      1  C   UNL     1      44.646   3.812   9.425  0.00  0.00    +0.000 A 
ATOM      2  C   UNL     1      44.747   2.414   9.412  0.00  0.00    +0.000 A 
ATOM      3  C   UNL     1      45.659   1.775   8.566  0.00  0.00    +0.000 A 
ATOM      4  C   UNL     1      46.467   2.522   7.700  0.00  0.00    +0.000 A 
ATOM      5  C   UNL     1      46.365   3.917   7.695  0.00  0.00    +0.000 A 
ATOM      6  C   UNL     1      45.458   4.554   8.549  0.00  0.00    +0.000 A 
ENDROOT
BRANCH   4   7
ATOM      7  C   UNL     1      47.434   1.796   6.835  0.00  0.00    +0.000 C 
ATOM      8  N   UNL     1      48.498   2.500   6.341  0.00  0.00    +0.000 N 
ATOM      9  O   UNL     1      47.277   0.617   6.544  0.00  0.00    +0.000 OA
ATOM     10  H   UNL     1      48.571   3.505   6.390  0.00  0.00    +0.000 HD
ATOM     11  H   UNL     1      49.092   2.011   5.684  0.00  0.00    +0.000 HD
ENDBRANCH   4   7
BRANCH   1  12
ATOM     12  C   UNL     1      43.643   4.534  10.301  0.00  0.00    +0.000 C 
BRANCH  12  13
ATOM     13  O   UNL     1      44.027   4.501  11.677  0.00  0.00    +0.000 OA
BRANCH  13  17
ATOM     14  C   UNL     1      46.649   7.555  12.816  0.00  0.00    +0.000 A 
ATOM     15  C   UNL     1      46.959   6.242  13.166  0.00  0.00    +0.000 A 
ATOM     16  C   UNL     1      46.108   5.191  12.803  0.00  0.00    +0.000 A 
ATOM     17  C   UNL     1      44.940   5.439  12.080  0.00  0.00    +0.000 A 
ATOM     18  C   UNL     1      44.636   6.755  11.721  0.00  0.00    +0.000 A 
ATOM     19  C   UNL     1      45.487   7.803  12.084  0.00  0.00    +0.000 A 
BRANCH  14  21
ATOM     20  C   UNL     1      48.387   9.049  12.186  0.00  0.00    +0.000 C 
ATOM     21  O   UNL     1      47.388   8.663  13.124  0.00  0.00    +0.000 OA
ENDBRANCH  14  21
ENDBRANCH  13  17
ENDBRANCH  12  13
ENDBRANCH   1  12
TORSDOF 5
ENDMDL
MODEL 3
REMARK VINA RESULT:    -7.067      2.534      6.509
REMARK INTER + INTRA:          -9.809
REMARK INTER:                  -9.040
REMARK INTRA:                  -0.769
REMARK UNBOUND:                -0.676
REMARK  Name = 
REMARK  6 active torsions:
REMARK  status: ('A' for Active; 'I' for Inactive)
REMARK    1  A    between atoms: C_1  and  O_2
REMARK    2  A    between atoms: O_2  and  C_3
REMARK    3  A    between atoms: C_6  and  O_7
REMARK    4  A    between atoms: O_7  and  C_8
REMARK    5  A    between atoms: C_8  and  C_9
REMARK    6  A    between atoms: C_12  and  C_13
REMARK                            x       y       z     vdW  Elec       q    Type
REMARK                         _______ _______ _______ _____ _____    ______ ____
ROOT
ATOM      1  C   UNL     1      44.549   5.116  11.947  0.00  0.00    +0.000 A 
ATOM      2  C   UNL     1      45.275   4.409  12.913  0.00  0.00    +0.000 A 
ATOM      3  C   UNL     1      46.360   5.006  13.565  0.00  0.00    +0.000 A 
ATOM      4  C   UNL     1      46.752   6.310  13.241  0.00  0.00    +0.000 A 
ATOM      5  C   UNL     1      46.042   7.020  12.267  0.00  0.00    +0.000 A 
ATOM      6  C   UNL     1      44.952   6.423  11.623  0.00  0.00    +0.000 A 
ENDROOT
BRANCH   4   7
ATOM      7  C   UNL     1      47.900   6.906  13.975  0.00  0.00    +0.000 C 
ATOM      8  N   UNL     1      47.712   8.126  14.564  0.00  0.00    +0.000 N 
ATOM      9  O   UNL     1      48.987   6.346  14.031  0.00  0.00    +0.000 OA
ATOM     10  H   UNL     1      46.909   8.711  14.389  0.00  0.00    +0.000 HD
ATOM     11  H   UNL     1      48.530   8.552  14.980  0.00  0.00    +0.000 HD
ENDBRANCH   4   7
BRANCH   1  12
ATOM     12  C   UNL     1      43.393   4.488  11.196  0.00  0.00    +0.000 C 
BRANCH  12  13
ATOM     13  O   UNL     1      43.558   4.604   9.781  0.00  0.00    +0.000 OA
BRANCH  13  17
ATOM     14  C   UNL     1      46.299   2.093   7.863  0.00  0.00    +0.000 A 
ATOM     15  C   UNL     1      45.407   1.535   8.778  0.00  0.00    +0.000 A 
ATOM     16  C   UNL     1      44.474   2.341   9.440  0.00  0.00    +0.000 A 
ATOM     17  C   UNL     1      44.416   3.714   9.191  0.00  0.00    +0.000 A 
ATOM     18  C   UNL     1      45.304   4.269   8.266  0.00  0.00    +0.000 A 
ATOM     19  C   UNL     1      46.235   3.462   7.606  0.00  0.00    +0.000 A 
BRANCH  14  21
ATOM     20  C   UNL     1      48.167   2.199   6.397  0.00  0.00    +0.000 C 
ATOM     21  O   UNL     1      47.263   1.416   7.168  0.00  0.00    +0.000 OA
ENDBRANCH  14  21
ENDBRANCH  13  17
ENDBRANCH  12  13
ENDBRANCH   1  12
TORSDOF 5
ENDMDL
MODEL 4
REMARK VINA RESULT:    -5.436      3.061      5.185
REMARK INTER + INTRA:          -7.700
REMARK INTER:                  -7.219
REMARK INTRA:                  -0.481
REMARK UNBOUND:                -0.676
REMARK  Name = 
REMARK  6 active torsions:
REMARK  status: ('A' for Active; 'I' for Inactive)
REMARK    1  A    between atoms: C_1  and  O_2
REMARK    2  A    between atoms: O_2  and  C_3
REMARK    3  A    between atoms: C_6  and  O_7
REMARK    4  A    between atoms: O_7  and  C_8
REMARK    5  A    between atoms: C_8  and  C_9
REMARK    6  A    between atoms: C_12  and  C_13
REMARK                            x       y       z     vdW  Elec       q    Type
REMARK                         _______ _______ _______ _____ _____    ______ ____
ROOT
ATOM      1  C   UNL     1      46.868   6.156  12.972  0.00  0.00    +0.000 A 
ATOM      2  C   UNL     1      46.698   6.534  11.634  0.00  0.00    +0.000 A 
ATOM      3  C   UNL     1      45.739   5.905  10.834  0.00  0.00    +0.000 A 
ATOM      4  C   UNL     1      44.953   4.869  11.352  0.00  0.00    +0.000 A 
ATOM      5  C   UNL     1      45.124   4.474  12.683  0.00  0.00    +0.000 A 
ATOM      6  C   UNL     1      46.078   5.112  13.483  0.00  0.00    +0.000 A 
ENDROOT
BRANCH   4   7
ATOM      7  C   UNL     1      43.934   4.245  10.466  0.00  0.00    +0.000 C 
ATOM      8  N   UNL     1      44.019   4.495   9.124  0.00  0.00    +0.000 N 
ATOM      9  O   UNL     1      43.029   3.554  10.917  0.00  0.00    +0.000 OA
ATOM     10  H   UNL     1      44.620   5.201   8.728  0.00  0.00    +0.000 HD
ATOM     11  H   UNL     1      43.266   4.134   8.554  0.00  0.00    +0.000 HD
ENDBRANCH   4   7
BRANCH   1  12
ATOM     12  C   UNL     1      47.923   6.791  13.856  0.00  0.00    +0.000 C 
BRANCH  12  13
ATOM     13  O   UNL     1      48.609   5.815  14.642  0.00  0.00    +0.000 OA
BRANCH  13  17
ATOM     14  C   UNL     1      48.171   5.907  18.800  0.00  0.00    +0.000 A 
ATOM     15  C   UNL     1      48.657   7.043  18.153  0.00  0.00    +0.000 A 
ATOM     16  C   UNL     1      48.817   7.052  16.763  0.00  0.00    +0.000 A 
ATOM     17  C   UNL     1      48.488   5.930  16.001  0.00  0.00    +0.000 A 
ATOM     18  C   UNL     1      47.991   4.797  16.650  0.00  0.00    +0.000 A 
ATOM     19  C   UNL     1      47.832   4.789  18.039  0.00  0.00    +0.000 A 
BRANCH  14  21
ATOM     20  C   UNL     1      48.610   4.653  20.771  0.00  0.00    +0.000 C 
ATOM     21  O   UNL     1      47.986   5.771  20.148  0.00  0.00    +0.000 OA
ENDBRANCH  14  21
ENDBRANCH  13  17
ENDBRANCH  12  13
ENDBRANCH   1  12
TORSDOF 5
ENDMDL
MODEL 5
REMARK VINA RESULT:    -5.253      5.085      8.112
REMARK INTER + INTRA:          -7.464
REMARK INTER:                  -6.969
REMARK INTRA:                  -0.495
REMARK UNBOUND:                -0.676
REMARK  Name = 
REMARK  6 active torsions:
REMARK  status: ('A' for Active; 'I' for Inactive)
REMARK    1  A    between atoms: C_1  and  O_2
REMARK    2  A    between atoms: O_2  and  C_3
REMARK    3  A    between atoms: C_6  and  O_7
REMARK    4  A    between atoms: O_7  and  C_8
REMARK    5  A    between atoms: C_8  and  C_9
REMARK    6  A    between atoms: C_12  and  C_13
REMARK                            x       y       z     vdW  Elec       q    Type
REMARK                         _______ _______ _______ _____ _____    ______ ____
ROOT
ATOM      1  C   UNL     1      48.598   3.670  16.906  0.00  0.00    +0.000 A 
ATOM      2  C   UNL     1      49.461   4.630  17.449  0.00  0.00    +0.000 A 
ATOM      3  C   UNL     1      50.767   4.286  17.814  0.00  0.00    +0.000 A 
ATOM      4  C   UNL     1      51.221   2.970  17.668  0.00  0.00    +0.000 A 
ATOM      5  C   UNL     1      50.362   2.001  17.139  0.00  0.00    +0.000 A 
ATOM      6  C   UNL     1      49.060   2.350  16.766  0.00  0.00    +0.000 A 
ENDROOT
BRANCH   4   7
ATOM      7  C   UNL     1      52.623   2.659  18.054  0.00  0.00    +0.000 C 
ATOM      8  N   UNL     1      52.900   1.386  18.471  0.00  0.00    +0.000 N 
ATOM      9  O   UNL     1      53.500   3.513  18.030  0.00  0.00    +0.000 OA
ATOM     10  H   UNL     1      52.189   0.706  18.690  0.00  0.00    +0.000 HD
ATOM     11  H   UNL     1      53.838   1.222  18.813  0.00  0.00    +0.000 HD
ENDBRANCH   4   7
BRANCH   1  12
ATOM     12  C   UNL     1      47.166   4.000  16.533  0.00  0.00    +0.000 C 
BRANCH  12  13
ATOM     13  O   UNL     1      46.898   3.704  15.161  0.00  0.00    +0.000 OA
BRANCH  13  17
ATOM     14  C   UNL     1      46.133   6.896  12.568  0.00  0.00    +0.000 A 
ATOM     15  C   UNL     1      47.347   6.867  13.254  0.00  0.00    +0.000 A 
ATOM     16  C   UNL     1      47.641   5.816  14.131  0.00  0.00    +0.000 A 
ATOM     17  C   UNL     1      46.729   4.777  14.327  0.00  0.00    +0.000 A 
ATOM     18  C   UNL     1      45.518   4.802  13.630  0.00  0.00    +0.000 A 
ATOM     19  C   UNL     1      45.226   5.853  12.755  0.00  0.00    +0.000 A 
BRANCH  14  21
ATOM     20  C   UNL     1      45.329   9.113  12.274  0.00  0.00    +0.000 C 
ATOM     21  O   UNL     1      45.726   7.872  11.701  0.00  0.00    +0.000 OA
ENDBRANCH  14  21
ENDBRANCH  13  17
ENDBRANCH  12  13
ENDBRANCH   1  12
TORSDOF 5
ENDMDL
MODEL 6
REMARK VINA RESULT:    -5.117      3.977      5.700
REMARK INTER + INTRA:          -7.288
REMARK INTER:                  -6.811
REMARK INTRA:                  -0.477
REMARK UNBOUND:                -0.676
REMARK  Name = 
REMARK  6 active torsions:
REMARK  status: ('A' for Active; 'I' for Inactive)
REMARK    1  A    between atoms: C_1  and  O_2
REMARK    2  A    between atoms: O_2  and  C_3
REMARK    3  A    between atoms: C_6  and  O_7
REMARK    4  A    between atoms: O_7  and  C_8
REMARK    5  A    between atoms: C_8  and  C_9
REMARK    6  A    between atoms: C_12  and  C_13
REMARK                            x       y       z     vdW  Elec       q    Type
REMARK                         _______ _______ _______ _____ _____    ______ ____
ROOT
ATOM      1  C   UNL     1      46.604   6.075  12.535  0.00  0.00    +0.000 A 
ATOM      2  C   UNL     1      46.035   6.195  11.261  0.00  0.00    +0.000 A 
ATOM      3  C   UNL     1      45.222   5.178  10.747  0.00  0.00    +0.000 A 
ATOM      4  C   UNL     1      44.988   4.014  11.488  0.00  0.00    +0.000 A 
ATOM      5  C   UNL     1      45.564   3.878  12.756  0.00  0.00    +0.000 A 
ATOM      6  C   UNL     1      46.368   4.901  13.271  0.00  0.00    +0.000 A 
ENDROOT
BRANCH   4   7
ATOM      7  C   UNL     1      44.102   2.972  10.905  0.00  0.00    +0.000 C 
ATOM      8  N   UNL     1      44.591   2.232   9.863  0.00  0.00    +0.000 N 
ATOM      9  O   UNL     1      42.963   2.794  11.318  0.00  0.00    +0.000 OA
ATOM     10  H   UNL     1      45.437   2.464   9.366  0.00  0.00    +0.000 HD
ATOM     11  H   UNL     1      43.941   1.593   9.426  0.00  0.00    +0.000 HD
ENDBRANCH   4   7
BRANCH   1  12
ATOM     12  C   UNL     1      47.518   7.139  13.107  0.00  0.00    +0.000 C 
BRANCH  12  13
ATOM     13  O   UNL     1      47.637   8.259  12.228  0.00  0.00    +0.000 OA
BRANCH  13  17
ATOM     14  C   UNL     1      51.425   9.433  10.898  0.00  0.00    +0.000 A 
ATOM     15  C   UNL     1      51.184   8.078  11.121  0.00  0.00    +0.000 A 
ATOM     16  C   UNL     1      49.930   7.644  11.566  0.00  0.00    +0.000 A 
ATOM     17  C   UNL     1      48.898   8.559  11.786  0.00  0.00    +0.000 A 
ATOM     18  C   UNL     1      49.138   9.915  11.551  0.00  0.00    +0.000 A 
ATOM     19  C   UNL     1      50.391  10.346  11.107  0.00  0.00    +0.000 A 
BRANCH  14  21
ATOM     20  C   UNL     1      53.465   9.141   9.713  0.00  0.00    +0.000 C 
ATOM     21  O   UNL     1      52.607   9.978  10.480  0.00  0.00    +0.000 OA
ENDBRANCH  14  21
ENDBRANCH  13  17
ENDBRANCH  12  13
ENDBRANCH   1  12
TORSDOF 5
ENDMDL
