MODEL 1
REMARK VINA RESULT:    -8.285      0.000      0.000
REMARK INTER + INTRA:         -11.687
REMARK INTER:                 -10.707
REMARK INTRA:                  -0.980
REMARK UNBOUND:                -0.980
REMARK  Name = 
REMARK  5 active torsions:
REMARK  status: ('A' for Active; 'I' for Inactive)
REMARK    1  A    between atoms: C_2  and  C_4
REMARK    2  A    between atoms: C_7  and  O_8
REMARK    3  A    between atoms: O_8  and  C_9
REMARK    4  A    between atoms: C_9  and  C_10
REMARK    5  A    between atoms: C_13  and  C_14
REMARK                            x       y       z     vdW  Elec       q    Type
REMARK                         _______ _______ _______ _____ _____    ______ ____
ROOT
ATOM      1  C   UNL     1      43.702   3.120  11.722  0.00  0.00    +0.000 C 
ENDROOT
BRANCH   1   2
ATOM      2  C   UNL     1      44.752   4.017  12.322  0.00  0.00    +0.000 A 
ATOM      3  C   UNL     1      45.926   3.470  12.850  0.00  0.00    +0.000 A 
ATOM      4  C   UNL     1      46.901   4.297  13.408  0.00  0.00    +0.000 A 
ATOM      5  C   UNL     1      46.721   5.688  13.461  0.00  0.00    +0.000 A 
ATOM      6  C   UNL     1      45.538   6.231  12.943  0.00  0.00    +0.000 A 
ATOM      7  C   UNL     1      44.560   5.403  12.383  0.00  0.00    +0.000 A 
BRANCH   5   8
ATOM      8  C   UNL     1      47.759   6.589  14.104  0.00  0.00    +0.000 C 
ATOM      9  C   UNL     1      48.920   6.914  13.153  0.00  0.00    +0.000 C 
ATOM     10  C   UNL     1      50.008   7.695  13.877  0.00  0.00    +0.000 C 
ATOM     11  O   UNL     1      50.450   6.991  15.036  0.00  0.00    +0.000 OA
ATOM     12  C   UNL     1      49.405   6.820  15.992  0.00  0.00    +0.000 C 
ATOM     13  C   UNL     1      48.280   5.978  15.413  0.00  0.00    +0.000 C 
ENDBRANCH   5   8
ENDBRANCH   1   2
BRANCH   1  14
ATOM     14  O   UNL     1      43.425   3.559  10.394  0.00  0.00    +0.000 OA
BRANCH  14  18
ATOM     15  C   UNL     1      46.411   2.670   7.619  0.00  0.00    +0.000 A 
ATOM     16  C   UNL     1      46.021   4.004   7.775  0.00  0.00    +0.000 A 
ATOM     17  C   UNL     1      45.025   4.343   8.698  0.00  0.00    +0.000 A 
ATOM     18  C   UNL     1      44.410   3.352   9.467  0.00  0.00    +0.000 A 
ATOM     19  C   UNL     1      44.796   2.020   9.301  0.00  0.00    +0.000 A 
ATOM     20  C   UNL     1      45.787   1.676   8.378  0.00  0.00    +0.000 A 
BRANCH  15  22
ATOM     21  N   UNL     1      47.523   2.998   5.479  0.00  0.00    +0.000 N 
ATOM     22  C   UNL     1      47.455   2.277   6.639  0.00  0.00    +0.000 C 
ATOM     23  O   UNL     1      48.243   1.368   6.866  0.00  0.00    +0.000 OA
ATOM     24  H   UNL     1      48.301   2.784   4.868  0.00  0.00    +0.000 HD
ATOM     25  H   UNL     1      47.073   3.893   5.370  0.00  0.00    +0.000 HD
ENDBRANCH  15  22
ENDBRANCH  14  18
ENDBRANCH   1  14
TORSDOF 5
ENDMDL
MODEL 2
REMARK VINA RESULT:    -8.124      1.081      2.012
REMARK INTER + INTRA:         -11.478
REMARK INTER:                 -10.564
REMARK INTRA:                  -0.914
REMARK UNBOUND:                -0.980
REMARK  Name = 
REMARK  5 active torsions:
REMARK  status: ('A' for Active; 'I' for Inactive)
REMARK    1  A    between atoms: C_2  and  C_4
REMARK    2  A    between atoms: C_7  and  O_8
REMARK    3  A    between atoms: O_8  and  C_9
REMARK    4  A    between atoms: C_9  and  C_10
REMARK    5  A    between atoms: C_13  and  C_14
REMARK                            x       y       z     vdW  Elec       q    Type
REMARK                         _______ _______ _______ _____ _____    ______ ____
ROOT
ATOM      1  C   UNL     1      43.592   4.632  11.300  0.00  0.00    +0.000 C 
ENDROOT
BRANCH   1   2
ATOM      2  C   UNL     1      44.886   5.148  11.871  0.00  0.00    +0.000 A 
ATOM      3  C   UNL     1      45.422   6.358  11.417  0.00  0.00    +0.000 A 
ATOM      4  C   UNL     1      46.622   6.838  11.940  0.00  0.00    +0.000 A 
ATOM      5  C   UNL     1      47.319   6.117  12.921  0.00  0.00    +0.000 A 
ATOM      6  C   UNL     1      46.787   4.899  13.363  0.00  0.00    +0.000 A 
ATOM      7  C   UNL     1      45.584   4.416  12.839  0.00  0.00    +0.000 A 
BRANCH   5   8
ATOM      8  C   UNL     1      48.646   6.614  13.465  0.00  0.00    +0.000 C 
ATOM      9  C   UNL     1      48.635   6.755  14.994  0.00  0.00    +0.000 C 
ATOM     10  C   UNL     1      49.927   7.391  15.487  0.00  0.00    +0.000 C 
ATOM     11  O   UNL     1      50.154   8.642  14.839  0.00  0.00    +0.000 OA
ATOM     12  C   UNL     1      50.316   8.495  13.429  0.00  0.00    +0.000 C 
ATOM     13  C   UNL     1      49.051   7.936  12.798  0.00  0.00    +0.000 C 
ENDBRANCH   5   8
ENDBRANCH   1   2
BRANCH   1  14
ATOM     14  O   UNL     1      43.650   4.715   9.877  0.00  0.00    +0.000 OA
BRANCH  14  18
ATOM     15  C   UNL     1      46.296   2.215   7.840  0.00  0.00    +0.000 A 
ATOM     16  C   UNL     1      45.410   1.642   8.757  0.00  0.00    +0.000 A 
ATOM     17  C   UNL     1      44.505   2.447   9.459  0.00  0.00    +0.000 A 
ATOM     18  C   UNL     1      44.482   3.828   9.251  0.00  0.00    +0.000 A 
ATOM     19  C   UNL     1      45.375   4.397   8.340  0.00  0.00    +0.000 A 
ATOM     20  C   UNL     1      46.284   3.599   7.640  0.00  0.00    +0.000 A 
BRANCH  15  22
ATOM     21  N   UNL     1      48.378   2.031   6.592  0.00  0.00    +0.000 N 
ATOM     22  C   UNL     1      47.278   1.390   7.090  0.00  0.00    +0.000 C 
ATOM     23  O   UNL     1      47.130   0.184   6.947  0.00  0.00    +0.000 OA
ATOM     24  H   UNL     1      49.085   1.440   6.173  0.00  0.00    +0.000 HD
ATOM     25  H   UNL     1      48.657   2.949   6.902  0.00  0.00    +0.000 HD
ENDBRANCH  15  22
ENDBRANCH  14  18
ENDBRANCH   1  14
TORSDOF 5
ENDMDL
MODEL 3
REMARK VINA RESULT:    -8.039      1.127      1.565
REMARK INTER + INTRA:         -11.369
REMARK INTER:                 -10.568
REMARK INTRA:                  -0.800
REMARK UNBOUND:                -0.980
REMARK  Name = 
REMARK  5 active torsions:
REMARK  status: ('A' for Active; 'I' for Inactive)
REMARK    1  A    between atoms: C_2  and  C_4
REMARK    2  A    between atoms: C_7  and  O_8
REMARK    3  A    between atoms: O_8  and  C_9
REMARK    4  A    between atoms: C_9  and  C_10
REMARK    5  A    between atoms: C_13  and  C_14
REMARK                            x       y       z     vdW  Elec       q    Type
REMARK                         _______ _______ _______ _____ _____    ______ ____
ROOT
ATOM      1  C   UNL     1      43.489   5.281  10.755  0.00  0.00    +0.000 C 
ENDROOT
BRANCH   1   2
ATOM      2  C   UNL     1      44.660   5.416  11.692  0.00  0.00    +0.000 A 
ATOM      3  C   UNL     1      44.765   4.583  12.811  0.00  0.00    +0.000 A 
ATOM      4  C   UNL     1      45.846   4.706  13.683  0.00  0.00    +0.000 A 
ATOM      5  C   UNL     1      46.842   5.670  13.463  0.00  0.00    +0.000 A 
ATOM      6  C   UNL     1      46.727   6.511  12.350  0.00  0.00    +0.000 A 
ATOM      7  C   UNL     1      45.643   6.390  11.475  0.00  0.00    +0.000 A 
BRANCH   5   8
ATOM      8  C   UNL     1      47.999   5.836  14.431  0.00  0.00    +0.000 C 
ATOM      9  C   UNL     1      47.736   5.150  15.780  0.00  0.00    +0.000 C 
ATOM     10  C   UNL     1      48.850   5.461  16.769  0.00  0.00    +0.000 C 
ATOM     11  O   UNL     1      49.020   6.870  16.913  0.00  0.00    +0.000 OA
ATOM     12  C   UNL     1      49.414   7.491  15.691  0.00  0.00    +0.000 C 
ATOM     13  C   UNL     1      48.339   7.320  14.631  0.00  0.00    +0.000 C 
ENDBRANCH   5   8
ENDBRANCH   1   2
BRANCH   1  14
ATOM     14  O   UNL     1      43.411   3.929  10.308  0.00  0.00    +0.000 OA
BRANCH  14  18
ATOM     15  C   UNL     1      46.346   2.430   7.751  0.00  0.00    +0.000 A 
ATOM     16  C   UNL     1      46.050   3.796   7.699  0.00  0.00    +0.000 A 
ATOM     17  C   UNL     1      45.074   4.337   8.543  0.00  0.00    +0.000 A 
ATOM     18  C   UNL     1      44.385   3.518   9.440  0.00  0.00    +0.000 A 
ATOM     19  C   UNL     1      44.678   2.153   9.483  0.00  0.00    +0.000 A 
ATOM     20  C   UNL     1      45.649   1.606   8.640  0.00  0.00    +0.000 A 
BRANCH  15  22
ATOM     21  N   UNL     1      48.408   2.620   6.471  0.00  0.00    +0.000 N 
ATOM     22  C   UNL     1      47.367   1.822   6.859  0.00  0.00    +0.000 C 
ATOM     23  O   UNL     1      47.302   0.652   6.509  0.00  0.00    +0.000 OA
ATOM     24  H   UNL     1      49.145   2.165   5.948  0.00  0.00    +0.000 HD
ATOM     25  H   UNL     1      48.628   3.488   6.934  0.00  0.00    +0.000 HD
ENDBRANCH  15  22
ENDBRANCH  14  18
ENDBRANCH   1  14
TORSDOF 5
ENDMDL
MODEL 4
REMARK VINA RESULT:    -7.845      2.160      6.755
REMARK INTER + INTRA:         -11.118
REMARK INTER:                 -10.217
REMARK INTRA:                  -0.900
REMARK UNBOUND:                -0.980
REMARK  Name = 
REMARK  5 active torsions:
REMARK  status: ('A' for Active; 'I' for Inactive)
REMARK    1  A    between atoms: C_2  and  C_4
REMARK    2  A    between atoms: C_7  and  O_8
REMARK    3  A    between atoms: O_8  and  C_9
REMARK    4  A    between atoms: C_9  and  C_10
REMARK    5  A    between atoms: C_13  and  C_14
REMARK                            x       y       z     vdW  Elec       q    Type
REMARK                         _______ _______ _______ _____ _____    ______ ____
ROOT
ATOM      1  C   UNL     1      42.825   4.964  12.148  0.00  0.00    +0.000 C 
ENDROOT
BRANCH   1   2
ATOM      2  C   UNL     1      43.548   4.318  10.997  0.00  0.00    +0.000 A 
ATOM      3  C   UNL     1      43.736   2.932  10.974  0.00  0.00    +0.000 A 
ATOM      4  C   UNL     1      44.407   2.328   9.910  0.00  0.00    +0.000 A 
ATOM      5  C   UNL     1      44.914   3.096   8.851  0.00  0.00    +0.000 A 
ATOM      6  C   UNL     1      44.735   4.485   8.884  0.00  0.00    +0.000 A 
ATOM      7  C   UNL     1      44.063   5.091   9.950  0.00  0.00    +0.000 A 
BRANCH   5   8
ATOM      8  C   UNL     1      45.681   2.450   7.711  0.00  0.00    +0.000 C 
ATOM      9  C   UNL     1      46.314   1.112   8.119  0.00  0.00    +0.000 C 
ATOM     10  C   UNL     1      47.192   0.569   7.000  0.00  0.00    +0.000 C 
ATOM     11  O   UNL     1      48.176   1.528   6.618  0.00  0.00    +0.000 OA
ATOM     12  C   UNL     1      47.590   2.720   6.096  0.00  0.00    +0.000 C 
ATOM     13  C   UNL     1      46.743   3.409   7.152  0.00  0.00    +0.000 C 
ENDBRANCH   5   8
ENDBRANCH   1   2
BRANCH   1  14
ATOM     14  O   UNL     1      43.647   4.883  13.312  0.00  0.00    +0.000 OA
BRANCH  14  18
ATOM     15  C   UNL     1      47.495   6.485  13.143  0.00  0.00    +0.000 A 
ATOM     16  C   UNL     1      46.415   7.306  12.804  0.00  0.00    +0.000 A 
ATOM     17  C   UNL     1      45.109   6.806  12.851  0.00  0.00    +0.000 A 
ATOM     18  C   UNL     1      44.873   5.484  13.233  0.00  0.00    +0.000 A 
ATOM     19  C   UNL     1      45.955   4.664  13.562  0.00  0.00    +0.000 A 
ATOM     20  C   UNL     1      47.262   5.156  13.513  0.00  0.00    +0.000 A 
BRANCH  15  22
ATOM     21  N   UNL     1      49.316   7.527  11.910  0.00  0.00    +0.000 N 
ATOM     22  C   UNL     1      48.894   6.981  13.090  0.00  0.00    +0.000 C 
ATOM     23  O   UNL     1      49.632   6.934  14.065  0.00  0.00    +0.000 OA
ATOM     24  H   UNL     1      50.235   7.952  11.920  0.00  0.00    +0.000 HD
ATOM     25  H   UNL     1      48.676   7.812  11.185  0.00  0.00    +0.000 HD
ENDBRANCH  15  22
ENDBRANCH  14  18
ENDBRANCH   1  14
TORSDOF 5
ENDMDL
MODEL 5
REMARK VINA RESULT:    -6.450      2.696      7.605
REMARK INTER + INTRA:          -9.315
REMARK INTER:                  -8.445
REMARK INTRA:                  -0.870
REMARK UNBOUND:                -0.980
REMARK  Name = 
REMARK  5 active torsions:
REMARK  status: ('A' for Active; 'I' for Inactive)
REMARK    1  A    between atoms: C_2  and  C_4
REMARK    2  A    between atoms: C_7  and  O_8
REMARK    3  A    between atoms: O_8  and  C_9
REMARK    4  A    between atoms: C_9  and  C_10
REMARK    5  A    between atoms: C_13  and  C_14
REMARK                            x       y       z     vdW  Elec       q    Type
REMARK                         _______ _______ _______ _____ _____    ______ ____
ROOT
ATOM      1  C   UNL     1      44.515   6.491  12.020  0.00  0.00    +0.000 C 
ENDROOT
BRANCH   1   2
ATOM      2  C   UNL     1      44.864   5.547  10.900  0.00  0.00    +0.000 A 
ATOM      3  C   UNL     1      44.306   4.264  10.863  0.00  0.00    +0.000 A 
ATOM      4  C   UNL     1      44.628   3.385   9.829  0.00  0.00    +0.000 A 
ATOM      5  C   UNL     1      45.521   3.763   8.815  0.00  0.00    +0.000 A 
ATOM      6  C   UNL     1      46.087   5.043   8.863  0.00  0.00    +0.000 A 
ATOM      7  C   UNL     1      45.766   5.925   9.899  0.00  0.00    +0.000 A 
BRANCH   5   8
ATOM      8  C   UNL     1      45.906   2.796   7.710  0.00  0.00    +0.000 C 
ATOM      9  C   UNL     1      46.285   1.410   8.252  0.00  0.00    +0.000 C 
ATOM     10  C   UNL     1      46.804   0.517   7.134  0.00  0.00    +0.000 C 
ATOM     11  O   UNL     1      47.894   1.139   6.455  0.00  0.00    +0.000 OA
ATOM     12  C   UNL     1      47.506   2.356   5.819  0.00  0.00    +0.000 C 
ATOM     13  C   UNL     1      47.039   3.373   6.847  0.00  0.00    +0.000 C 
ENDBRANCH   5   8
ENDBRANCH   1   2
BRANCH   1  14
ATOM     14  O   UNL     1      45.342   6.197  13.145  0.00  0.00    +0.000 OA
BRANCH  14  18
ATOM     15  C   UNL     1      48.796   8.527  13.360  0.00  0.00    +0.000 A 
ATOM     16  C   UNL     1      48.905   7.151  13.585  0.00  0.00    +0.000 A 
ATOM     17  C   UNL     1      47.769   6.335  13.518  0.00  0.00    +0.000 A 
ATOM     18  C   UNL     1      46.519   6.888  13.231  0.00  0.00    +0.000 A 
ATOM     19  C   UNL     1      46.414   8.264  13.016  0.00  0.00    +0.000 A 
ATOM     20  C   UNL     1      47.543   9.084  13.085  0.00  0.00    +0.000 A 
BRANCH  15  22
ATOM     21  N   UNL     1      50.621   9.706  12.263  0.00  0.00    +0.000 N 
ATOM     22  C   UNL     1      49.979   9.421  13.436  0.00  0.00    +0.000 C 
ATOM     23  O   UNL     1      50.350   9.910  14.495  0.00  0.00    +0.000 OA
ATOM     24  H   UNL     1      51.361  10.395  12.317  0.00  0.00    +0.000 HD
ATOM     25  H   UNL     1      50.203   9.536  11.361  0.00  0.00    +0.000 HD
ENDBRANCH  15  22
ENDBRANCH  14  18
ENDBRANCH   1  14
TORSDOF 5
ENDMDL
MODEL 6
REMARK VINA RESULT:    -6.390      2.114      2.856
REMARK INTER + INTRA:          -9.237
REMARK INTER:                  -8.401
REMARK INTRA:                  -0.837
REMARK UNBOUND:                -0.980
REMARK  Name = 
REMARK  5 active torsions:
REMARK  status: ('A' for Active; 'I' for Inactive)
REMARK    1  A    between atoms: C_2  and  C_4
REMARK    2  A    between atoms: C_7  and  O_8
REMARK    3  A    between atoms: O_8  and  C_9
REMARK    4  A    between atoms: C_9  and  C_10
REMARK    5  A    between atoms: C_13  and  C_14
REMARK                            x       y       z     vdW  Elec       q    Type
REMARK                         _______ _______ _______ _____ _____    ______ ____
ROOT
ATOM      1  C   UNL     1      44.592   4.890  12.656  0.00  0.00    +0.000 C 
ENDROOT
BRANCH   1   2
ATOM      2  C   UNL     1      45.565   6.029  12.507  0.00  0.00    +0.000 A 
ATOM      3  C   UNL     1      45.096   7.331  12.299  0.00  0.00    +0.000 A 
ATOM      4  C   UNL     1      45.993   8.390  12.158  0.00  0.00    +0.000 A 
ATOM      5  C   UNL     1      47.377   8.172  12.213  0.00  0.00    +0.000 A 
ATOM      6  C   UNL     1      47.843   6.865  12.408  0.00  0.00    +0.000 A 
ATOM      7  C   UNL     1      46.945   5.803  12.548  0.00  0.00    +0.000 A 
BRANCH   5   8
ATOM      8  C   UNL     1      48.359   9.313  12.019  0.00  0.00    +0.000 C 
ATOM      9  C   UNL     1      49.765   8.818  11.648  0.00  0.00    +0.000 C 
ATOM     10  C   UNL     1      50.751   9.977  11.607  0.00  0.00    +0.000 C 
ATOM     11  O   UNL     1      50.747  10.689  12.843  0.00  0.00    +0.000 OA
ATOM     12  C   UNL     1      49.477  11.281  13.118  0.00  0.00    +0.000 C 
ATOM     13  C   UNL     1      48.408  10.211  13.264  0.00  0.00    +0.000 C 
ENDBRANCH   5   8
ENDBRANCH   1   2
BRANCH   1  14
ATOM     14  O   UNL     1      43.848   4.759  11.445  0.00  0.00    +0.000 OA
BRANCH  14  18
ATOM     15  C   UNL     1      45.834   2.956   8.251  0.00  0.00    +0.000 A 
ATOM     16  C   UNL     1      45.817   4.352   8.323  0.00  0.00    +0.000 A 
ATOM     17  C   UNL     1      45.164   4.994   9.381  0.00  0.00    +0.000 A 
ATOM     18  C   UNL     1      44.521   4.247  10.370  0.00  0.00    +0.000 A 
ATOM     19  C   UNL     1      44.533   2.852  10.289  0.00  0.00    +0.000 A 
ATOM     20  C   UNL     1      45.180   2.206   9.233  0.00  0.00    +0.000 A 
BRANCH  15  22
ATOM     21  N   UNL     1      47.027   1.010   7.405  0.00  0.00    +0.000 N 
ATOM     22  C   UNL     1      46.507   2.245   7.133  0.00  0.00    +0.000 C 
ATOM     23  O   UNL     1      46.570   2.725   6.010  0.00  0.00    +0.000 OA
ATOM     24  H   UNL     1      47.391   0.496   6.612  0.00  0.00    +0.000 HD
ATOM     25  H   UNL     1      46.775   0.484   8.228  0.00  0.00    +0.000 HD
ENDBRANCH  15  22
ENDBRANCH  14  18
ENDBRANCH   1  14
TORSDOF 5
ENDMDL
MODEL 7
REMARK VINA RESULT:    -6.219      4.323      8.499
REMARK INTER + INTRA:          -9.017
REMARK INTER:                  -8.370
REMARK INTRA:                  -0.647
REMARK UNBOUND:                -0.980
REMARK  Name = 
REMARK  5 active torsions:
REMARK  status: ('A' for Active; 'I' for Inactive)
REMARK    1  A    between atoms: C_2  and  C_4
REMARK    2  A    between atoms: C_7  and  O_8
REMARK    3  A    between atoms: O_8  and  C_9
REMARK    4  A    between atoms: C_9  and  C_10
REMARK    5  A    between atoms: C_13  and  C_14
REMARK                            x       y       z     vdW  Elec       q    Type
REMARK                         _______ _______ _______ _____ _____    ______ ____
ROOT
ATOM      1  C   UNL     1      49.089   6.208  16.355  0.00  0.00    +0.000 C 
ENDROOT
BRANCH   1   2
ATOM      2  C   UNL     1      48.157   5.863  15.224  0.00  0.00    +0.000 A 
ATOM      3  C   UNL     1      48.111   6.667  14.081  0.00  0.00    +0.000 A 
ATOM      4  C   UNL     1      47.247   6.354  13.031  0.00  0.00    +0.000 A 
ATOM      5  C   UNL     1      46.403   5.235  13.104  0.00  0.00    +0.000 A 
ATOM      6  C   UNL     1      46.443   4.439  14.256  0.00  0.00    +0.000 A 
ATOM      7  C   UNL     1      47.307   4.753  15.309  0.00  0.00    +0.000 A 
BRANCH   5   8
ATOM      8  C   UNL     1      45.432   4.911  11.984  0.00  0.00    +0.000 C 
ATOM      9  C   UNL     1      44.160   5.770  12.047  0.00  0.00    +0.000 C 
ATOM     10  C   UNL     1      43.152   5.318  11.001  0.00  0.00    +0.000 C 
ATOM     11  O   UNL     1      42.864   3.927  11.143  0.00  0.00    +0.000 OA
ATOM     12  C   UNL     1      44.018   3.115  10.934  0.00  0.00    +0.000 C 
ATOM     13  C   UNL     1      45.081   3.416  11.976  0.00  0.00    +0.000 C 
ENDBRANCH   5   8
ENDBRANCH   1   2
BRANCH   1  14
ATOM     14  O   UNL     1      48.958   5.222  17.377  0.00  0.00    +0.000 OA
BRANCH  14  18
ATOM     15  C   UNL     1      51.896   2.275  17.659  0.00  0.00    +0.000 A 
ATOM     16  C   UNL     1      52.277   3.612  17.808  0.00  0.00    +0.000 A 
ATOM     17  C   UNL     1      51.319   4.630  17.723  0.00  0.00    +0.000 A 
ATOM     18  C   UNL     1      49.979   4.318  17.485  0.00  0.00    +0.000 A 
ATOM     19  C   UNL     1      49.605   2.981  17.328  0.00  0.00    +0.000 A 
ATOM     20  C   UNL     1      50.557   1.962  17.407  0.00  0.00    +0.000 A 
BRANCH  15  22
ATOM     21  N   UNL     1      52.466  -0.015  18.258  0.00  0.00    +0.000 N 
ATOM     22  C   UNL     1      52.891   1.172  17.730  0.00  0.00    +0.000 C 
ATOM     23  O   UNL     1      54.031   1.306  17.308  0.00  0.00    +0.000 OA
ATOM     24  H   UNL     1      53.122  -0.784  18.207  0.00  0.00    +0.000 HD
ATOM     25  H   UNL     1      51.490  -0.239  18.374  0.00  0.00    +0.000 HD
ENDBRANCH  15  22
ENDBRANCH  14  18
ENDBRANCH   1  14
TORSDOF 5
ENDMDL
MODEL 8
REMARK VINA RESULT:    -6.107      4.385      6.440
REMARK INTER + INTRA:          -8.872
REMARK INTER:                  -8.185
REMARK INTRA:                  -0.686
REMARK UNBOUND:                -0.980
REMARK  Name = 
REMARK  5 active torsions:
REMARK  status: ('A' for Active; 'I' for Inactive)
REMARK    1  A    between atoms: C_2  and  C_4
REMARK    2  A    between atoms: C_7  and  O_8
REMARK    3  A    between atoms: O_8  and  C_9
REMARK    4  A    between atoms: C_9  and  C_10
REMARK    5  A    between atoms: C_13  and  C_14
REMARK                            x       y       z     vdW  Elec       q    Type
REMARK                         _______ _______ _______ _____ _____    ______ ____
ROOT
ATOM      1  C   UNL     1      47.374   4.431  16.228  0.00  0.00    +0.000 C 
ENDROOT
BRANCH   1   2
ATOM      2  C   UNL     1      48.680   3.873  16.729  0.00  0.00    +0.000 A 
ATOM      3  C   UNL     1      49.653   4.729  17.256  0.00  0.00    +0.000 A 
ATOM      4  C   UNL     1      50.866   4.217  17.718  0.00  0.00    +0.000 A 
ATOM      5  C   UNL     1      51.138   2.842  17.655  0.00  0.00    +0.000 A 
ATOM      6  C   UNL     1      50.166   1.991  17.115  0.00  0.00    +0.000 A 
ATOM      7  C   UNL     1      48.950   2.502  16.650  0.00  0.00    +0.000 A 
BRANCH   5   8
ATOM      8  C   UNL     1      52.471   2.285  18.119  0.00  0.00    +0.000 C 
ATOM      9  C   UNL     1      53.651   3.183  17.718  0.00  0.00    +0.000 C 
ATOM     10  C   UNL     1      54.976   2.521  18.069  0.00  0.00    +0.000 C 
ATOM     11  O   UNL     1      55.067   1.226  17.478  0.00  0.00    +0.000 OA
ATOM     12  C   UNL     1      54.060   0.341  17.965  0.00  0.00    +0.000 C 
ATOM     13  C   UNL     1      52.676   0.853  17.603  0.00  0.00    +0.000 C 
ENDBRANCH   5   8
ENDBRANCH   1   2
BRANCH   1  14
ATOM     14  O   UNL     1      47.599   5.082  14.979  0.00  0.00    +0.000 OA
BRANCH  14  18
ATOM     15  C   UNL     1      45.033   4.260  11.795  0.00  0.00    +0.000 A 
ATOM     16  C   UNL     1      45.614   3.186  12.478  0.00  0.00    +0.000 A 
ATOM     17  C   UNL     1      46.478   3.421  13.554  0.00  0.00    +0.000 A 
ATOM     18  C   UNL     1      46.770   4.728  13.951  0.00  0.00    +0.000 A 
ATOM     19  C   UNL     1      46.195   5.797  13.260  0.00  0.00    +0.000 A 
ATOM     20  C   UNL     1      45.335   5.569  12.182  0.00  0.00    +0.000 A 
BRANCH  15  22
ATOM     21  N   UNL     1      43.704   5.155   9.963  0.00  0.00    +0.000 N 
ATOM     22  C   UNL     1      44.123   4.044  10.641  0.00  0.00    +0.000 C 
ATOM     23  O   UNL     1      43.784   2.922  10.288  0.00  0.00    +0.000 OA
ATOM     24  H   UNL     1      43.168   4.986   9.121  0.00  0.00    +0.000 HD
ATOM     25  H   UNL     1      44.154   6.052  10.060  0.00  0.00    +0.000 HD
ENDBRANCH  15  22
ENDBRANCH  14  18
ENDBRANCH   1  14
TORSDOF 5
ENDMDL
MODEL 9
REMARK VINA RESULT:    -6.105      2.985      7.839
REMARK INTER + INTRA:          -8.869
REMARK INTER:                  -8.148
REMARK INTRA:                  -0.721
REMARK UNBOUND:                -0.980
REMARK  Name = 
REMARK  5 active torsions:
REMARK  status: ('A' for Active; 'I' for Inactive)
REMARK    1  A    between atoms: C_2  and  C_4
REMARK    2  A    between atoms: C_7  and  O_8
REMARK    3  A    between atoms: O_8  and  C_9
REMARK    4  A    between atoms: C_9  and  C_10
REMARK    5  A    between atoms: C_13  and  C_14
REMARK                            x       y       z     vdW  Elec       q    Type
REMARK                         _______ _______ _______ _____ _____    ______ ____
ROOT
ATOM      1  C   UNL     1      45.002   5.591  12.817  0.00  0.00    +0.000 C 
ENDROOT
BRANCH   1   2
ATOM      2  C   UNL     1      45.199   4.867  11.511  0.00  0.00    +0.000 A 
ATOM      3  C   UNL     1      44.958   3.492  11.427  0.00  0.00    +0.000 A 
ATOM      4  C   UNL     1      45.142   2.816  10.221  0.00  0.00    +0.000 A 
ATOM      5  C   UNL     1      45.579   3.496   9.075  0.00  0.00    +0.000 A 
ATOM      6  C   UNL     1      45.832   4.871   9.166  0.00  0.00    +0.000 A 
ATOM      7  C   UNL     1      45.649   5.549  10.375  0.00  0.00    +0.000 A 
BRANCH   5   8
ATOM      8  C   UNL     1      45.820   2.759   7.770  0.00  0.00    +0.000 C 
ATOM      9  C   UNL     1      46.516   1.406   7.983  0.00  0.00    +0.000 C 
ATOM     10  C   UNL     1      46.871   0.767   6.649  0.00  0.00    +0.000 C 
ATOM     11  O   UNL     1      47.661   1.653   5.857  0.00  0.00    +0.000 OA
ATOM     12  C   UNL     1      46.959   2.851   5.528  0.00  0.00    +0.000 C 
ATOM     13  C   UNL     1      46.613   3.631   6.785  0.00  0.00    +0.000 C 
ENDBRANCH   5   8
ENDBRANCH   1   2
BRANCH   1  14
ATOM     14  O   UNL     1      45.404   4.734  13.884  0.00  0.00    +0.000 OA
BRANCH  14  18
ATOM     15  C   UNL     1      48.954   5.966  15.695  0.00  0.00    +0.000 A 
ATOM     16  C   UNL     1      48.249   4.902  16.266  0.00  0.00    +0.000 A 
ATOM     17  C   UNL     1      47.055   4.458  15.686  0.00  0.00    +0.000 A 
ATOM     18  C   UNL     1      46.557   5.075  14.536  0.00  0.00    +0.000 A 
ATOM     19  C   UNL     1      47.261   6.143  13.974  0.00  0.00    +0.000 A 
ATOM     20  C   UNL     1      48.451   6.594  14.551  0.00  0.00    +0.000 A 
BRANCH  15  22
ATOM     21  N   UNL     1      50.297   7.813  16.539  0.00  0.00    +0.000 N 
ATOM     22  C   UNL     1      50.217   6.470  16.294  0.00  0.00    +0.000 C 
ATOM     23  O   UNL     1      51.137   5.718  16.585  0.00  0.00    +0.000 OA
ATOM     24  H   UNL     1      51.120   8.125  17.038  0.00  0.00    +0.000 HD
ATOM     25  H   UNL     1      49.485   8.411  16.552  0.00  0.00    +0.000 HD
ENDBRANCH  15  22
ENDBRANCH  14  18
ENDBRANCH   1  14
TORSDOF 5
ENDMDL
