MODEL 1
REMARK VINA RESULT:    -9.082      0.000      0.000
REMARK INTER + INTRA:         -13.512
REMARK INTER:                 -12.268
REMARK INTRA:                  -1.244
REMARK UNBOUND:                -1.244
REMARK  Name = 
REMARK  6 active torsions:
REMARK  status: ('A' for Active; 'I' for Inactive)
REMARK    1  A    between atoms: C_2  and  C_3
REMARK    2  A    between atoms: C_6  and  C_7
REMARK    3  A    between atoms: C_11  and  C_12
REMARK    4  A    between atoms: C_12  and  N_13
REMARK    5  A    between atoms: N_13  and  C_14
REMARK    6  A    between atoms: C_17  and  C_18
REMARK                            x       y       z     vdW  Elec       q    Type
REMARK                         _______ _______ _______ _____ _____    ______ ____
ROOT
ATOM      1  C   UNL     1      43.921   5.005  11.440  0.00  0.00    +0.000 C 
ATOM      2  C   UNL     1      43.010   6.203  11.276  0.00  0.00    +0.000 C 
ATOM      3  C   UNL     1      42.610   5.123  12.223  0.00  0.00    +0.000 C 
ENDROOT
BRANCH   1   8
ATOM      4  C   UNL     1      47.344   6.407  12.589  0.00  0.00    +0.000 A 
ATOM      5  C   UNL     1      47.648   5.507  13.621  0.00  0.00    +0.000 A 
ATOM      6  C   UNL     1      46.769   4.480  13.970  0.00  0.00    +0.000 A 
ATOM      7  C   UNL     1      45.571   4.318  13.276  0.00  0.00    +0.000 A 
ATOM      8  C   UNL     1      45.217   5.178  12.227  0.00  0.00    +0.000 A 
ATOM      9  C   UNL     1      46.116   6.223  11.923  0.00  0.00    +0.000 A 
BRANCH   4  13
ATOM     10  C   UNL     1      50.029   9.605  11.447  0.00  0.00    +0.000 A 
ATOM     11  C   UNL     1      50.523   8.327  11.706  0.00  0.00    +0.000 A 
ATOM     12  C   UNL     1      49.653   7.297  12.087  0.00  0.00    +0.000 A 
ATOM     13  C   UNL     1      48.266   7.509  12.209  0.00  0.00    +0.000 A 
ATOM     14  C   UNL     1      47.792   8.806  11.947  0.00  0.00    +0.000 A 
ATOM     15  C   UNL     1      48.660   9.843  11.574  0.00  0.00    +0.000 A 
BRANCH  10  17
ATOM     16  N   UNL     1      51.634  11.515  10.745  0.00  0.00    +0.000 NA
ATOM     17  C   UNL     1      50.916  10.663  11.058  0.00  0.00    +0.000 C 
ENDBRANCH  10  17
ENDBRANCH   4  13
ENDBRANCH   1   8
BRANCH   1  18
ATOM     18  N   UNL     1      43.929   3.868  10.508  0.00  0.00    +0.000 N 
ATOM     19  H   UNL     1      43.403   3.059  10.821  0.00  0.00    +0.000 HD
BRANCH  18  20
ATOM     20  C   UNL     1      44.909   3.553   9.554  0.00  0.00    +0.000 A 
ATOM     21  C   UNL     1      45.574   4.482   8.755  0.00  0.00    +0.000 A 
ATOM     22  C   UNL     1      46.449   4.061   7.735  0.00  0.00    +0.000 A 
ATOM     23  C   UNL     1      46.651   2.696   7.483  0.00  0.00    +0.000 A 
ATOM     24  C   UNL     1      45.988   1.773   8.283  0.00  0.00    +0.000 A 
ATOM     25  F   UNL     1      46.130   0.450   8.097  0.00  0.00    +0.000 F 
ATOM     26  C   UNL     1      45.131   2.192   9.294  0.00  0.00    +0.000 A 
BRANCH  23  27
ATOM     27  C   UNL     1      47.524   2.286   6.351  0.00  0.00    +0.000 C 
ATOM     28  N   UNL     1      47.353   2.906   5.145  0.00  0.00    +0.000 N 
ATOM     29  O   UNL     1      48.388   1.428   6.491  0.00  0.00    +0.000 OA
ATOM     30  H   UNL     1      46.670   3.638   4.993  0.00  0.00    +0.000 HD
ATOM     31  H   UNL     1      47.972   2.657   4.386  0.00  0.00    +0.000 HD
ENDBRANCH  23  27
ENDBRANCH  18  20
ENDBRANCH   1  18
TORSDOF 6
ENDMDL
MODEL 2
REMARK VINA RESULT:    -8.525      2.681      4.305
REMARK INTER + INTRA:         -12.759
REMARK INTER:                 -12.385
REMARK INTRA:                  -0.374
REMARK UNBOUND:                -1.244
REMARK  Name = 
REMARK  6 active torsions:
REMARK  status: ('A' for Active; 'I' for Inactive)
REMARK    1  A    between atoms: C_2  and  C_3
REMARK    2  A    between atoms: C_6  and  C_7
REMARK    3  A    between atoms: C_11  and  C_12
REMARK    4  A    between atoms: C_12  and  N_13
REMARK    5  A    between atoms: N_13  and  C_14
REMARK    6  A    between atoms: C_17  and  C_18
REMARK                            x       y       z     vdW  Elec       q    Type
REMARK                         _______ _______ _______ _____ _____    ______ ____
ROOT
ATOM      1  C   UNL     1      43.927   5.038  11.421  0.00  0.00    +0.000 C 
ATOM      2  C   UNL     1      42.761   6.003  11.379  0.00  0.00    +0.000 C 
ATOM      3  C   UNL     1      42.806   4.980  12.462  0.00  0.00    +0.000 C 
ENDROOT
BRANCH   1   8
ATOM      4  C   UNL     1      47.012   5.699  13.669  0.00  0.00    +0.000 A 
ATOM      5  C   UNL     1      47.765   6.525  12.820  0.00  0.00    +0.000 A 
ATOM      6  C   UNL     1      47.316   6.851  11.539  0.00  0.00    +0.000 A 
ATOM      7  C   UNL     1      46.088   6.372  11.086  0.00  0.00    +0.000 A 
ATOM      8  C   UNL     1      45.284   5.554  11.891  0.00  0.00    +0.000 A 
ATOM      9  C   UNL     1      45.784   5.220  13.168  0.00  0.00    +0.000 A 
BRANCH   4  13
ATOM     10  C   UNL     1      48.343   4.672  17.657  0.00  0.00    +0.000 A 
ATOM     11  C   UNL     1      48.835   5.811  17.020  0.00  0.00    +0.000 A 
ATOM     12  C   UNL     1      48.410   6.134  15.724  0.00  0.00    +0.000 A 
ATOM     13  C   UNL     1      47.477   5.339  15.033  0.00  0.00    +0.000 A 
ATOM     14  C   UNL     1      47.000   4.193  15.693  0.00  0.00    +0.000 A 
ATOM     15  C   UNL     1      47.427   3.860  16.986  0.00  0.00    +0.000 A 
BRANCH  10  17
ATOM     16  N   UNL     1      49.123   4.065  20.053  0.00  0.00    +0.000 NA
ATOM     17  C   UNL     1      48.776   4.336  18.982  0.00  0.00    +0.000 C 
ENDBRANCH  10  17
ENDBRANCH   4  13
ENDBRANCH   1   8
BRANCH   1  18
ATOM     18  N   UNL     1      43.998   3.826  10.591  0.00  0.00    +0.000 N 
ATOM     19  H   UNL     1      43.603   2.995  11.018  0.00  0.00    +0.000 HD
BRANCH  18  20
ATOM     20  C   UNL     1      44.927   3.537   9.580  0.00  0.00    +0.000 A 
ATOM     21  C   UNL     1      45.469   4.475   8.701  0.00  0.00    +0.000 A 
ATOM     22  C   UNL     1      46.297   4.071   7.636  0.00  0.00    +0.000 A 
ATOM     23  C   UNL     1      46.572   2.713   7.418  0.00  0.00    +0.000 A 
ATOM     24  C   UNL     1      46.032   1.782   8.298  0.00  0.00    +0.000 A 
ATOM     25  F   UNL     1      46.250   0.464   8.149  0.00  0.00    +0.000 F 
ATOM     26  C   UNL     1      45.221   2.185   9.353  0.00  0.00    +0.000 A 
BRANCH  23  27
ATOM     27  C   UNL     1      47.390   2.315   6.242  0.00  0.00    +0.000 C 
ATOM     28  N   UNL     1      47.190   2.977   5.063  0.00  0.00    +0.000 N 
ATOM     29  O   UNL     1      48.233   1.430   6.321  0.00  0.00    +0.000 OA
ATOM     30  H   UNL     1      46.523   3.732   4.960  0.00  0.00    +0.000 HD
ATOM     31  H   UNL     1      47.773   2.736   4.273  0.00  0.00    +0.000 HD
ENDBRANCH  23  27
ENDBRANCH  18  20
ENDBRANCH   1  18
TORSDOF 6
ENDMDL
MODEL 3
REMARK VINA RESULT:    -7.674      1.676      2.438
REMARK INTER + INTRA:         -11.611
REMARK INTER:                 -11.261
REMARK INTRA:                  -0.350
REMARK UNBOUND:                -1.244
REMARK  Name = 
REMARK  6 active torsions:
REMARK  status: ('A' for Active; 'I' for Inactive)
REMARK    1  A    between atoms: C_2  and  C_3
REMARK    2  A    between atoms: C_6  and  C_7
REMARK    3  A    between atoms: C_11  and  C_12
REMARK    4  A    between atoms: C_12  and  N_13
REMARK    5  A    between atoms: N_13  and  C_14
REMARK    6  A    between atoms: C_17  and  C_18
REMARK                            x       y       z     vdW  Elec       q    Type
REMARK                         _______ _______ _______ _____ _____    ______ ____
ROOT
ATOM      1  C   UNL     1      43.903   5.297  11.481  0.00  0.00    +0.000 C 
ATOM      2  C   UNL     1      43.003   4.858  12.616  0.00  0.00    +0.000 C 
ATOM      3  C   UNL     1      44.351   4.233  12.488  0.00  0.00    +0.000 C 
ENDROOT
BRANCH   1   8
ATOM      4  C   UNL     1      46.577   8.024  12.130  0.00  0.00    +0.000 A 
ATOM      5  C   UNL     1      45.844   9.174  11.799  0.00  0.00    +0.000 A 
ATOM      6  C   UNL     1      44.525   9.090  11.350  0.00  0.00    +0.000 A 
ATOM      7  C   UNL     1      43.901   7.848  11.243  0.00  0.00    +0.000 A 
ATOM      8  C   UNL     1      44.575   6.664  11.571  0.00  0.00    +0.000 A 
ATOM      9  C   UNL     1      45.917   6.786  11.991  0.00  0.00    +0.000 A 
BRANCH   4  13
ATOM     10  C   UNL     1      50.665   8.263  13.532  0.00  0.00    +0.000 A 
ATOM     11  C   UNL     1      50.239   9.047  12.459  0.00  0.00    +0.000 A 
ATOM     12  C   UNL     1      48.918   8.958  12.000  0.00  0.00    +0.000 A 
ATOM     13  C   UNL     1      47.983   8.096  12.604  0.00  0.00    +0.000 A 
ATOM     14  C   UNL     1      48.436   7.313  13.680  0.00  0.00    +0.000 A 
ATOM     15  C   UNL     1      49.760   7.391  14.138  0.00  0.00    +0.000 A 
BRANCH  10  17
ATOM     16  N   UNL     1      53.109   8.417  14.382  0.00  0.00    +0.000 NA
ATOM     17  C   UNL     1      52.016   8.349  14.003  0.00  0.00    +0.000 C 
ENDBRANCH  10  17
ENDBRANCH   4  13
ENDBRANCH   1   8
BRANCH   1  18
ATOM     18  N   UNL     1      43.784   4.773  10.113  0.00  0.00    +0.000 N 
ATOM     19  H   UNL     1      42.840   4.528   9.832  0.00  0.00    +0.000 HD
BRANCH  18  20
ATOM     20  C   UNL     1      44.770   4.114   9.361  0.00  0.00    +0.000 A 
ATOM     21  C   UNL     1      45.700   4.746   8.535  0.00  0.00    +0.000 A 
ATOM     22  C   UNL     1      46.569   3.994   7.721  0.00  0.00    +0.000 A 
ATOM     23  C   UNL     1      46.499   2.593   7.702  0.00  0.00    +0.000 A 
ATOM     24  C   UNL     1      45.573   1.968   8.528  0.00  0.00    +0.000 A 
ATOM     25  F   UNL     1      45.448   0.631   8.559  0.00  0.00    +0.000 F 
ATOM     26  C   UNL     1      44.722   2.713   9.337  0.00  0.00    +0.000 A 
BRANCH  23  27
ATOM     27  C   UNL     1      47.381   1.833   6.776  0.00  0.00    +0.000 C 
ATOM     28  N   UNL     1      48.462   2.476   6.240  0.00  0.00    +0.000 N 
ATOM     29  O   UNL     1      47.162   0.658   6.508  0.00  0.00    +0.000 OA
ATOM     30  H   UNL     1      48.694   3.438   6.455  0.00  0.00    +0.000 HD
ATOM     31  H   UNL     1      49.085   1.950   5.642  0.00  0.00    +0.000 HD
ENDBRANCH  23  27
ENDBRANCH  18  20
ENDBRANCH   1  18
TORSDOF 6
ENDMDL
MODEL 4
REMARK VINA RESULT:    -7.024      1.735      2.633
REMARK INTER + INTRA:         -10.732
REMARK INTER:                 -10.732
REMARK INTRA:                  -0.001
REMARK UNBOUND:                -1.244
REMARK  Name = 
REMARK  6 active torsions:
REMARK  status: ('A' for Active; 'I' for Inactive)
REMARK    1  A    between atoms: C_2  and  C_3
REMARK    2  A    between atoms: C_6  and  C_7
REMARK    3  A    between atoms: C_11  and  C_12
REMARK    4  A    between atoms: C_12  and  N_13
REMARK    5  A    between atoms: N_13  and  C_14
REMARK    6  A    between atoms: C_17  and  C_18
REMARK                            x       y       z     vdW  Elec       q    Type
REMARK                         _______ _______ _______ _____ _____    ______ ____
ROOT
ATOM      1  C   UNL     1      44.716   5.529  11.668  0.00  0.00    +0.000 C 
ATOM      2  C   UNL     1      44.014   4.868  12.835  0.00  0.00    +0.000 C 
ATOM      3  C   UNL     1      45.345   4.347  12.410  0.00  0.00    +0.000 C 
ENDROOT
BRANCH   1   8
ATOM      4  C   UNL     1      47.371   8.344  11.838  0.00  0.00    +0.000 A 
ATOM      5  C   UNL     1      46.580   9.404  12.306  0.00  0.00    +0.000 A 
ATOM      6  C   UNL     1      45.214   9.240  12.542  0.00  0.00    +0.000 A 
ATOM      7  C   UNL     1      44.612   8.000  12.335  0.00  0.00    +0.000 A 
ATOM      8  C   UNL     1      45.351   6.900  11.880  0.00  0.00    +0.000 A 
ATOM      9  C   UNL     1      46.723   7.111  11.623  0.00  0.00    +0.000 A 
BRANCH   4  13
ATOM     10  C   UNL     1      51.612   8.811  11.112  0.00  0.00    +0.000 A 
ATOM     11  C   UNL     1      50.790   9.931  11.238  0.00  0.00    +0.000 A 
ATOM     12  C   UNL     1      49.416   9.775  11.461  0.00  0.00    +0.000 A 
ATOM     13  C   UNL     1      48.825   8.503  11.576  0.00  0.00    +0.000 A 
ATOM     14  C   UNL     1      49.673   7.390  11.441  0.00  0.00    +0.000 A 
ATOM     15  C   UNL     1      51.048   7.538  11.209  0.00  0.00    +0.000 A 
BRANCH  10  17
ATOM     16  N   UNL     1      54.156   9.091  10.696  0.00  0.00    +0.000 NA
ATOM     17  C   UNL     1      53.019   8.965  10.882  0.00  0.00    +0.000 C 
ENDBRANCH  10  17
ENDBRANCH   4  13
ENDBRANCH   1   8
BRANCH   1  18
ATOM     18  N   UNL     1      44.404   5.220  10.264  0.00  0.00    +0.000 N 
ATOM     19  H   UNL     1      43.491   5.536   9.953  0.00  0.00    +0.000 HD
BRANCH  18  20
ATOM     20  C   UNL     1      44.920   4.174   9.484  0.00  0.00    +0.000 A 
ATOM     21  C   UNL     1      44.681   2.818   9.709  0.00  0.00    +0.000 A 
ATOM     22  C   UNL     1      45.345   1.834   8.951  0.00  0.00    +0.000 A 
ATOM     23  C   UNL     1      46.282   2.196   7.971  0.00  0.00    +0.000 A 
ATOM     24  C   UNL     1      46.515   3.548   7.749  0.00  0.00    +0.000 A 
ATOM     25  F   UNL     1      47.401   3.967   6.831  0.00  0.00    +0.000 F 
ATOM     26  C   UNL     1      45.852   4.517   8.494  0.00  0.00    +0.000 A 
BRANCH  23  27
ATOM     27  C   UNL     1      47.019   1.131   7.240  0.00  0.00    +0.000 C 
ATOM     28  N   UNL     1      46.802  -0.169   7.602  0.00  0.00    +0.000 N 
ATOM     29  O   UNL     1      47.788   1.400   6.326  0.00  0.00    +0.000 OA
ATOM     30  H   UNL     1      46.156  -0.439   8.334  0.00  0.00    +0.000 HD
ATOM     31  H   UNL     1      47.271  -0.897   7.080  0.00  0.00    +0.000 HD
ENDBRANCH  23  27
ENDBRANCH  18  20
ENDBRANCH   1  18
TORSDOF 6
ENDMDL
MODEL 5
REMARK VINA RESULT:    -6.835      4.700      6.632
REMARK INTER + INTRA:         -10.477
REMARK INTER:                  -9.307
REMARK INTRA:                  -1.170
REMARK UNBOUND:                -1.244
REMARK  Name = 
REMARK  6 active torsions:
REMARK  status: ('A' for Active; 'I' for Inactive)
REMARK    1  A    between atoms: C_2  and  C_3
REMARK    2  A    between atoms: C_6  and  C_7
REMARK    3  A    between atoms: C_11  and  C_12
REMARK    4  A    between atoms: C_12  and  N_13
REMARK    5  A    between atoms: N_13  and  C_14
REMARK    6  A    between atoms: C_17  and  C_18
REMARK                            x       y       z     vdW  Elec       q    Type
REMARK                         _______ _______ _______ _____ _____    ______ ____
ROOT
ATOM      1  C   UNL     1      47.716   7.989  13.332  0.00  0.00    +0.000 C 
ATOM      2  C   UNL     1      48.686   7.783  12.188  0.00  0.00    +0.000 C 
ATOM      3  C   UNL     1      48.147   9.152  12.434  0.00  0.00    +0.000 C 
ENDROOT
BRANCH   1   8
ATOM      4  C   UNL     1      49.538   6.816  16.543  0.00  0.00    +0.000 A 
ATOM      5  C   UNL     1      49.241   7.885  17.402  0.00  0.00    +0.000 A 
ATOM      6  C   UNL     1      48.493   8.980  16.966  0.00  0.00    +0.000 A 
ATOM      7  C   UNL     1      48.006   9.019  15.660  0.00  0.00    +0.000 A 
ATOM      8  C   UNL     1      48.258   7.976  14.759  0.00  0.00    +0.000 A 
ATOM      9  C   UNL     1      49.044   6.901  15.226  0.00  0.00    +0.000 A 
BRANCH   4  13
ATOM     10  C   UNL     1      51.866   3.395  17.811  0.00  0.00    +0.000 A 
ATOM     11  C   UNL     1      50.474   3.319  17.752  0.00  0.00    +0.000 A 
ATOM     12  C   UNL     1      49.723   4.433  17.352  0.00  0.00    +0.000 A 
ATOM     13  C   UNL     1      50.337   5.646  16.990  0.00  0.00    +0.000 A 
ATOM     14  C   UNL     1      51.740   5.700  17.062  0.00  0.00    +0.000 A 
ATOM     15  C   UNL     1      52.497   4.591  17.470  0.00  0.00    +0.000 A 
BRANCH  10  17
ATOM     16  N   UNL     1      53.260   1.340  18.554  0.00  0.00    +0.000 NA
ATOM     17  C   UNL     1      52.638   2.258  18.222  0.00  0.00    +0.000 C 
ENDBRANCH  10  17
ENDBRANCH   4  13
ENDBRANCH   1   8
BRANCH   1  18
ATOM     18  N   UNL     1      46.280   7.693  13.231  0.00  0.00    +0.000 N 
ATOM     19  H   UNL     1      45.685   8.261  13.826  0.00  0.00    +0.000 HD
BRANCH  18  20
ATOM     20  C   UNL     1      45.682   6.479  12.855  0.00  0.00    +0.000 A 
ATOM     21  C   UNL     1      46.148   5.214  13.214  0.00  0.00    +0.000 A 
ATOM     22  C   UNL     1      45.557   4.051  12.684  0.00  0.00    +0.000 A 
ATOM     23  C   UNL     1      44.504   4.140  11.762  0.00  0.00    +0.000 A 
ATOM     24  C   UNL     1      44.041   5.402  11.409  0.00  0.00    +0.000 A 
ATOM     25  F   UNL     1      43.039   5.563  10.528  0.00  0.00    +0.000 F 
ATOM     26  C   UNL     1      44.622   6.548  11.940  0.00  0.00    +0.000 A 
BRANCH  23  27
ATOM     27  C   UNL     1      43.951   2.894  11.166  0.00  0.00    +0.000 C 
ATOM     28  N   UNL     1      44.563   2.384  10.054  0.00  0.00    +0.000 N 
ATOM     29  O   UNL     1      42.986   2.325  11.659  0.00  0.00    +0.000 OA
ATOM     30  H   UNL     1      45.379   2.807   9.629  0.00  0.00    +0.000 HD
ATOM     31  H   UNL     1      44.214   1.516   9.671  0.00  0.00    +0.000 HD
ENDBRANCH  23  27
ENDBRANCH  18  20
ENDBRANCH   1  18
TORSDOF 6
ENDMDL
MODEL 6
REMARK VINA RESULT:    -6.753      4.998      8.463
REMARK INTER + INTRA:         -10.367
REMARK INTER:                  -8.903
REMARK INTRA:                  -1.464
REMARK UNBOUND:                -1.244
REMARK  Name = 
REMARK  6 active torsions:
REMARK  status: ('A' for Active; 'I' for Inactive)
REMARK    1  A    between atoms: C_2  and  C_3
REMARK    2  A    between atoms: C_6  and  C_7
REMARK    3  A    between atoms: C_11  and  C_12
REMARK    4  A    between atoms: C_12  and  N_13
REMARK    5  A    between atoms: N_13  and  C_14
REMARK    6  A    between atoms: C_17  and  C_18
REMARK                            x       y       z     vdW  Elec       q    Type
REMARK                         _______ _______ _______ _____ _____    ______ ____
ROOT
ATOM      1  C   UNL     1      49.067   8.575  17.213  0.00  0.00    +0.000 C 
ATOM      2  C   UNL     1      47.890   9.450  17.585  0.00  0.00    +0.000 C 
ATOM      3  C   UNL     1      49.254  10.051  17.572  0.00  0.00    +0.000 C 
ENDROOT
BRANCH   1   8
ATOM      4  C   UNL     1      48.411   7.011  13.731  0.00  0.00    +0.000 A 
ATOM      5  C   UNL     1      49.577   7.405  13.057  0.00  0.00    +0.000 A 
ATOM      6  C   UNL     1      50.552   8.180  13.688  0.00  0.00    +0.000 A 
ATOM      7  C   UNL     1      50.390   8.560  15.019  0.00  0.00    +0.000 A 
ATOM      8  C   UNL     1      49.253   8.187  15.749  0.00  0.00    +0.000 A 
ATOM      9  C   UNL     1      48.275   7.430  15.069  0.00  0.00    +0.000 A 
BRANCH   4  13
ATOM     10  C   UNL     1      45.327   4.640  11.832  0.00  0.00    +0.000 A 
ATOM     11  C   UNL     1      45.846   4.262  13.071  0.00  0.00    +0.000 A 
ATOM     12  C   UNL     1      46.853   5.026  13.677  0.00  0.00    +0.000 A 
ATOM     13  C   UNL     1      47.361   6.191  13.072  0.00  0.00    +0.000 A 
ATOM     14  C   UNL     1      46.826   6.549  11.823  0.00  0.00    +0.000 A 
ATOM     15  C   UNL     1      45.825   5.784  11.207  0.00  0.00    +0.000 A 
BRANCH  10  17
ATOM     16  N   UNL     1      43.466   3.232  10.704  0.00  0.00    +0.000 NA
ATOM     17  C   UNL     1      44.298   3.861  11.207  0.00  0.00    +0.000 C 
ENDBRANCH  10  17
ENDBRANCH   4  13
ENDBRANCH   1   8
BRANCH   1  18
ATOM     18  N   UNL     1      49.727   7.668  18.165  0.00  0.00    +0.000 N 
ATOM     19  H   UNL     1      50.375   8.120  18.802  0.00  0.00    +0.000 HD
BRANCH  18  20
ATOM     20  C   UNL     1      49.978   6.297  18.004  0.00  0.00    +0.000 A 
ATOM     21  C   UNL     1      51.219   5.744  17.686  0.00  0.00    +0.000 A 
ATOM     22  C   UNL     1      51.348   4.368  17.419  0.00  0.00    +0.000 A 
ATOM     23  C   UNL     1      50.226   3.526  17.442  0.00  0.00    +0.000 A 
ATOM     24  C   UNL     1      48.993   4.080  17.763  0.00  0.00    +0.000 A 
ATOM     25  F   UNL     1      47.875   3.335  17.800  0.00  0.00    +0.000 F 
ATOM     26  C   UNL     1      48.870   5.438  18.033  0.00  0.00    +0.000 A 
BRANCH  23  27
ATOM     27  C   UNL     1      50.385   2.091  17.084  0.00  0.00    +0.000 C 
ATOM     28  N   UNL     1      51.191   1.315  17.870  0.00  0.00    +0.000 N 
ATOM     29  O   UNL     1      49.801   1.604  16.124  0.00  0.00    +0.000 OA
ATOM     30  H   UNL     1      51.672   1.670  18.688  0.00  0.00    +0.000 HD
ATOM     31  H   UNL     1      51.269   0.331  17.653  0.00  0.00    +0.000 HD
ENDBRANCH  23  27
ENDBRANCH  18  20
ENDBRANCH   1  18
TORSDOF 6
ENDMDL
MODEL 7
REMARK VINA RESULT:    -6.398      3.896      7.505
REMARK INTER + INTRA:          -9.886
REMARK INTER:                  -9.000
REMARK INTRA:                  -0.886
REMARK UNBOUND:                -1.244
REMARK  Name = 
REMARK  6 active torsions:
REMARK  status: ('A' for Active; 'I' for Inactive)
REMARK    1  A    between atoms: C_2  and  C_3
REMARK    2  A    between atoms: C_6  and  C_7
REMARK    3  A    between atoms: C_11  and  C_12
REMARK    4  A    between atoms: C_12  and  N_13
REMARK    5  A    between atoms: N_13  and  C_14
REMARK    6  A    between atoms: C_17  and  C_18
REMARK                            x       y       z     vdW  Elec       q    Type
REMARK                         _______ _______ _______ _____ _____    ______ ____
ROOT
ATOM      1  C   UNL     1      45.853   7.763  12.673  0.00  0.00    +0.000 C 
ATOM      2  C   UNL     1      45.077   8.968  13.159  0.00  0.00    +0.000 C 
ATOM      3  C   UNL     1      45.923   9.105  11.939  0.00  0.00    +0.000 C 
ENDROOT
BRANCH   1   8
ATOM      4  C   UNL     1      44.998   4.892  10.217  0.00  0.00    +0.000 A 
ATOM      5  C   UNL     1      43.701   4.574  10.649  0.00  0.00    +0.000 A 
ATOM      6  C   UNL     1      43.110   5.241  11.723  0.00  0.00    +0.000 A 
ATOM      7  C   UNL     1      43.799   6.262  12.377  0.00  0.00    +0.000 A 
ATOM      8  C   UNL     1      45.091   6.634  11.984  0.00  0.00    +0.000 A 
ATOM      9  C   UNL     1      45.669   5.917  10.915  0.00  0.00    +0.000 A 
BRANCH   4  13
ATOM     10  C   UNL     1      46.848   2.842   6.884  0.00  0.00    +0.000 A 
ATOM     11  C   UNL     1      46.099   2.132   7.822  0.00  0.00    +0.000 A 
ATOM     12  C   UNL     1      45.511   2.797   8.906  0.00  0.00    +0.000 A 
ATOM     13  C   UNL     1      45.644   4.188   9.079  0.00  0.00    +0.000 A 
ATOM     14  C   UNL     1      46.407   4.881   8.124  0.00  0.00    +0.000 A 
ATOM     15  C   UNL     1      47.005   4.220   7.041  0.00  0.00    +0.000 A 
BRANCH  10  17
ATOM     16  N   UNL     1      47.940   1.621   4.875  0.00  0.00    +0.000 NA
ATOM     17  C   UNL     1      47.453   2.166   5.773  0.00  0.00    +0.000 C 
ENDBRANCH  10  17
ENDBRANCH   4  13
ENDBRANCH   1   8
BRANCH   1  18
ATOM     18  N   UNL     1      47.146   7.356  13.243  0.00  0.00    +0.000 N 
ATOM     19  H   UNL     1      47.957   7.646  12.706  0.00  0.00    +0.000 HD
BRANCH  18  20
ATOM     20  C   UNL     1      47.404   6.260  14.080  0.00  0.00    +0.000 A 
ATOM     21  C   UNL     1      46.823   4.998  13.946  0.00  0.00    +0.000 A 
ATOM     22  C   UNL     1      47.045   3.996  14.910  0.00  0.00    +0.000 A 
ATOM     23  C   UNL     1      47.833   4.253  16.042  0.00  0.00    +0.000 A 
ATOM     24  C   UNL     1      48.412   5.510  16.170  0.00  0.00    +0.000 A 
ATOM     25  F   UNL     1      49.175   5.829  17.229  0.00  0.00    +0.000 F 
ATOM     26  C   UNL     1      48.197   6.495  15.212  0.00  0.00    +0.000 A 
BRANCH  23  27
ATOM     27  C   UNL     1      47.987   3.197  17.077  0.00  0.00    +0.000 C 
ATOM     28  N   UNL     1      46.871   2.787  17.752  0.00  0.00    +0.000 N 
ATOM     29  O   UNL     1      49.077   2.691  17.314  0.00  0.00    +0.000 OA
ATOM     30  H   UNL     1      45.948   3.159  17.570  0.00  0.00    +0.000 HD
ATOM     31  H   UNL     1      46.967   2.041  18.428  0.00  0.00    +0.000 HD
ENDBRANCH  23  27
ENDBRANCH  18  20
ENDBRANCH   1  18
TORSDOF 6
ENDMDL
