MODEL 1
REMARK VINA RESULT:    -9.684      0.000      0.000
REMARK INTER + INTRA:         -13.488
REMARK INTER:                 -13.081
REMARK INTRA:                  -0.407
REMARK UNBOUND:                -0.407
REMARK  Name = 
REMARK  6 active torsions:
REMARK  status: ('A' for Active; 'I' for Inactive)
REMARK    1  A    between atoms: C_2  and  C_4
REMARK    2  A    between atoms: N_8  and  C_9
REMARK    3  A    between atoms: C_9  and  C_10
REMARK    4  A    between atoms: C_10  and  C_11
REMARK    5  A    between atoms: C_15  and  N_16
REMARK    6  A    between atoms: N_16  and  C_17
REMARK                            x       y       z     vdW  Elec       q    Type
REMARK                         _______ _______ _______ _____ _____    ______ ____
ROOT
ATOM      1  C   UNL     1      43.144   5.140  12.371  0.00  0.00    +0.000 C 
ENDROOT
BRANCH   1   2
ATOM      2  C   UNL     1      44.588   5.426  12.729  0.00  0.00    +0.000 A 
ATOM      3  C   UNL     1      45.232   6.491  12.122  0.00  0.00    +0.000 A 
ATOM      4  C   UNL     1      46.529   6.784  12.526  0.00  0.00    +0.000 A 
ATOM      5  C   UNL     1      47.151   5.976  13.481  0.00  0.00    +0.000 A 
ATOM      6  C   UNL     1      46.481   4.873  13.991  0.00  0.00    +0.000 A 
ATOM      7  N   UNL     1      45.204   4.612  13.633  0.00  0.00    +0.000 NA
BRANCH   6   8
ATOM      8  N   UNL     1      47.071   3.980  14.901  0.00  0.00    +0.000 N 
ATOM      9  H   UNL     1      47.762   3.407  14.429  0.00  0.00    +0.000 HD
BRANCH   8  10
ATOM     10  C   UNL     1      47.201   4.128  16.332  0.00  0.00    +0.000 C 
ATOM     11  C   UNL     1      48.377   5.007  16.790  0.00  0.00    +0.000 C 
ATOM     12  C   UNL     1      48.760   3.945  17.831  0.00  0.00    +0.000 C 
ATOM     13  C   UNL     1      47.858   2.926  17.099  0.00  0.00    +0.000 C 
ATOM     14  F   UNL     1      47.022   2.234  17.911  0.00  0.00    +0.000 F 
ATOM     15  F   UNL     1      48.522   2.007  16.359  0.00  0.00    +0.000 F 
ENDBRANCH   8  10
ENDBRANCH   6   8
ENDBRANCH   1   2
BRANCH   1  16
ATOM     16  C   UNL     1      43.050   4.236  11.143  0.00  0.00    +0.000 C 
BRANCH  16  21
ATOM     17  C   UNL     1      46.409   2.480   7.712  0.00  0.00    +0.000 A 
ATOM     18  C   UNL     1      45.713   1.839   8.726  0.00  0.00    +0.000 A 
ATOM     19  C   UNL     1      44.846   2.585   9.526  0.00  0.00    +0.000 A 
ATOM     20  C   UNL     1      44.698   3.953   9.309  0.00  0.00    +0.000 A 
ATOM     21  N   UNL     1      43.849   4.739  10.044  0.00  0.00    +0.000 N 
ATOM     22  N   UNL     1      45.379   4.586   8.334  0.00  0.00    +0.000 NA
ATOM     23  C   UNL     1      46.220   3.846   7.561  0.00  0.00    +0.000 A 
ATOM     24  H   UNL     1      43.951   5.731   9.871  0.00  0.00    +0.000 HD
BRANCH  17  26
ATOM     25  N   UNL     1      48.458   2.494   6.407  0.00  0.00    +0.000 N 
ATOM     26  C   UNL     1      47.363   1.779   6.830  0.00  0.00    +0.000 C 
ATOM     27  O   UNL     1      47.207   0.618   6.512  0.00  0.00    +0.000 OA
ATOM     28  H   UNL     1      49.149   1.978   5.879  0.00  0.00    +0.000 HD
ATOM     29  H   UNL     1      48.750   3.353   6.849  0.00  0.00    +0.000 HD
ENDBRANCH  17  26
ENDBRANCH  16  21
ENDBRANCH   1  16
TORSDOF 6
ENDMDL
MODEL 2
REMARK VINA RESULT:    -9.139      2.818      3.975
REMARK INTER + INTRA:         -12.751
REMARK INTER:                 -11.533
REMARK INTRA:                  -1.218
REMARK UNBOUND:                -0.407
REMARK  Name = 
REMARK  6 active torsions:
REMARK  status: ('A' for Active; 'I' for Inactive)
REMARK    1  A    between atoms: C_2  and  C_4
REMARK    2  A    between atoms: N_8  and  C_9
REMARK    3  A    between atoms: C_9  and  C_10
REMARK    4  A    between atoms: C_10  and  C_11
REMARK    5  A    between atoms: C_15  and  N_16
REMARK    6  A    between atoms: N_16  and  C_17
REMARK                            x       y       z     vdW  Elec       q    Type
REMARK                         _______ _______ _______ _____ _____    ______ ____
ROOT
ATOM      1  C   UNL     1      43.118   5.092  12.407  0.00  0.00    +0.000 C 
ENDROOT
BRANCH   1   2
ATOM      2  C   UNL     1      44.557   5.414  12.755  0.00  0.00    +0.000 A 
ATOM      3  C   UNL     1      45.297   4.488  13.472  0.00  0.00    +0.000 A 
ATOM      4  C   UNL     1      46.637   4.768  13.709  0.00  0.00    +0.000 A 
ATOM      5  C   UNL     1      47.176   5.979  13.266  0.00  0.00    +0.000 A 
ATOM      6  C   UNL     1      46.360   6.901  12.626  0.00  0.00    +0.000 A 
ATOM      7  N   UNL     1      45.068   6.613  12.356  0.00  0.00    +0.000 NA
BRANCH   6   8
ATOM      8  N   UNL     1      46.818   8.165  12.217  0.00  0.00    +0.000 N 
ATOM      9  H   UNL     1      46.034   8.749  11.946  0.00  0.00    +0.000 HD
BRANCH   8  10
ATOM     10  C   UNL     1      48.039   8.835  12.604  0.00  0.00    +0.000 C 
ATOM     11  C   UNL     1      48.275  10.196  11.930  0.00  0.00    +0.000 C 
ATOM     12  C   UNL     1      49.725   9.790  11.628  0.00  0.00    +0.000 C 
ATOM     13  C   UNL     1      49.358   8.319  11.927  0.00  0.00    +0.000 C 
ATOM     14  F   UNL     1      50.222   7.685  12.757  0.00  0.00    +0.000 F 
ATOM     15  F   UNL     1      49.228   7.531  10.834  0.00  0.00    +0.000 F 
ENDBRANCH   8  10
ENDBRANCH   6   8
ENDBRANCH   1   2
BRANCH   1  16
ATOM     16  C   UNL     1      43.034   4.274  11.120  0.00  0.00    +0.000 C 
BRANCH  16  21
ATOM     17  C   UNL     1      46.466   2.520   7.760  0.00  0.00    +0.000 A 
ATOM     18  C   UNL     1      45.679   1.864   8.696  0.00  0.00    +0.000 A 
ATOM     19  C   UNL     1      44.815   2.614   9.497  0.00  0.00    +0.000 A 
ATOM     20  C   UNL     1      44.759   3.999   9.358  0.00  0.00    +0.000 A 
ATOM     21  N   UNL     1      43.918   4.791  10.096  0.00  0.00    +0.000 N 
ATOM     22  N   UNL     1      45.528   4.645   8.460  0.00  0.00    +0.000 NA
ATOM     23  C   UNL     1      46.364   3.901   7.685  0.00  0.00    +0.000 A 
ATOM     24  H   UNL     1      44.088   5.783   9.990  0.00  0.00    +0.000 HD
BRANCH  17  26
ATOM     25  N   UNL     1      48.504   2.537   6.441  0.00  0.00    +0.000 N 
ATOM     26  C   UNL     1      47.423   1.815   6.886  0.00  0.00    +0.000 C 
ATOM     27  O   UNL     1      47.282   0.646   6.593  0.00  0.00    +0.000 OA
ATOM     28  H   UNL     1      49.199   2.020   5.918  0.00  0.00    +0.000 HD
ATOM     29  H   UNL     1      48.787   3.409   6.863  0.00  0.00    +0.000 HD
ENDBRANCH  17  26
ENDBRANCH  16  21
ENDBRANCH   1  16
TORSDOF 6
ENDMDL
MODEL 3
REMARK VINA RESULT:    -8.403      3.405      3.845
REMARK INTER + INTRA:         -11.757
REMARK INTER:                 -10.729
REMARK INTRA:                  -1.028
REMARK UNBOUND:                -0.407
REMARK  Name = 
REMARK  6 active torsions:
REMARK  status: ('A' for Active; 'I' for Inactive)
REMARK    1  A    between atoms: C_2  and  C_4
REMARK    2  A    between atoms: N_8  and  C_9
REMARK    3  A    between atoms: C_9  and  C_10
REMARK    4  A    between atoms: C_10  and  C_11
REMARK    5  A    between atoms: C_15  and  N_16
REMARK    6  A    between atoms: N_16  and  C_17
REMARK                            x       y       z     vdW  Elec       q    Type
REMARK                         _______ _______ _______ _____ _____    ______ ____
ROOT
ATOM      1  C   UNL     1      44.186   4.095  12.475  0.00  0.00    +0.000 C 
ENDROOT
BRANCH   1   2
ATOM      2  C   UNL     1      44.716   5.507  12.328  0.00  0.00    +0.000 A 
ATOM      3  C   UNL     1      44.067   6.383  11.473  0.00  0.00    +0.000 A 
ATOM      4  C   UNL     1      44.521   7.694  11.417  0.00  0.00    +0.000 A 
ATOM      5  C   UNL     1      45.632   8.071  12.176  0.00  0.00    +0.000 A 
ATOM      6  C   UNL     1      46.289   7.125  12.950  0.00  0.00    +0.000 A 
ATOM      7  N   UNL     1      45.824   5.860  13.041  0.00  0.00    +0.000 NA
BRANCH   6   8
ATOM      8  N   UNL     1      47.452   7.418  13.683  0.00  0.00    +0.000 N 
ATOM      9  H   UNL     1      47.241   7.446  14.674  0.00  0.00    +0.000 HD
BRANCH   8  10
ATOM     10  C   UNL     1      48.825   7.173  13.305  0.00  0.00    +0.000 C 
ATOM     11  C   UNL     1      49.877   7.768  14.255  0.00  0.00    +0.000 C 
ATOM     12  C   UNL     1      50.649   8.319  13.047  0.00  0.00    +0.000 C 
ATOM     13  C   UNL     1      49.404   8.082  12.163  0.00  0.00    +0.000 C 
ATOM     14  F   UNL     1      49.661   7.446  10.994  0.00  0.00    +0.000 F 
ATOM     15  F   UNL     1      48.709   9.200  11.848  0.00  0.00    +0.000 F 
ENDBRANCH   8  10
ENDBRANCH   6   8
ENDBRANCH   1   2
BRANCH   1  16
ATOM     16  C   UNL     1      43.420   3.664  11.226  0.00  0.00    +0.000 C 
BRANCH  16  21
ATOM     17  C   UNL     1      46.615   2.512   7.404  0.00  0.00    +0.000 A 
ATOM     18  C   UNL     1      46.146   3.731   7.873  0.00  0.00    +0.000 A 
ATOM     19  C   UNL     1      45.262   3.744   8.954  0.00  0.00    +0.000 A 
ATOM     20  C   UNL     1      44.855   2.547   9.537  0.00  0.00    +0.000 A 
ATOM     21  N   UNL     1      44.008   2.490  10.613  0.00  0.00    +0.000 N 
ATOM     22  N   UNL     1      45.296   1.358   9.081  0.00  0.00    +0.000 NA
ATOM     23  C   UNL     1      46.159   1.361   8.027  0.00  0.00    +0.000 A 
ATOM     24  H   UNL     1      43.689   1.556  10.838  0.00  0.00    +0.000 HD
BRANCH  17  26
ATOM     25  N   UNL     1      47.289   3.220   5.180  0.00  0.00    +0.000 N 
ATOM     26  C   UNL     1      47.534   2.398   6.254  0.00  0.00    +0.000 C 
ATOM     27  O   UNL     1      48.478   1.636   6.263  0.00  0.00    +0.000 OA
ATOM     28  H   UNL     1      47.975   3.198   4.438  0.00  0.00    +0.000 HD
ATOM     29  H   UNL     1      46.688   4.028   5.240  0.00  0.00    +0.000 HD
ENDBRANCH  17  26
ENDBRANCH  16  21
ENDBRANCH   1  16
TORSDOF 6
ENDMDL
MODEL 4
REMARK VINA RESULT:    -8.347      3.254      3.717
REMARK INTER + INTRA:         -11.682
REMARK INTER:                 -10.671
REMARK INTRA:                  -1.011
REMARK UNBOUND:                -0.407
REMARK  Name = 
REMARK  6 active torsions:
REMARK  status: ('A' for Active; 'I' for Inactive)
REMARK    1  A    between atoms: C_2  and  C_4
REMARK    2  A    between atoms: N_8  and  C_9
REMARK    3  A    between atoms: C_9  and  C_10
REMARK    4  A    between atoms: C_10  and  C_11
REMARK    5  A    between atoms: C_15  and  N_16
REMARK    6  A    between atoms: N_16  and  C_17
REMARK                            x       y       z     vdW  Elec       q    Type
REMARK                         _______ _______ _______ _____ _____    ______ ____
ROOT
ATOM      1  C   UNL     1      42.662   5.976  11.520  0.00  0.00    +0.000 C 
ENDROOT
BRANCH   1   2
ATOM      2  C   UNL     1      43.675   7.090  11.692  0.00  0.00    +0.000 A 
ATOM      3  C   UNL     1      43.492   8.276  11.001  0.00  0.00    +0.000 A 
ATOM      4  C   UNL     1      44.388   9.312  11.237  0.00  0.00    +0.000 A 
ATOM      5  C   UNL     1      45.457   9.111  12.113  0.00  0.00    +0.000 A 
ATOM      6  C   UNL     1      45.632   7.871  12.711  0.00  0.00    +0.000 A 
ATOM      7  N   UNL     1      44.739   6.876  12.518  0.00  0.00    +0.000 NA
BRANCH   6   8
ATOM      8  N   UNL     1      46.724   7.578  13.547  0.00  0.00    +0.000 N 
ATOM      9  H   UNL     1      46.396   7.342  14.478  0.00  0.00    +0.000 HD
BRANCH   8  10
ATOM     10  C   UNL     1      48.032   7.098  13.164  0.00  0.00    +0.000 C 
ATOM     11  C   UNL     1      49.078   7.095  14.291  0.00  0.00    +0.000 C 
ATOM     12  C   UNL     1      50.095   7.746  13.342  0.00  0.00    +0.000 C 
ATOM     13  C   UNL     1      48.941   8.111  12.381  0.00  0.00    +0.000 C 
ATOM     14  F   UNL     1      49.172   7.794  11.084  0.00  0.00    +0.000 F 
ATOM     15  F   UNL     1      48.576   9.414  12.399  0.00  0.00    +0.000 F 
ENDBRANCH   8  10
ENDBRANCH   6   8
ENDBRANCH   1   2
BRANCH   1  16
ATOM     16  C   UNL     1      43.311   4.733  10.913  0.00  0.00    +0.000 C 
BRANCH  16  21
ATOM     17  C   UNL     1      46.464   2.369   7.656  0.00  0.00    +0.000 A 
ATOM     18  C   UNL     1      45.625   1.874   8.644  0.00  0.00    +0.000 A 
ATOM     19  C   UNL     1      44.865   2.771   9.396  0.00  0.00    +0.000 A 
ATOM     20  C   UNL     1      44.963   4.140   9.159  0.00  0.00    +0.000 A 
ATOM     21  N   UNL     1      44.230   5.073   9.846  0.00  0.00    +0.000 N 
ATOM     22  N   UNL     1      45.784   4.631   8.210  0.00  0.00    +0.000 NA
ATOM     23  C   UNL     1      46.518   3.744   7.482  0.00  0.00    +0.000 A 
ATOM     24  H   UNL     1      44.508   6.029   9.668  0.00  0.00    +0.000 HD
BRANCH  17  26
ATOM     25  N   UNL     1      48.383   2.099   6.192  0.00  0.00    +0.000 N 
ATOM     26  C   UNL     1      47.320   1.500   6.825  0.00  0.00    +0.000 C 
ATOM     27  O   UNL     1      47.116   0.308   6.724  0.00  0.00    +0.000 OA
ATOM     28  H   UNL     1      49.014   1.480   5.701  0.00  0.00    +0.000 HD
ATOM     29  H   UNL     1      48.729   3.009   6.455  0.00  0.00    +0.000 HD
ENDBRANCH  17  26
ENDBRANCH  16  21
ENDBRANCH   1  16
TORSDOF 6
ENDMDL
MODEL 5
REMARK VINA RESULT:    -8.158      4.253      8.524
REMARK INTER + INTRA:         -11.426
REMARK INTER:                 -10.867
REMARK INTRA:                  -0.559
REMARK UNBOUND:                -0.407
REMARK  Name = 
REMARK  6 active torsions:
REMARK  status: ('A' for Active; 'I' for Inactive)
REMARK    1  A    between atoms: C_2  and  C_4
REMARK    2  A    between atoms: N_8  and  C_9
REMARK    3  A    between atoms: C_9  and  C_10
REMARK    4  A    between atoms: C_10  and  C_11
REMARK    5  A    between atoms: C_15  and  N_16
REMARK    6  A    between atoms: N_16  and  C_17
REMARK                            x       y       z     vdW  Elec       q    Type
REMARK                         _______ _______ _______ _____ _____    ______ ____
ROOT
ATOM      1  C   UNL     1      45.973   6.842  12.899  0.00  0.00    +0.000 C 
ENDROOT
BRANCH   1   2
ATOM      2  C   UNL     1      45.032   5.956  12.107  0.00  0.00    +0.000 A 
ATOM      3  C   UNL     1      43.891   5.470  12.722  0.00  0.00    +0.000 A 
ATOM      4  C   UNL     1      43.003   4.728  11.954  0.00  0.00    +0.000 A 
ATOM      5  C   UNL     1      43.308   4.457  10.617  0.00  0.00    +0.000 A 
ATOM      6  C   UNL     1      44.509   4.903  10.083  0.00  0.00    +0.000 A 
ATOM      7  N   UNL     1      45.354   5.663  10.815  0.00  0.00    +0.000 NA
BRANCH   6   8
ATOM      8  N   UNL     1      44.911   4.609   8.769  0.00  0.00    +0.000 N 
ATOM      9  H   UNL     1      45.538   5.329   8.427  0.00  0.00    +0.000 HD
BRANCH   8  10
ATOM     10  C   UNL     1      44.979   3.315   8.131  0.00  0.00    +0.000 C 
ATOM     11  C   UNL     1      45.401   2.158   9.051  0.00  0.00    +0.000 C 
ATOM     12  C   UNL     1      46.387   1.671   7.978  0.00  0.00    +0.000 C 
ATOM     13  C   UNL     1      46.257   3.034   7.263  0.00  0.00    +0.000 C 
ATOM     14  F   UNL     1      46.039   2.946   5.928  0.00  0.00    +0.000 F 
ATOM     15  F   UNL     1      47.312   3.865   7.427  0.00  0.00    +0.000 F 
ENDBRANCH   8  10
ENDBRANCH   6   8
ENDBRANCH   1   2
BRANCH   1  16
ATOM     16  C   UNL     1      47.224   6.075  13.322  0.00  0.00    +0.000 C 
BRANCH  16  21
ATOM     17  C   UNL     1      48.564   4.565  18.020  0.00  0.00    +0.000 A 
ATOM     18  C   UNL     1      48.971   5.647  17.252  0.00  0.00    +0.000 A 
ATOM     19  C   UNL     1      48.427   5.813  15.977  0.00  0.00    +0.000 A 
ATOM     20  C   UNL     1      47.500   4.896  15.488  0.00  0.00    +0.000 A 
ATOM     21  N   UNL     1      46.912   5.012  14.255  0.00  0.00    +0.000 N 
ATOM     22  N   UNL     1      47.108   3.835  16.222  0.00  0.00    +0.000 NA
ATOM     23  C   UNL     1      47.646   3.687  17.464  0.00  0.00    +0.000 A 
ATOM     24  H   UNL     1      46.372   4.202  13.978  0.00  0.00    +0.000 HD
BRANCH  17  26
ATOM     25  N   UNL     1      48.314   3.543  20.208  0.00  0.00    +0.000 N 
ATOM     26  C   UNL     1      49.099   4.295  19.369  0.00  0.00    +0.000 C 
ATOM     27  O   UNL     1      50.192   4.694  19.715  0.00  0.00    +0.000 OA
ATOM     28  H   UNL     1      48.728   3.288  21.095  0.00  0.00    +0.000 HD
ATOM     29  H   UNL     1      47.539   2.989  19.876  0.00  0.00    +0.000 HD
ENDBRANCH  17  26
ENDBRANCH  16  21
ENDBRANCH   1  16
TORSDOF 6
ENDMDL
MODEL 6
REMARK VINA RESULT:    -7.448      2.515      4.902
REMARK INTER + INTRA:         -10.468
REMARK INTER:                  -9.344
REMARK INTRA:                  -1.124
REMARK UNBOUND:                -0.407
REMARK  Name = 
REMARK  6 active torsions:
REMARK  status: ('A' for Active; 'I' for Inactive)
REMARK    1  A    between atoms: C_2  and  C_4
REMARK    2  A    between atoms: N_8  and  C_9
REMARK    3  A    between atoms: C_9  and  C_10
REMARK    4  A    between atoms: C_10  and  C_11
REMARK    5  A    between atoms: C_15  and  N_16
REMARK    6  A    between atoms: N_16  and  C_17
REMARK                            x       y       z     vdW  Elec       q    Type
REMARK                         _______ _______ _______ _____ _____    ______ ____
ROOT
ATOM      1  C   UNL     1      49.512   7.425  13.857  0.00  0.00    +0.000 C 
ENDROOT
BRANCH   1   2
ATOM      2  C   UNL     1      50.087   7.051  15.208  0.00  0.00    +0.000 A 
ATOM      3  C   UNL     1      51.355   7.497  15.545  0.00  0.00    +0.000 A 
ATOM      4  C   UNL     1      51.828   7.211  16.819  0.00  0.00    +0.000 A 
ATOM      5  C   UNL     1      51.043   6.453  17.691  0.00  0.00    +0.000 A 
ATOM      6  C   UNL     1      49.816   5.965  17.264  0.00  0.00    +0.000 A 
ATOM      7  N   UNL     1      49.334   6.278  16.041  0.00  0.00    +0.000 NA
BRANCH   6   8
ATOM      8  N   UNL     1      49.007   5.140  18.064  0.00  0.00    +0.000 N 
ATOM      9  H   UNL     1      48.161   5.632  18.328  0.00  0.00    +0.000 HD
BRANCH   8  10
ATOM     10  C   UNL     1      48.971   3.696  18.095  0.00  0.00    +0.000 C 
ATOM     11  C   UNL     1      50.110   3.000  17.332  0.00  0.00    +0.000 C 
ATOM     12  C   UNL     1      49.090   2.055  16.680  0.00  0.00    +0.000 C 
ATOM     13  C   UNL     1      47.953   3.005  17.120  0.00  0.00    +0.000 C 
ATOM     14  F   UNL     1      46.908   2.386  17.721  0.00  0.00    +0.000 F 
ATOM     15  F   UNL     1      47.432   3.765  16.128  0.00  0.00    +0.000 F 
ENDBRANCH   8  10
ENDBRANCH   6   8
ENDBRANCH   1   2
BRANCH   1  16
ATOM     16  C   UNL     1      48.004   7.655  13.947  0.00  0.00    +0.000 C 
BRANCH  16  21
ATOM     17  C   UNL     1      45.007   4.604  11.144  0.00  0.00    +0.000 A 
ATOM     18  C   UNL     1      45.645   5.798  10.838  0.00  0.00    +0.000 A 
ATOM     19  C   UNL     1      46.413   6.425  11.821  0.00  0.00    +0.000 A 
ATOM     20  C   UNL     1      46.523   5.858  13.089  0.00  0.00    +0.000 A 
ATOM     21  N   UNL     1      47.278   6.410  14.091  0.00  0.00    +0.000 N 
ATOM     22  N   UNL     1      45.898   4.705  13.398  0.00  0.00    +0.000 NA
ATOM     23  C   UNL     1      45.154   4.105  12.429  0.00  0.00    +0.000 A 
ATOM     24  H   UNL     1      47.150   5.969  14.993  0.00  0.00    +0.000 HD
BRANCH  17  26
ATOM     25  N   UNL     1      44.147   4.352   8.887  0.00  0.00    +0.000 N 
ATOM     26  C   UNL     1      44.157   3.881  10.178  0.00  0.00    +0.000 C 
ATOM     27  O   UNL     1      43.518   2.901  10.497  0.00  0.00    +0.000 OA
ATOM     28  H   UNL     1      43.634   3.797   8.215  0.00  0.00    +0.000 HD
ATOM     29  H   UNL     1      44.848   4.986   8.534  0.00  0.00    +0.000 HD
ENDBRANCH  17  26
ENDBRANCH  16  21
ENDBRANCH   1  16
TORSDOF 6
ENDMDL
MODEL 7
REMARK VINA RESULT:    -7.030      4.382      7.504
REMARK INTER + INTRA:          -9.902
REMARK INTER:                  -9.087
REMARK INTRA:                  -0.815
REMARK UNBOUND:                -0.407
REMARK  Name = 
REMARK  6 active torsions:
REMARK  status: ('A' for Active; 'I' for Inactive)
REMARK    1  A    between atoms: C_2  and  C_4
REMARK    2  A    between atoms: N_8  and  C_9
REMARK    3  A    between atoms: C_9  and  C_10
REMARK    4  A    between atoms: C_10  and  C_11
REMARK    5  A    between atoms: C_15  and  N_16
REMARK    6  A    between atoms: N_16  and  C_17
REMARK                            x       y       z     vdW  Elec       q    Type
REMARK                         _______ _______ _______ _____ _____    ______ ____
ROOT
ATOM      1  C   UNL     1      43.165   5.454  11.062  0.00  0.00    +0.000 C 
ENDROOT
BRANCH   1   2
ATOM      2  C   UNL     1      43.748   4.221  10.402  0.00  0.00    +0.000 A 
ATOM      3  C   UNL     1      43.720   3.017  11.086  0.00  0.00    +0.000 A 
ATOM      4  C   UNL     1      44.185   1.884  10.430  0.00  0.00    +0.000 A 
ATOM      5  C   UNL     1      44.704   2.001   9.138  0.00  0.00    +0.000 A 
ATOM      6  C   UNL     1      44.781   3.251   8.539  0.00  0.00    +0.000 A 
ATOM      7  N   UNL     1      44.290   4.347   9.157  0.00  0.00    +0.000 NA
BRANCH   6   8
ATOM      8  N   UNL     1      45.355   3.451   7.272  0.00  0.00    +0.000 N 
ATOM      9  H   UNL     1      44.789   4.097   6.732  0.00  0.00    +0.000 HD
BRANCH   8  10
ATOM     10  C   UNL     1      46.742   3.310   6.893  0.00  0.00    +0.000 C 
ATOM     11  C   UNL     1      47.034   3.536   5.401  0.00  0.00    +0.000 C 
ATOM     12  C   UNL     1      47.896   2.264   5.382  0.00  0.00    +0.000 C 
ATOM     13  C   UNL     1      47.271   1.841   6.730  0.00  0.00    +0.000 C 
ATOM     14  F   UNL     1      48.171   1.445   7.663  0.00  0.00    +0.000 F 
ATOM     15  F   UNL     1      46.347   0.855   6.644  0.00  0.00    +0.000 F 
ENDBRANCH   8  10
ENDBRANCH   6   8
ENDBRANCH   1   2
BRANCH   1  16
ATOM     16  C   UNL     1      43.671   5.601  12.496  0.00  0.00    +0.000 C 
BRANCH  16  21
ATOM     17  C   UNL     1      48.107   8.101  12.028  0.00  0.00    +0.000 A 
ATOM     18  C   UNL     1      47.754   6.793  11.729  0.00  0.00    +0.000 A 
ATOM     19  C   UNL     1      46.444   6.375  11.967  0.00  0.00    +0.000 A 
ATOM     20  C   UNL     1      45.515   7.262  12.506  0.00  0.00    +0.000 A 
ATOM     21  N   UNL     1      44.208   6.924  12.744  0.00  0.00    +0.000 N 
ATOM     22  N   UNL     1      45.851   8.531  12.811  0.00  0.00    +0.000 NA
ATOM     23  C   UNL     1      47.133   8.925  12.572  0.00  0.00    +0.000 A 
ATOM     24  H   UNL     1      43.690   7.619  13.266  0.00  0.00    +0.000 HD
BRANCH  17  26
ATOM     25  N   UNL     1      49.580   9.904  11.336  0.00  0.00    +0.000 N 
ATOM     26  C   UNL     1      49.472   8.626  11.832  0.00  0.00    +0.000 C 
ATOM     27  O   UNL     1      50.456   7.976  12.119  0.00  0.00    +0.000 OA
ATOM     28  H   UNL     1      50.516  10.285  11.291  0.00  0.00    +0.000 HD
ATOM     29  H   UNL     1      48.808  10.553  11.333  0.00  0.00    +0.000 HD
ENDBRANCH  17  26
ENDBRANCH  16  21
ENDBRANCH   1  16
TORSDOF 6
ENDMDL
MODEL 8
REMARK VINA RESULT:    -6.893      2.943      4.295
REMARK INTER + INTRA:          -9.718
REMARK INTER:                  -8.684
REMARK INTRA:                  -1.034
REMARK UNBOUND:                -0.407
REMARK  Name = 
REMARK  6 active torsions:
REMARK  status: ('A' for Active; 'I' for Inactive)
REMARK    1  A    between atoms: C_2  and  C_4
REMARK    2  A    between atoms: N_8  and  C_9
REMARK    3  A    between atoms: C_9  and  C_10
REMARK    4  A    between atoms: C_10  and  C_11
REMARK    5  A    between atoms: C_15  and  N_16
REMARK    6  A    between atoms: N_16  and  C_17
REMARK                            x       y       z     vdW  Elec       q    Type
REMARK                         _______ _______ _______ _____ _____    ______ ____
ROOT
ATOM      1  C   UNL     1      47.873   8.756  12.592  0.00  0.00    +0.000 C 
ENDROOT
BRANCH   1   2
ATOM      2  C   UNL     1      48.251   8.304  13.988  0.00  0.00    +0.000 A 
ATOM      3  C   UNL     1      48.711   9.243  14.896  0.00  0.00    +0.000 A 
ATOM      4  C   UNL     1      48.974   8.821  16.193  0.00  0.00    +0.000 A 
ATOM      5  C   UNL     1      48.816   7.472  16.523  0.00  0.00    +0.000 A 
ATOM      6  C   UNL     1      48.432   6.566  15.545  0.00  0.00    +0.000 A 
ATOM      7  N   UNL     1      48.133   6.981  14.294  0.00  0.00    +0.000 NA
BRANCH   6   8
ATOM      8  N   UNL     1      48.321   5.186  15.790  0.00  0.00    +0.000 N 
ATOM      9  H   UNL     1      48.473   4.667  14.932  0.00  0.00    +0.000 HD
BRANCH   8  10
ATOM     10  C   UNL     1      48.537   4.486  17.035  0.00  0.00    +0.000 C 
ATOM     11  C   UNL     1      50.010   4.216  17.381  0.00  0.00    +0.000 C 
ATOM     12  C   UNL     1      49.656   2.764  17.736  0.00  0.00    +0.000 C 
ATOM     13  C   UNL     1      48.304   2.933  17.008  0.00  0.00    +0.000 C 
ATOM     14  F   UNL     1      47.231   2.500  17.714  0.00  0.00    +0.000 F 
ATOM     15  F   UNL     1      48.231   2.338  15.795  0.00  0.00    +0.000 F 
ENDBRANCH   8  10
ENDBRANCH   6   8
ENDBRANCH   1   2
BRANCH   1  16
ATOM     16  C   UNL     1      46.363   8.953  12.469  0.00  0.00    +0.000 C 
BRANCH  16  21
ATOM     17  C   UNL     1      44.417   4.344  11.414  0.00  0.00    +0.000 A 
ATOM     18  C   UNL     1      45.120   5.245  10.628  0.00  0.00    +0.000 A 
ATOM     19  C   UNL     1      45.535   6.453  11.192  0.00  0.00    +0.000 A 
ATOM     20  C   UNL     1      45.232   6.745  12.520  0.00  0.00    +0.000 A 
ATOM     21  N   UNL     1      45.627   7.901  13.140  0.00  0.00    +0.000 N 
ATOM     22  N   UNL     1      44.539   5.880  13.287  0.00  0.00    +0.000 NA
ATOM     23  C   UNL     1      44.143   4.706  12.725  0.00  0.00    +0.000 A 
ATOM     24  H   UNL     1      45.217   8.039  14.055  0.00  0.00    +0.000 HD
BRANCH  17  26
ATOM     25  N   UNL     1      43.313   2.216  11.806  0.00  0.00    +0.000 N 
ATOM     26  C   UNL     1      43.919   3.053  10.900  0.00  0.00    +0.000 C 
ATOM     27  O   UNL     1      44.014   2.751   9.728  0.00  0.00    +0.000 OA
ATOM     28  H   UNL     1      42.896   1.377  11.427  0.00  0.00    +0.000 HD
ATOM     29  H   UNL     1      42.990   2.534  12.708  0.00  0.00    +0.000 HD
ENDBRANCH  17  26
ENDBRANCH  16  21
ENDBRANCH   1  16
TORSDOF 6
ENDMDL
MODEL 9
REMARK VINA RESULT:    -6.893      3.764      7.960
REMARK INTER + INTRA:          -9.717
REMARK INTER:                  -9.166
REMARK INTRA:                  -0.552
REMARK UNBOUND:                -0.407
REMARK  Name = 
REMARK  6 active torsions:
REMARK  status: ('A' for Active; 'I' for Inactive)
REMARK    1  A    between atoms: C_2  and  C_4
REMARK    2  A    between atoms: N_8  and  C_9
REMARK    3  A    between atoms: C_9  and  C_10
REMARK    4  A    between atoms: C_10  and  C_11
REMARK    5  A    between atoms: C_15  and  N_16
REMARK    6  A    between atoms: N_16  and  C_17
REMARK                            x       y       z     vdW  Elec       q    Type
REMARK                         _______ _______ _______ _____ _____    ______ ____
ROOT
ATOM      1  C   UNL     1      45.581   6.440  11.838  0.00  0.00    +0.000 C 
ENDROOT
BRANCH   1   2
ATOM      2  C   UNL     1      45.146   5.203  11.077  0.00  0.00    +0.000 A 
ATOM      3  C   UNL     1      44.436   4.219  11.745  0.00  0.00    +0.000 A 
ATOM      4  C   UNL     1      43.977   3.134  11.008  0.00  0.00    +0.000 A 
ATOM      5  C   UNL     1      44.284   3.046   9.648  0.00  0.00    +0.000 A 
ATOM      6  C   UNL     1      45.071   4.024   9.056  0.00  0.00    +0.000 A 
ATOM      7  N   UNL     1      45.481   5.103   9.759  0.00  0.00    +0.000 NA
BRANCH   6   8
ATOM      8  N   UNL     1      45.475   3.963   7.712  0.00  0.00    +0.000 N 
ATOM      9  H   UNL     1      44.973   4.654   7.165  0.00  0.00    +0.000 HD
BRANCH   8  10
ATOM     10  C   UNL     1      46.735   3.490   7.184  0.00  0.00    +0.000 C 
ATOM     11  C   UNL     1      46.852   3.525   5.652  0.00  0.00    +0.000 C 
ATOM     12  C   UNL     1      47.419   2.097   5.667  0.00  0.00    +0.000 C 
ATOM     13  C   UNL     1      46.919   1.932   7.120  0.00  0.00    +0.000 C 
ATOM     14  F   UNL     1      47.842   1.425   7.974  0.00  0.00    +0.000 F 
ATOM     15  F   UNL     1      45.809   1.170   7.256  0.00  0.00    +0.000 F 
ENDBRANCH   8  10
ENDBRANCH   6   8
ENDBRANCH   1   2
BRANCH   1  16
ATOM     16  C   UNL     1      47.101   6.588  11.821  0.00  0.00    +0.000 C 
BRANCH  16  21
ATOM     17  C   UNL     1      47.660   4.043  16.220  0.00  0.00    +0.000 A 
ATOM     18  C   UNL     1      47.113   3.664  15.003  0.00  0.00    +0.000 A 
ATOM     19  C   UNL     1      47.092   4.585  13.955  0.00  0.00    +0.000 A 
ATOM     20  C   UNL     1      47.604   5.867  14.142  0.00  0.00    +0.000 A 
ATOM     21  N   UNL     1      47.634   6.812  13.149  0.00  0.00    +0.000 N 
ATOM     22  N   UNL     1      48.127   6.248  15.324  0.00  0.00    +0.000 NA
ATOM     23  C   UNL     1      48.142   5.338  16.336  0.00  0.00    +0.000 A 
ATOM     24  H   UNL     1      47.901   7.735  13.467  0.00  0.00    +0.000 HD
BRANCH  17  26
ATOM     25  N   UNL     1      48.901   3.069  18.067  0.00  0.00    +0.000 N 
ATOM     26  C   UNL     1      47.707   3.145  17.390  0.00  0.00    +0.000 C 
ATOM     27  O   UNL     1      46.732   2.523  17.759  0.00  0.00    +0.000 OA
ATOM     28  H   UNL     1      48.896   2.523  18.918  0.00  0.00    +0.000 HD
ATOM     29  H   UNL     1      49.635   3.751  17.952  0.00  0.00    +0.000 HD
ENDBRANCH  17  26
ENDBRANCH  16  21
ENDBRANCH   1  16
TORSDOF 6
ENDMDL
