MODEL 1
REMARK VINA RESULT:    -7.366      0.000      0.000
REMARK INTER + INTRA:         -12.607
REMARK INTER:                 -11.241
REMARK INTRA:                  -1.366
REMARK UNBOUND:                -1.366
REMARK  Name = 
REMARK  9 active torsions:
REMARK  status: ('A' for Active; 'I' for Inactive)
REMARK    1  A    between atoms: C_2  and  C_3
REMARK    2  A    between atoms: C_3  and  N_4
REMARK    3  A    between atoms: C_3  and  C_20
REMARK    4  A    between atoms: N_4  and  C_5
REMARK    5  A    between atoms: C_5  and  C_6
REMARK    6  A    between atoms: C_10  and  C_11
REMARK    7  A    between atoms: C_11  and  N_12
REMARK    8  A    between atoms: N_12  and  C_13
REMARK    9  A    between atoms: C_13  and  C_14
REMARK                            x       y       z     vdW  Elec       q    Type
REMARK                         _______ _______ _______ _____ _____    ______ ____
ROOT
ATOM      1  C   UNL     1      45.729   7.260  12.382  0.00  0.00    +0.000 C 
ENDROOT
BRANCH   1   2
ATOM      2  C   UNL     1      44.836   6.059  12.209  0.00  0.00    +0.000 A 
ATOM      3  C   UNL     1      43.835   5.767  13.138  0.00  0.00    +0.000 A 
ATOM      4  C   UNL     1      43.029   4.662  12.920  0.00  0.00    +0.000 A 
ATOM      5  N   UNL     1      43.147   3.845  11.852  0.00  0.00    +0.000 NA
ATOM      6  C   UNL     1      44.120   4.137  10.951  0.00  0.00    +0.000 A 
ATOM      7  C   UNL     1      44.974   5.228  11.096  0.00  0.00    +0.000 A 
BRANCH   6   8
ATOM      8  C   UNL     1      44.217   3.265   9.714  0.00  0.00    +0.000 C 
BRANCH   8   9
ATOM      9  N   UNL     1      44.172   4.015   8.448  0.00  0.00    +0.000 NA
ATOM     10  H   UNL     1      44.689   4.884   8.610  0.00  0.00    +0.000 HD
BRANCH   9  11
ATOM     11  C   UNL     1      44.843   3.287   7.358  0.00  0.00    +0.000 C 
BRANCH  11  12
ATOM     12  C   UNL     1      46.380   3.459   7.453  0.00  0.00    +0.000 C 
ATOM     13  C   UNL     1      47.111   2.133   7.582  0.00  0.00    +0.000 C 
ATOM     14  C   UNL     1      47.191   1.639   6.151  0.00  0.00    +0.000 C 
ATOM     15  C   UNL     1      47.213   2.909   5.309  0.00  0.00    +0.000 C 
ATOM     16  N   UNL     1      46.953   4.027   6.221  0.00  0.00    +0.000 NA
ATOM     17  H   UNL     1      46.266   4.671   5.819  0.00  0.00    +0.000 HD
ENDBRANCH  11  12
ENDBRANCH   9  11
ENDBRANCH   8   9
ENDBRANCH   6   8
ENDBRANCH   1   2
BRANCH   1  18
ATOM     18  N   UNL     1      46.487   7.171  13.631  0.00  0.00    +0.000 NA
ATOM     19  H   UNL     1      45.928   6.640  14.300  0.00  0.00    +0.000 HD
BRANCH  18  20
ATOM     20  C   UNL     1      47.761   6.452  13.442  0.00  0.00    +0.000 C 
BRANCH  20  21
ATOM     21  C   UNL     1      48.380   6.297  14.821  0.00  0.00    +0.000 A 
ATOM     22  C   UNL     1      49.318   7.157  15.378  0.00  0.00    +0.000 A 
ATOM     23  S   UNL     1      49.872   6.651  16.913  0.00  0.00    +0.000 S 
ATOM     24  C   UNL     1      48.834   5.302  16.911  0.00  0.00    +0.000 A 
ATOM     25  N   UNL     1      48.806   4.429  17.952  0.00  0.00    +0.000 NA
ATOM     26  C   UNL     1      47.946   3.473  17.820  0.00  0.00    +0.000 A 
ATOM     27  N   UNL     1      47.107   3.315  16.745  0.00  0.00    +0.000 N 
ATOM     28  C   UNL     1      47.091   4.179  15.674  0.00  0.00    +0.000 A 
ATOM     29  O   UNL     1      46.304   4.056  14.741  0.00  0.00    +0.000 OA
ATOM     30  C   UNL     1      48.068   5.251  15.765  0.00  0.00    +0.000 A 
ATOM     31  H   UNL     1      46.438   2.559  16.724  0.00  0.00    +0.000 HD
ENDBRANCH  20  21
BRANCH  20  33
ATOM     32  N   UNL     1      49.444   7.707  11.820  0.00  0.00    +0.000 NA
ATOM     33  C   UNL     1      48.714   7.138  12.523  0.00  0.00    +0.000 C 
ENDBRANCH  20  33
ENDBRANCH  18  20
ENDBRANCH   1  18
TORSDOF 9
ENDMDL
MODEL 2
REMARK VINA RESULT:    -6.887      2.008      3.199
REMARK INTER + INTRA:         -11.876
REMARK INTER:                 -11.148
REMARK INTRA:                  -0.728
REMARK UNBOUND:                -1.366
REMARK  Name = 
REMARK  9 active torsions:
REMARK  status: ('A' for Active; 'I' for Inactive)
REMARK    1  A    between atoms: C_2  and  C_3
REMARK    2  A    between atoms: C_3  and  N_4
REMARK    3  A    between atoms: C_3  and  C_20
REMARK    4  A    between atoms: N_4  and  C_5
REMARK    5  A    between atoms: C_5  and  C_6
REMARK    6  A    between atoms: C_10  and  C_11
REMARK    7  A    between atoms: C_11  and  N_12
REMARK    8  A    between atoms: N_12  and  C_13
REMARK    9  A    between atoms: C_13  and  C_14
REMARK                            x       y       z     vdW  Elec       q    Type
REMARK                         _______ _______ _______ _____ _____    ______ ____
ROOT
ATOM      1  C   UNL     1      46.949   3.743  14.238  0.00  0.00    +0.000 C 
ENDROOT
BRANCH   1   2
ATOM      2  C   UNL     1      46.397   4.506  13.063  0.00  0.00    +0.000 A 
ATOM      3  C   UNL     1      46.838   5.800  12.773  0.00  0.00    +0.000 A 
ATOM      4  C   UNL     1      46.312   6.449  11.669  0.00  0.00    +0.000 A 
ATOM      5  N   UNL     1      45.393   5.903  10.843  0.00  0.00    +0.000 NA
ATOM      6  C   UNL     1      44.971   4.644  11.130  0.00  0.00    +0.000 A 
ATOM      7  C   UNL     1      45.449   3.922  12.221  0.00  0.00    +0.000 A 
BRANCH   6   8
ATOM      8  C   UNL     1      43.991   3.997  10.171  0.00  0.00    +0.000 C 
BRANCH   8   9
ATOM      9  N   UNL     1      44.177   4.395   8.765  0.00  0.00    +0.000 NA
ATOM     10  H   UNL     1      44.875   5.145   8.769  0.00  0.00    +0.000 HD
BRANCH   9  11
ATOM     11  C   UNL     1      44.707   3.289   7.951  0.00  0.00    +0.000 C 
BRANCH  11  12
ATOM     12  C   UNL     1      46.256   3.293   7.968  0.00  0.00    +0.000 C 
ATOM     13  C   UNL     1      46.849   1.924   7.677  0.00  0.00    +0.000 C 
ATOM     14  C   UNL     1      46.802   1.839   6.164  0.00  0.00    +0.000 C 
ATOM     15  C   UNL     1      46.915   3.285   5.696  0.00  0.00    +0.000 C 
ATOM     16  N   UNL     1      46.822   4.126   6.893  0.00  0.00    +0.000 NA
ATOM     17  H   UNL     1      46.187   4.914   6.735  0.00  0.00    +0.000 HD
ENDBRANCH  11  12
ENDBRANCH   9  11
ENDBRANCH   8   9
ENDBRANCH   6   8
ENDBRANCH   1   2
BRANCH   1  18
ATOM     18  N   UNL     1      46.703   4.461  15.489  0.00  0.00    +0.000 NA
ATOM     19  H   UNL     1      45.742   4.270  15.778  0.00  0.00    +0.000 HD
BRANCH  18  20
ATOM     20  C   UNL     1      47.595   3.993  16.567  0.00  0.00    +0.000 C 
BRANCH  20  21
ATOM     21  C   UNL     1      48.497   5.162  16.922  0.00  0.00    +0.000 A 
ATOM     22  C   UNL     1      48.751   6.255  16.102  0.00  0.00    +0.000 A 
ATOM     23  S   UNL     1      49.878   7.354  16.768  0.00  0.00    +0.000 S 
ATOM     24  C   UNL     1      50.015   6.440  18.198  0.00  0.00    +0.000 A 
ATOM     25  N   UNL     1      50.837   6.828  19.209  0.00  0.00    +0.000 NA
ATOM     26  C   UNL     1      50.811   6.050  20.241  0.00  0.00    +0.000 A 
ATOM     27  N   UNL     1      50.035   4.923  20.356  0.00  0.00    +0.000 N 
ATOM     28  C   UNL     1      49.181   4.498  19.365  0.00  0.00    +0.000 A 
ATOM     29  O   UNL     1      48.456   3.517  19.497  0.00  0.00    +0.000 OA
ATOM     30  C   UNL     1      49.203   5.325  18.171  0.00  0.00    +0.000 A 
ATOM     31  H   UNL     1      50.045   4.379  21.207  0.00  0.00    +0.000 HD
ENDBRANCH  20  21
BRANCH  20  33
ATOM     32  N   UNL     1      49.019   1.851  15.920  0.00  0.00    +0.000 NA
ATOM     33  C   UNL     1      48.414   2.801  16.203  0.00  0.00    +0.000 C 
ENDBRANCH  20  33
ENDBRANCH  18  20
ENDBRANCH   1  18
TORSDOF 9
ENDMDL
MODEL 3
REMARK VINA RESULT:    -6.885      1.578      2.340
REMARK INTER + INTRA:         -11.873
REMARK INTER:                 -10.689
REMARK INTRA:                  -1.184
REMARK UNBOUND:                -1.366
REMARK  Name = 
REMARK  9 active torsions:
REMARK  status: ('A' for Active; 'I' for Inactive)
REMARK    1  A    between atoms: C_2  and  C_3
REMARK    2  A    between atoms: C_3  and  N_4
REMARK    3  A    between atoms: C_3  and  C_20
REMARK    4  A    between atoms: N_4  and  C_5
REMARK    5  A    between atoms: C_5  and  C_6
REMARK    6  A    between atoms: C_10  and  C_11
REMARK    7  A    between atoms: C_11  and  N_12
REMARK    8  A    between atoms: N_12  and  C_13
REMARK    9  A    between atoms: C_13  and  C_14
REMARK                            x       y       z     vdW  Elec       q    Type
REMARK                         _______ _______ _______ _____ _____    ______ ____
ROOT
ATOM      1  C   UNL     1      46.692   7.965  12.831  0.00  0.00    +0.000 C 
ENDROOT
BRANCH   1   2
ATOM      2  C   UNL     1      45.402   7.344  12.363  0.00  0.00    +0.000 A 
ATOM      3  C   UNL     1      44.569   8.008  11.460  0.00  0.00    +0.000 A 
ATOM      4  C   UNL     1      43.404   7.383  11.047  0.00  0.00    +0.000 A 
ATOM      5  N   UNL     1      43.022   6.156  11.462  0.00  0.00    +0.000 NA
ATOM      6  C   UNL     1      43.839   5.515  12.337  0.00  0.00    +0.000 A 
ATOM      7  C   UNL     1      45.027   6.073  12.804  0.00  0.00    +0.000 A 
BRANCH   6   8
ATOM      8  C   UNL     1      43.453   4.109  12.757  0.00  0.00    +0.000 C 
BRANCH   8   9
ATOM      9  N   UNL     1      44.530   3.119  12.595  0.00  0.00    +0.000 NA
ATOM     10  H   UNL     1      44.078   2.200  12.592  0.00  0.00    +0.000 HD
BRANCH   9  11
ATOM     11  C   UNL     1      45.230   3.281  11.309  0.00  0.00    +0.000 C 
BRANCH  11  12
ATOM     12  C   UNL     1      44.282   2.959  10.127  0.00  0.00    +0.000 C 
ATOM     13  C   UNL     1      44.429   3.939   8.975  0.00  0.00    +0.000 C 
ATOM     14  C   UNL     1      45.641   3.418   8.227  0.00  0.00    +0.000 C 
ATOM     15  C   UNL     1      45.639   1.917   8.493  0.00  0.00    +0.000 C 
ATOM     16  N   UNL     1      44.600   1.667   9.496  0.00  0.00    +0.000 NA
ATOM     17  H   UNL     1      44.944   1.034  10.225  0.00  0.00    +0.000 HD
ENDBRANCH  11  12
ENDBRANCH   9  11
ENDBRANCH   8   9
ENDBRANCH   6   8
ENDBRANCH   1   2
BRANCH   1  18
ATOM     18  N   UNL     1      47.084   7.431  14.137  0.00  0.00    +0.000 NA
ATOM     19  H   UNL     1      46.366   6.769  14.434  0.00  0.00    +0.000 HD
BRANCH  18  20
ATOM     20  C   UNL     1      48.363   6.701  14.063  0.00  0.00    +0.000 C 
BRANCH  20  21
ATOM     21  C   UNL     1      48.746   6.350  15.490  0.00  0.00    +0.000 A 
ATOM     22  C   UNL     1      49.606   7.089  16.293  0.00  0.00    +0.000 A 
ATOM     23  S   UNL     1      49.889   6.374  17.819  0.00  0.00    +0.000 S 
ATOM     24  C   UNL     1      48.825   5.089  17.482  0.00  0.00    +0.000 A 
ATOM     25  N   UNL     1      48.603   4.098  18.386  0.00  0.00    +0.000 NA
ATOM     26  C   UNL     1      47.748   3.210  18.000  0.00  0.00    +0.000 A 
ATOM     27  N   UNL     1      47.090   3.224  16.795  0.00  0.00    +0.000 N 
ATOM     28  C   UNL     1      47.273   4.211  15.853  0.00  0.00    +0.000 A 
ATOM     29  O   UNL     1      46.644   4.242  14.801  0.00  0.00    +0.000 OA
ATOM     30  C   UNL     1      48.254   5.214  16.233  0.00  0.00    +0.000 A 
ATOM     31  H   UNL     1      46.411   2.511  16.573  0.00  0.00    +0.000 HD
ENDBRANCH  20  21
BRANCH  20  33
ATOM     32  N   UNL     1      50.312   8.095  12.922  0.00  0.00    +0.000 NA
ATOM     33  C   UNL     1      49.462   7.468  13.408  0.00  0.00    +0.000 C 
ENDBRANCH  20  33
ENDBRANCH  18  20
ENDBRANCH   1  18
TORSDOF 9
ENDMDL
MODEL 4
REMARK VINA RESULT:    -6.505      2.077      3.511
REMARK INTER + INTRA:         -11.294
REMARK INTER:                 -10.241
REMARK INTRA:                  -1.053
REMARK UNBOUND:                -1.366
REMARK  Name = 
REMARK  9 active torsions:
REMARK  status: ('A' for Active; 'I' for Inactive)
REMARK    1  A    between atoms: C_2  and  C_3
REMARK    2  A    between atoms: C_3  and  N_4
REMARK    3  A    between atoms: C_3  and  C_20
REMARK    4  A    between atoms: N_4  and  C_5
REMARK    5  A    between atoms: C_5  and  C_6
REMARK    6  A    between atoms: C_10  and  C_11
REMARK    7  A    between atoms: C_11  and  N_12
REMARK    8  A    between atoms: N_12  and  C_13
REMARK    9  A    between atoms: C_13  and  C_14
REMARK                            x       y       z     vdW  Elec       q    Type
REMARK                         _______ _______ _______ _____ _____    ______ ____
ROOT
ATOM      1  C   UNL     1      46.737   4.100  14.286  0.00  0.00    +0.000 C 
ENDROOT
BRANCH   1   2
ATOM      2  C   UNL     1      46.251   4.782  13.034  0.00  0.00    +0.000 A 
ATOM      3  C   UNL     1      46.757   6.026  12.649  0.00  0.00    +0.000 A 
ATOM      4  C   UNL     1      46.291   6.599  11.478  0.00  0.00    +0.000 A 
ATOM      5  N   UNL     1      45.373   6.023  10.673  0.00  0.00    +0.000 NA
ATOM      6  C   UNL     1      44.888   4.812  11.051  0.00  0.00    +0.000 A 
ATOM      7  C   UNL     1      45.303   4.167  12.214  0.00  0.00    +0.000 A 
BRANCH   6   8
ATOM      8  C   UNL     1      43.908   4.125  10.119  0.00  0.00    +0.000 C 
BRANCH   8   9
ATOM      9  N   UNL     1      44.451   2.928   9.457  0.00  0.00    +0.000 NA
ATOM     10  H   UNL     1      43.692   2.240   9.438  0.00  0.00    +0.000 HD
BRANCH   9  11
ATOM     11  C   UNL     1      44.842   3.206   8.064  0.00  0.00    +0.000 C 
BRANCH  11  12
ATOM     12  C   UNL     1      46.385   3.260   7.931  0.00  0.00    +0.000 C 
ATOM     13  C   UNL     1      46.992   1.907   7.601  0.00  0.00    +0.000 C 
ATOM     14  C   UNL     1      46.803   1.797   6.100  0.00  0.00    +0.000 C 
ATOM     15  C   UNL     1      46.821   3.240   5.607  0.00  0.00    +0.000 C 
ATOM     16  N   UNL     1      46.816   4.095   6.797  0.00  0.00    +0.000 NA
ATOM     17  H   UNL     1      46.143   4.859   6.692  0.00  0.00    +0.000 HD
ENDBRANCH  11  12
ENDBRANCH   9  11
ENDBRANCH   8   9
ENDBRANCH   6   8
ENDBRANCH   1   2
BRANCH   1  18
ATOM     18  N   UNL     1      47.893   4.800  14.847  0.00  0.00    +0.000 NA
ATOM     19  H   UNL     1      47.919   5.738  14.443  0.00  0.00    +0.000 HD
BRANCH  18  20
ATOM     20  C   UNL     1      47.781   4.947  16.310  0.00  0.00    +0.000 C 
BRANCH  20  21
ATOM     21  C   UNL     1      49.192   5.149  16.836  0.00  0.00    +0.000 A 
ATOM     22  C   UNL     1      49.927   4.203  17.538  0.00  0.00    +0.000 A 
ATOM     23  S   UNL     1      51.450   4.777  18.057  0.00  0.00    +0.000 S 
ATOM     24  C   UNL     1      51.204   6.286  17.308  0.00  0.00    +0.000 A 
ATOM     25  N   UNL     1      52.141   7.269  17.370  0.00  0.00    +0.000 NA
ATOM     26  C   UNL     1      51.825   8.345  16.728  0.00  0.00    +0.000 A 
ATOM     27  N   UNL     1      50.659   8.526  16.025  0.00  0.00    +0.000 N 
ATOM     28  C   UNL     1      49.687   7.557  15.925  0.00  0.00    +0.000 A 
ATOM     29  O   UNL     1      48.672   7.712  15.254  0.00  0.00    +0.000 OA
ATOM     30  C   UNL     1      49.986   6.342  16.661  0.00  0.00    +0.000 A 
ATOM     31  H   UNL     1      50.493   9.386  15.521  0.00  0.00    +0.000 HD
ENDBRANCH  20  21
BRANCH  20  33
ATOM     32  N   UNL     1      46.604   2.889  17.501  0.00  0.00    +0.000 NA
ATOM     33  C   UNL     1      47.138   3.785  16.989  0.00  0.00    +0.000 C 
ENDBRANCH  20  33
ENDBRANCH  18  20
ENDBRANCH   1  18
TORSDOF 9
ENDMDL
MODEL 5
REMARK VINA RESULT:    -6.111      3.444      5.727
REMARK INTER + INTRA:         -10.693
REMARK INTER:                  -9.256
REMARK INTRA:                  -1.437
REMARK UNBOUND:                -1.366
REMARK  Name = 
REMARK  9 active torsions:
REMARK  status: ('A' for Active; 'I' for Inactive)
REMARK    1  A    between atoms: C_2  and  C_3
REMARK    2  A    between atoms: C_3  and  N_4
REMARK    3  A    between atoms: C_3  and  C_20
REMARK    4  A    between atoms: N_4  and  C_5
REMARK    5  A    between atoms: C_5  and  C_6
REMARK    6  A    between atoms: C_10  and  C_11
REMARK    7  A    between atoms: C_11  and  N_12
REMARK    8  A    between atoms: N_12  and  C_13
REMARK    9  A    between atoms: C_13  and  C_14
REMARK                            x       y       z     vdW  Elec       q    Type
REMARK                         _______ _______ _______ _____ _____    ______ ____
ROOT
ATOM      1  C   UNL     1      49.734   7.693  16.452  0.00  0.00    +0.000 C 
ENDROOT
BRANCH   1   2
ATOM      2  C   UNL     1      49.402   7.454  15.003  0.00  0.00    +0.000 A 
ATOM      3  C   UNL     1      50.162   8.034  13.985  0.00  0.00    +0.000 A 
ATOM      4  C   UNL     1      49.826   7.765  12.669  0.00  0.00    +0.000 A 
ATOM      5  N   UNL     1      48.802   6.964  12.304  0.00  0.00    +0.000 NA
ATOM      6  C   UNL     1      48.069   6.401  13.299  0.00  0.00    +0.000 A 
ATOM      7  C   UNL     1      48.340   6.620  14.647  0.00  0.00    +0.000 A 
BRANCH   6   8
ATOM      8  C   UNL     1      46.960   5.446  12.900  0.00  0.00    +0.000 C 
BRANCH   8   9
ATOM      9  N   UNL     1      45.720   5.612  13.676  0.00  0.00    +0.000 NA
ATOM     10  H   UNL     1      45.925   6.306  14.400  0.00  0.00    +0.000 HD
BRANCH   9  11
ATOM     11  C   UNL     1      44.623   6.137  12.845  0.00  0.00    +0.000 C 
BRANCH  11  12
ATOM     12  C   UNL     1      43.357   5.258  12.994  0.00  0.00    +0.000 C 
ATOM     13  C   UNL     1      42.591   5.107  11.690  0.00  0.00    +0.000 C 
ATOM     14  C   UNL     1      43.347   4.009  10.967  0.00  0.00    +0.000 C 
ATOM     15  C   UNL     1      43.937   3.153  12.083  0.00  0.00    +0.000 C 
ATOM     16  N   UNL     1      43.685   3.864  13.339  0.00  0.00    +0.000 NA
ATOM     17  H   UNL     1      44.525   3.872  13.926  0.00  0.00    +0.000 HD
ENDBRANCH  11  12
ENDBRANCH   9  11
ENDBRANCH   8   9
ENDBRANCH   6   8
ENDBRANCH   1   2
BRANCH   1  18
ATOM     18  N   UNL     1      48.577   7.414  17.305  0.00  0.00    +0.000 NA
ATOM     19  H   UNL     1      47.873   6.942  16.736  0.00  0.00    +0.000 HD
BRANCH  18  20
ATOM     20  C   UNL     1      48.929   6.514  18.419  0.00  0.00    +0.000 C 
BRANCH  20  21
ATOM     21  C   UNL     1      48.715   5.097  17.916  0.00  0.00    +0.000 A 
ATOM     22  C   UNL     1      47.489   4.550  17.559  0.00  0.00    +0.000 A 
ATOM     23  S   UNL     1      47.585   2.904  17.113  0.00  0.00    +0.000 S 
ATOM     24  C   UNL     1      49.274   2.883  17.322  0.00  0.00    +0.000 A 
ATOM     25  N   UNL     1      50.001   1.755  17.104  0.00  0.00    +0.000 NA
ATOM     26  C   UNL     1      51.274   1.903  17.273  0.00  0.00    +0.000 A 
ATOM     27  N   UNL     1      51.887   3.077  17.636  0.00  0.00    +0.000 N 
ATOM     28  C   UNL     1      51.195   4.246  17.857  0.00  0.00    +0.000 A 
ATOM     29  O   UNL     1      51.756   5.300  18.133  0.00  0.00    +0.000 OA
ATOM     30  C   UNL     1      49.755   4.117  17.710  0.00  0.00    +0.000 A 
ATOM     31  H   UNL     1      52.892   3.125  17.721  0.00  0.00    +0.000 HD
ENDBRANCH  20  21
BRANCH  20  33
ATOM     32  N   UNL     1      47.495   6.895  20.619  0.00  0.00    +0.000 NA
ATOM     33  C   UNL     1      48.135   6.746  19.660  0.00  0.00    +0.000 C 
ENDBRANCH  20  33
ENDBRANCH  18  20
ENDBRANCH   1  18
TORSDOF 9
ENDMDL
MODEL 6
REMARK VINA RESULT:    -6.087      2.064      3.046
REMARK INTER + INTRA:         -10.655
REMARK INTER:                 -10.046
REMARK INTRA:                  -0.609
REMARK UNBOUND:                -1.366
REMARK  Name = 
REMARK  9 active torsions:
REMARK  status: ('A' for Active; 'I' for Inactive)
REMARK    1  A    between atoms: C_2  and  C_3
REMARK    2  A    between atoms: C_3  and  N_4
REMARK    3  A    between atoms: C_3  and  C_20
REMARK    4  A    between atoms: N_4  and  C_5
REMARK    5  A    between atoms: C_5  and  C_6
REMARK    6  A    between atoms: C_10  and  C_11
REMARK    7  A    between atoms: C_11  and  N_12
REMARK    8  A    between atoms: N_12  and  C_13
REMARK    9  A    between atoms: C_13  and  C_14
REMARK                            x       y       z     vdW  Elec       q    Type
REMARK                         _______ _______ _______ _____ _____    ______ ____
ROOT
ATOM      1  C   UNL     1      48.116   6.691  13.345  0.00  0.00    +0.000 C 
ENDROOT
BRANCH   1   2
ATOM      2  C   UNL     1      46.716   6.511  12.820  0.00  0.00    +0.000 A 
ATOM      3  C   UNL     1      46.185   7.385  11.869  0.00  0.00    +0.000 A 
ATOM      4  C   UNL     1      44.899   7.161  11.405  0.00  0.00    +0.000 A 
ATOM      5  N   UNL     1      44.121   6.136  11.815  0.00  0.00    +0.000 NA
ATOM      6  C   UNL     1      44.645   5.288  12.737  0.00  0.00    +0.000 A 
ATOM      7  C   UNL     1      45.929   5.443  13.255  0.00  0.00    +0.000 A 
BRANCH   6   8
ATOM      8  C   UNL     1      43.805   4.096  13.152  0.00  0.00    +0.000 C 
BRANCH   8   9
ATOM      9  N   UNL     1      43.606   3.103  12.084  0.00  0.00    +0.000 NA
ATOM     10  H   UNL     1      42.739   3.365  11.605  0.00  0.00    +0.000 HD
BRANCH   9  11
ATOM     11  C   UNL     1      44.696   3.140  11.094  0.00  0.00    +0.000 C 
BRANCH  11  12
ATOM     12  C   UNL     1      44.148   2.878   9.669  0.00  0.00    +0.000 C 
ATOM     13  C   UNL     1      44.513   3.980   8.689  0.00  0.00    +0.000 C 
ATOM     14  C   UNL     1      45.929   3.627   8.279  0.00  0.00    +0.000 C 
ATOM     15  C   UNL     1      45.998   2.110   8.411  0.00  0.00    +0.000 C 
ATOM     16  N   UNL     1      44.752   1.684   9.053  0.00  0.00    +0.000 NA
ATOM     17  H   UNL     1      44.940   1.004   9.796  0.00  0.00    +0.000 HD
ENDBRANCH  11  12
ENDBRANCH   9  11
ENDBRANCH   8   9
ENDBRANCH   6   8
ENDBRANCH   1   2
BRANCH   1  18
ATOM     18  N   UNL     1      48.098   7.247  14.699  0.00  0.00    +0.000 NA
ATOM     19  H   UNL     1      47.227   6.957  15.146  0.00  0.00    +0.000 HD
BRANCH  18  20
ATOM     20  C   UNL     1      49.213   6.728  15.514  0.00  0.00    +0.000 C 
BRANCH  20  21
ATOM     21  C   UNL     1      48.817   6.925  16.967  0.00  0.00    +0.000 A 
ATOM     22  C   UNL     1      48.384   8.121  17.523  0.00  0.00    +0.000 A 
ATOM     23  S   UNL     1      48.097   8.022  19.205  0.00  0.00    +0.000 S 
ATOM     24  C   UNL     1      48.480   6.364  19.234  0.00  0.00    +0.000 A 
ATOM     25  N   UNL     1      48.439   5.647  20.388  0.00  0.00    +0.000 NA
ATOM     26  C   UNL     1      48.725   4.395  20.246  0.00  0.00    +0.000 A 
ATOM     27  N   UNL     1      49.044   3.793  19.054  0.00  0.00    +0.000 N 
ATOM     28  C   UNL     1      49.089   4.474  17.859  0.00  0.00    +0.000 A 
ATOM     29  O   UNL     1      49.327   3.917  16.793  0.00  0.00    +0.000 OA
ATOM     30  C   UNL     1      48.806   5.894  17.978  0.00  0.00    +0.000 A 
ATOM     31  H   UNL     1      49.228   2.800  19.014  0.00  0.00    +0.000 HD
ENDBRANCH  20  21
BRANCH  20  33
ATOM     32  N   UNL     1      51.549   7.902  15.068  0.00  0.00    +0.000 NA
ATOM     33  C   UNL     1      50.522   7.388  15.241  0.00  0.00    +0.000 C 
ENDBRANCH  20  33
ENDBRANCH  18  20
ENDBRANCH   1  18
TORSDOF 9
ENDMDL
MODEL 7
REMARK VINA RESULT:    -6.012      2.402      3.959
REMARK INTER + INTRA:         -10.541
REMARK INTER:                  -9.642
REMARK INTRA:                  -0.899
REMARK UNBOUND:                -1.366
REMARK  Name = 
REMARK  9 active torsions:
REMARK  status: ('A' for Active; 'I' for Inactive)
REMARK    1  A    between atoms: C_2  and  C_3
REMARK    2  A    between atoms: C_3  and  N_4
REMARK    3  A    between atoms: C_3  and  C_20
REMARK    4  A    between atoms: N_4  and  C_5
REMARK    5  A    between atoms: C_5  and  C_6
REMARK    6  A    between atoms: C_10  and  C_11
REMARK    7  A    between atoms: C_11  and  N_12
REMARK    8  A    between atoms: N_12  and  C_13
REMARK    9  A    between atoms: C_13  and  C_14
REMARK                            x       y       z     vdW  Elec       q    Type
REMARK                         _______ _______ _______ _____ _____    ______ ____
ROOT
ATOM      1  C   UNL     1      48.235   6.601  14.472  0.00  0.00    +0.000 C 
ENDROOT
BRANCH   1   2
ATOM      2  C   UNL     1      47.022   6.513  13.584  0.00  0.00    +0.000 A 
ATOM      3  C   UNL     1      46.673   7.565  12.735  0.00  0.00    +0.000 A 
ATOM      4  C   UNL     1      45.559   7.424  11.924  0.00  0.00    +0.000 A 
ATOM      5  N   UNL     1      44.784   6.319  11.899  0.00  0.00    +0.000 NA
ATOM      6  C   UNL     1      45.131   5.298  12.725  0.00  0.00    +0.000 A 
ATOM      7  C   UNL     1      46.235   5.360  13.572  0.00  0.00    +0.000 A 
BRANCH   6   8
ATOM      8  C   UNL     1      44.307   4.027  12.655  0.00  0.00    +0.000 C 
BRANCH   8   9
ATOM      9  N   UNL     1      43.877   3.666  11.294  0.00  0.00    +0.000 NA
ATOM     10  H   UNL     1      43.552   4.533  10.856  0.00  0.00    +0.000 HD
BRANCH   9  11
ATOM     11  C   UNL     1      44.996   3.146  10.490  0.00  0.00    +0.000 C 
BRANCH  11  12
ATOM     12  C   UNL     1      44.478   2.545   9.159  0.00  0.00    +0.000 C 
ATOM     13  C   UNL     1      44.795   3.421   7.958  0.00  0.00    +0.000 C 
ATOM     14  C   UNL     1      46.232   3.061   7.635  0.00  0.00    +0.000 C 
ATOM     15  C   UNL     1      46.379   1.617   8.100  0.00  0.00    +0.000 C 
ATOM     16  N   UNL     1      45.149   1.278   8.822  0.00  0.00    +0.000 NA
ATOM     17  H   UNL     1      45.365   0.791   9.697  0.00  0.00    +0.000 HD
ENDBRANCH  11  12
ENDBRANCH   9  11
ENDBRANCH   8   9
ENDBRANCH   6   8
ENDBRANCH   1   2
BRANCH   1  18
ATOM     18  N   UNL     1      48.494   5.319  15.129  0.00  0.00    +0.000 NA
ATOM     19  H   UNL     1      49.498   5.136  15.077  0.00  0.00    +0.000 HD
BRANCH  18  20
ATOM     20  C   UNL     1      48.120   5.355  16.555  0.00  0.00    +0.000 C 
BRANCH  20  21
ATOM     21  C   UNL     1      49.416   5.433  17.343  0.00  0.00    +0.000 A 
ATOM     22  C   UNL     1      50.365   4.422  17.425  0.00  0.00    +0.000 A 
ATOM     23  S   UNL     1      51.670   4.799  18.461  0.00  0.00    +0.000 S 
ATOM     24  C   UNL     1      51.043   6.349  18.785  0.00  0.00    +0.000 A 
ATOM     25  N   UNL     1      51.683   7.212  19.618  0.00  0.00    +0.000 NA
ATOM     26  C   UNL     1      51.103   8.360  19.740  0.00  0.00    +0.000 A 
ATOM     27  N   UNL     1      49.944   8.726  19.102  0.00  0.00    +0.000 N 
ATOM     28  C   UNL     1      49.267   7.892  18.242  0.00  0.00    +0.000 A 
ATOM     29  O   UNL     1      48.260   8.246  17.639  0.00  0.00    +0.000 OA
ATOM     30  C   UNL     1      49.867   6.576  18.101  0.00  0.00    +0.000 A 
ATOM     31  H   UNL     1      49.563   9.654  19.223  0.00  0.00    +0.000 HD
ENDBRANCH  20  21
BRANCH  20  33
ATOM     32  N   UNL     1      46.658   3.279  17.325  0.00  0.00    +0.000 NA
ATOM     33  C   UNL     1      47.315   4.181  17.001  0.00  0.00    +0.000 C 
ENDBRANCH  20  33
ENDBRANCH  18  20
ENDBRANCH   1  18
TORSDOF 9
ENDMDL
MODEL 8
REMARK VINA RESULT:    -6.003      2.161      3.204
REMARK INTER + INTRA:         -10.528
REMARK INTER:                  -9.297
REMARK INTRA:                  -1.230
REMARK UNBOUND:                -1.366
REMARK  Name = 
REMARK  9 active torsions:
REMARK  status: ('A' for Active; 'I' for Inactive)
REMARK    1  A    between atoms: C_2  and  C_3
REMARK    2  A    between atoms: C_3  and  N_4
REMARK    3  A    between atoms: C_3  and  C_20
REMARK    4  A    between atoms: N_4  and  C_5
REMARK    5  A    between atoms: C_5  and  C_6
REMARK    6  A    between atoms: C_10  and  C_11
REMARK    7  A    between atoms: C_11  and  N_12
REMARK    8  A    between atoms: N_12  and  C_13
REMARK    9  A    between atoms: C_13  and  C_14
REMARK                            x       y       z     vdW  Elec       q    Type
REMARK                         _______ _______ _______ _____ _____    ______ ____
ROOT
ATOM      1  C   UNL     1      48.562   7.365  13.771  0.00  0.00    +0.000 C 
ENDROOT
BRANCH   1   2
ATOM      2  C   UNL     1      47.524   6.275  13.725  0.00  0.00    +0.000 A 
ATOM      3  C   UNL     1      47.524   5.241  14.665  0.00  0.00    +0.000 A 
ATOM      4  C   UNL     1      46.534   4.275  14.590  0.00  0.00    +0.000 A 
ATOM      5  N   UNL     1      45.556   4.273  13.659  0.00  0.00    +0.000 NA
ATOM      6  C   UNL     1      45.560   5.282  12.751  0.00  0.00    +0.000 A 
ATOM      7  C   UNL     1      46.520   6.292  12.756  0.00  0.00    +0.000 A 
BRANCH   6   8
ATOM      8  C   UNL     1      44.427   5.327  11.744  0.00  0.00    +0.000 C 
BRANCH   8   9
ATOM      9  N   UNL     1      44.786   4.806  10.415  0.00  0.00    +0.000 NA
ATOM     10  H   UNL     1      45.672   5.253  10.161  0.00  0.00    +0.000 HD
BRANCH   9  11
ATOM     11  C   UNL     1      45.008   3.350  10.442  0.00  0.00    +0.000 C 
BRANCH  11  12
ATOM     12  C   UNL     1      44.445   2.689   9.159  0.00  0.00    +0.000 C 
ATOM     13  C   UNL     1      44.793   3.465   7.900  0.00  0.00    +0.000 C 
ATOM     14  C   UNL     1      46.207   3.012   7.590  0.00  0.00    +0.000 C 
ATOM     15  C   UNL     1      46.285   1.596   8.151  0.00  0.00    +0.000 C 
ATOM     16  N   UNL     1      45.048   1.370   8.903  0.00  0.00    +0.000 NA
ATOM     17  H   UNL     1      45.248   0.932   9.807  0.00  0.00    +0.000 HD
ENDBRANCH  11  12
ENDBRANCH   9  11
ENDBRANCH   8   9
ENDBRANCH   6   8
ENDBRANCH   1   2
BRANCH   1  18
ATOM     18  N   UNL     1      49.826   6.860  14.310  0.00  0.00    +0.000 NA
ATOM     19  H   UNL     1      50.459   6.697  13.526  0.00  0.00    +0.000 HD
BRANCH  18  20
ATOM     20  C   UNL     1      50.465   7.843  15.204  0.00  0.00    +0.000 C 
BRANCH  20  21
ATOM     21  C   UNL     1      49.531   8.024  16.388  0.00  0.00    +0.000 A 
ATOM     22  C   UNL     1      48.755   9.150  16.630  0.00  0.00    +0.000 A 
ATOM     23  S   UNL     1      47.877   9.066  18.094  0.00  0.00    +0.000 S 
ATOM     24  C   UNL     1      48.456   7.499  18.422  0.00  0.00    +0.000 A 
ATOM     25  N   UNL     1      48.089   6.829  19.546  0.00  0.00    +0.000 NA
ATOM     26  C   UNL     1      48.584   5.639  19.640  0.00  0.00    +0.000 A 
ATOM     27  N   UNL     1      49.409   5.056  18.711  0.00  0.00    +0.000 N 
ATOM     28  C   UNL     1      49.798   5.690  17.553  0.00  0.00    +0.000 A 
ATOM     29  O   UNL     1      50.495   5.142  16.706  0.00  0.00    +0.000 OA
ATOM     30  C   UNL     1      49.291   7.045  17.422  0.00  0.00    +0.000 A 
ATOM     31  H   UNL     1      49.734   4.108  18.837  0.00  0.00    +0.000 HD
ENDBRANCH  20  21
BRANCH  20  33
ATOM     32  N   UNL     1      50.980  10.195  14.091  0.00  0.00    +0.000 NA
ATOM     33  C   UNL     1      50.743   9.159  14.560  0.00  0.00    +0.000 C 
ENDBRANCH  20  33
ENDBRANCH  18  20
ENDBRANCH   1  18
TORSDOF 9
ENDMDL
MODEL 9
REMARK VINA RESULT:    -5.939      2.342      3.798
REMARK INTER + INTRA:         -10.430
REMARK INTER:                 -10.548
REMARK INTRA:                   0.118
REMARK UNBOUND:                -1.366
REMARK  Name = 
REMARK  9 active torsions:
REMARK  status: ('A' for Active; 'I' for Inactive)
REMARK    1  A    between atoms: C_2  and  C_3
REMARK    2  A    between atoms: C_3  and  N_4
REMARK    3  A    between atoms: C_3  and  C_20
REMARK    4  A    between atoms: N_4  and  C_5
REMARK    5  A    between atoms: C_5  and  C_6
REMARK    6  A    between atoms: C_10  and  C_11
REMARK    7  A    between atoms: C_11  and  N_12
REMARK    8  A    between atoms: N_12  and  C_13
REMARK    9  A    between atoms: C_13  and  C_14
REMARK                            x       y       z     vdW  Elec       q    Type
REMARK                         _______ _______ _______ _____ _____    ______ ____
ROOT
ATOM      1  C   UNL     1      48.063   6.115  14.797  0.00  0.00    +0.000 C 
ENDROOT
BRANCH   1   2
ATOM      2  C   UNL     1      47.143   5.273  13.953  0.00  0.00    +0.000 A 
ATOM      3  C   UNL     1      47.225   3.879  13.970  0.00  0.00    +0.000 A 
ATOM      4  C   UNL     1      46.341   3.152  13.190  0.00  0.00    +0.000 A 
ATOM      5  N   UNL     1      45.391   3.712  12.411  0.00  0.00    +0.000 NA
ATOM      6  C   UNL     1      45.314   5.067  12.403  0.00  0.00    +0.000 A 
ATOM      7  C   UNL     1      46.166   5.872  13.156  0.00  0.00    +0.000 A 
BRANCH   6   8
ATOM      8  C   UNL     1      44.207   5.704  11.584  0.00  0.00    +0.000 C 
BRANCH   8   9
ATOM      9  N   UNL     1      44.499   5.785  10.144  0.00  0.00    +0.000 NA
ATOM     10  H   UNL     1      45.003   6.666  10.002  0.00  0.00    +0.000 HD
BRANCH   9  11
ATOM     11  C   UNL     1      45.377   4.688   9.702  0.00  0.00    +0.000 C 
BRANCH  11  12
ATOM     12  C   UNL     1      44.755   3.946   8.492  0.00  0.00    +0.000 C 
ATOM     13  C   UNL     1      45.771   3.652   7.401  0.00  0.00    +0.000 C 
ATOM     14  C   UNL     1      46.462   2.397   7.897  0.00  0.00    +0.000 C 
ATOM     15  C   UNL     1      45.405   1.685   8.734  0.00  0.00    +0.000 C 
ATOM     16  N   UNL     1      44.269   2.604   8.853  0.00  0.00    +0.000 NA
ATOM     17  H   UNL     1      43.930   2.638   9.819  0.00  0.00    +0.000 HD
ENDBRANCH  11  12
ENDBRANCH   9  11
ENDBRANCH   8   9
ENDBRANCH   6   8
ENDBRANCH   1   2
BRANCH   1  18
ATOM     18  N   UNL     1      48.764   5.293  15.784  0.00  0.00    +0.000 NA
ATOM     19  H   UNL     1      49.688   5.699  15.933  0.00  0.00    +0.000 HD
BRANCH  18  20
ATOM     20  C   UNL     1      48.063   5.288  17.082  0.00  0.00    +0.000 C 
BRANCH  20  21
ATOM     21  C   UNL     1      49.132   5.426  18.153  0.00  0.00    +0.000 A 
ATOM     22  C   UNL     1      49.149   6.395  19.148  0.00  0.00    +0.000 A 
ATOM     23  S   UNL     1      50.536   6.321  20.142  0.00  0.00    +0.000 S 
ATOM     24  C   UNL     1      51.129   4.954  19.318  0.00  0.00    +0.000 A 
ATOM     25  N   UNL     1      52.306   4.371  19.669  0.00  0.00    +0.000 NA
ATOM     26  C   UNL     1      52.608   3.325  18.972  0.00  0.00    +0.000 A 
ATOM     27  N   UNL     1      51.839   2.807  17.959  0.00  0.00    +0.000 N 
ATOM     28  C   UNL     1      50.636   3.356  17.576  0.00  0.00    +0.000 A 
ATOM     29  O   UNL     1      49.934   2.857  16.704  0.00  0.00    +0.000 OA
ATOM     30  C   UNL     1      50.273   4.555  18.312  0.00  0.00    +0.000 A 
ATOM     31  H   UNL     1      52.125   1.967  17.477  0.00  0.00    +0.000 HD
ENDBRANCH  20  21
BRANCH  20  33
ATOM     32  N   UNL     1      46.623   3.110  17.550  0.00  0.00    +0.000 NA
ATOM     33  C   UNL     1      47.244   4.066  17.325  0.00  0.00    +0.000 C 
ENDBRANCH  20  33
ENDBRANCH  18  20
ENDBRANCH   1  18
TORSDOF 9
ENDMDL
