MODEL 1
REMARK VINA RESULT:    -8.329      0.000      0.000
REMARK INTER + INTRA:         -12.499
REMARK INTER:                 -11.251
REMARK INTRA:                  -1.249
REMARK UNBOUND:                -1.249
REMARK  Name = 
REMARK  7 active torsions:
REMARK  status: ('A' for Active; 'I' for Inactive)
REMARK    1  A    between atoms: C_1  and  O_2
REMARK    2  A    between atoms: O_2  and  C_3
REMARK    3  A    between atoms: C_5  and  C_6
REMARK    4  A    between atoms: C_11  and  N_12
REMARK    5  A    between atoms: N_12  and  C_13
REMARK    6  A    between atoms: C_13  and  C_14
REMARK    7  A    between atoms: C_18  and  C_19
REMARK                            x       y       z     vdW  Elec       q    Type
REMARK                         _______ _______ _______ _____ _____    ______ ____
ROOT
ATOM      1  N   UNL     1      44.327   6.933  12.542  0.00  0.00    +0.000 N 
ATOM      2  H   UNL     1      43.808   7.140  13.383  0.00  0.00    +0.000 HD
ENDROOT
BRANCH   1   8
ATOM      3  C   UNL     1      46.556   6.128  13.265  0.00  0.00    +0.000 A 
ATOM      4  C   UNL     1      47.932   6.379  13.273  0.00  0.00    +0.000 A 
ATOM      5  C   UNL     1      48.443   7.539  12.695  0.00  0.00    +0.000 A 
ATOM      6  C   UNL     1      47.533   8.404  12.117  0.00  0.00    +0.000 A 
ATOM      7  N   UNL     1      46.188   8.188  12.077  0.00  0.00    +0.000 NA
ATOM      8  C   UNL     1      45.696   7.058  12.642  0.00  0.00    +0.000 A 
BRANCH   5   9
ATOM      9  C   UNL     1      49.911   7.754  12.748  0.00  0.00    +0.000 C 
ATOM     10  N   UNL     1      50.685   7.371  11.690  0.00  0.00    +0.000 N 
ATOM     11  O   UNL     1      50.433   8.275  13.725  0.00  0.00    +0.000 OA
ATOM     12  H   UNL     1      50.360   6.929  10.845  0.00  0.00    +0.000 HD
ATOM     13  H   UNL     1      51.679   7.543  11.778  0.00  0.00    +0.000 HD
ENDBRANCH   5   9
BRANCH   3  15
ATOM     14  C   UNL     1      46.645   3.751  13.478  0.00  0.00    +0.000 C 
ATOM     15  O   UNL     1      46.022   4.987  13.809  0.00  0.00    +0.000 OA
ENDBRANCH   3  15
ENDBRANCH   1   8
BRANCH   1  16
ATOM     16  C   UNL     1      43.659   6.412  11.378  0.00  0.00    +0.000 C 
BRANCH  16  17
ATOM     17  C   UNL     1      43.927   4.945  11.131  0.00  0.00    +0.000 A 
ATOM     18  C   UNL     1      43.195   3.967  11.811  0.00  0.00    +0.000 A 
ATOM     19  C   UNL     1      43.311   2.628  11.445  0.00  0.00    +0.000 A 
ATOM     20  C   UNL     1      44.154   2.258  10.392  0.00  0.00    +0.000 A 
ATOM     21  C   UNL     1      44.904   3.210   9.681  0.00  0.00    +0.000 A 
ATOM     22  C   UNL     1      44.800   4.551  10.099  0.00  0.00    +0.000 A 
BRANCH  21  23
ATOM     23  C   UNL     1      45.681   2.845   8.470  0.00  0.00    +0.000 A 
ATOM     24  C   UNL     1      46.013   3.818   7.505  0.00  0.00    +0.000 A 
ATOM     25  C   UNL     1      46.820   3.514   6.405  0.00  0.00    +0.000 A 
ATOM     26  C   UNL     1      47.315   2.228   6.257  0.00  0.00    +0.000 A 
ATOM     27  F   UNL     1      48.113   1.941   5.221  0.00  0.00    +0.000 F 
ATOM     28  C   UNL     1      47.000   1.238   7.177  0.00  0.00    +0.000 A 
ATOM     29  C   UNL     1      46.182   1.543   8.271  0.00  0.00    +0.000 A 
ENDBRANCH  21  23
ENDBRANCH  16  17
ENDBRANCH   1  16
TORSDOF 6
ENDMDL
MODEL 2
REMARK VINA RESULT:    -8.117      4.061      7.265
REMARK INTER + INTRA:         -12.212
REMARK INTER:                 -11.342
REMARK INTRA:                  -0.871
REMARK UNBOUND:                -1.249
REMARK  Name = 
REMARK  7 active torsions:
REMARK  status: ('A' for Active; 'I' for Inactive)
REMARK    1  A    between atoms: C_1  and  O_2
REMARK    2  A    between atoms: O_2  and  C_3
REMARK    3  A    between atoms: C_5  and  C_6
REMARK    4  A    between atoms: C_11  and  N_12
REMARK    5  A    between atoms: N_12  and  C_13
REMARK    6  A    between atoms: C_13  and  C_14
REMARK    7  A    between atoms: C_18  and  C_19
REMARK                            x       y       z     vdW  Elec       q    Type
REMARK                         _______ _______ _______ _____ _____    ______ ____
ROOT
ATOM      1  N   UNL     1      43.783   5.520  10.250  0.00  0.00    +0.000 N 
ATOM      2  H   UNL     1      43.214   6.059   9.612  0.00  0.00    +0.000 HD
ENDROOT
BRANCH   1   8
ATOM      3  C   UNL     1      44.216   3.090  10.029  0.00  0.00    +0.000 A 
ATOM      4  C   UNL     1      44.947   2.099   9.367  0.00  0.00    +0.000 A 
ATOM      5  C   UNL     1      45.898   2.443   8.410  0.00  0.00    +0.000 A 
ATOM      6  C   UNL     1      46.067   3.790   8.150  0.00  0.00    +0.000 A 
ATOM      7  N   UNL     1      45.365   4.784   8.763  0.00  0.00    +0.000 NA
ATOM      8  C   UNL     1      44.441   4.443   9.695  0.00  0.00    +0.000 A 
BRANCH   5   9
ATOM      9  C   UNL     1      46.651   1.345   7.751  0.00  0.00    +0.000 C 
ATOM     10  N   UNL     1      47.626   1.649   6.844  0.00  0.00    +0.000 N 
ATOM     11  O   UNL     1      46.413   0.174   8.018  0.00  0.00    +0.000 OA
ATOM     12  H   UNL     1      47.896   2.573   6.548  0.00  0.00    +0.000 HD
ATOM     13  H   UNL     1      48.110   0.863   6.428  0.00  0.00    +0.000 HD
ENDBRANCH   5   9
BRANCH   3  15
ATOM     14  C   UNL     1      43.703   2.510  12.288  0.00  0.00    +0.000 C 
ATOM     15  O   UNL     1      43.259   2.785  10.964  0.00  0.00    +0.000 OA
ENDBRANCH   3  15
ENDBRANCH   1   8
BRANCH   1  16
ATOM     16  C   UNL     1      43.978   5.958  11.607  0.00  0.00    +0.000 C 
BRANCH  16  17
ATOM     17  C   UNL     1      45.431   6.064  12.007  0.00  0.00    +0.000 A 
ATOM     18  C   UNL     1      46.295   6.919  11.317  0.00  0.00    +0.000 A 
ATOM     19  C   UNL     1      47.578   7.157  11.804  0.00  0.00    +0.000 A 
ATOM     20  C   UNL     1      48.006   6.546  12.987  0.00  0.00    +0.000 A 
ATOM     21  C   UNL     1      47.166   5.682  13.713  0.00  0.00    +0.000 A 
ATOM     22  C   UNL     1      45.889   5.427  13.176  0.00  0.00    +0.000 A 
BRANCH  21  23
ATOM     23  C   UNL     1      47.557   5.152  15.043  0.00  0.00    +0.000 A 
ATOM     24  C   UNL     1      47.200   3.843  15.431  0.00  0.00    +0.000 A 
ATOM     25  C   UNL     1      47.635   3.294  16.641  0.00  0.00    +0.000 A 
ATOM     26  C   UNL     1      48.441   4.045  17.481  0.00  0.00    +0.000 A 
ATOM     27  F   UNL     1      48.884   3.510  18.626  0.00  0.00    +0.000 F 
ATOM     28  C   UNL     1      48.802   5.342  17.143  0.00  0.00    +0.000 A 
ATOM     29  C   UNL     1      48.356   5.893  15.936  0.00  0.00    +0.000 A 
ENDBRANCH  21  23
ENDBRANCH  16  17
ENDBRANCH   1  16
TORSDOF 6
ENDMDL
MODEL 3
REMARK VINA RESULT:    -7.799      3.536      6.596
REMARK INTER + INTRA:         -11.783
REMARK INTER:                 -10.983
REMARK INTRA:                  -0.800
REMARK UNBOUND:                -1.249
REMARK  Name = 
REMARK  7 active torsions:
REMARK  status: ('A' for Active; 'I' for Inactive)
REMARK    1  A    between atoms: C_1  and  O_2
REMARK    2  A    between atoms: O_2  and  C_3
REMARK    3  A    between atoms: C_5  and  C_6
REMARK    4  A    between atoms: C_11  and  N_12
REMARK    5  A    between atoms: N_12  and  C_13
REMARK    6  A    between atoms: C_13  and  C_14
REMARK    7  A    between atoms: C_18  and  C_19
REMARK                            x       y       z     vdW  Elec       q    Type
REMARK                         _______ _______ _______ _____ _____    ______ ____
ROOT
ATOM      1  N   UNL     1      44.022   5.579   9.998  0.00  0.00    +0.000 N 
ATOM      2  H   UNL     1      43.802   6.301   9.327  0.00  0.00    +0.000 HD
ENDROOT
BRANCH   1   8
ATOM      3  C   UNL     1      44.323   3.127   9.811  0.00  0.00    +0.000 A 
ATOM      4  C   UNL     1      45.033   2.090   9.196  0.00  0.00    +0.000 A 
ATOM      5  C   UNL     1      46.057   2.372   8.295  0.00  0.00    +0.000 A 
ATOM      6  C   UNL     1      46.320   3.705   8.041  0.00  0.00    +0.000 A 
ATOM      7  N   UNL     1      45.643   4.741   8.610  0.00  0.00    +0.000 NA
ATOM      8  C   UNL     1      44.647   4.462   9.486  0.00  0.00    +0.000 A 
BRANCH   5   9
ATOM      9  C   UNL     1      46.782   1.227   7.686  0.00  0.00    +0.000 C 
ATOM     10  N   UNL     1      47.826   1.467   6.839  0.00  0.00    +0.000 N 
ATOM     11  O   UNL     1      46.459   0.074   7.941  0.00  0.00    +0.000 OA
ATOM     12  H   UNL     1      48.168   2.372   6.558  0.00  0.00    +0.000 HD
ATOM     13  H   UNL     1      48.286   0.652   6.455  0.00  0.00    +0.000 HD
ENDBRANCH   5   9
BRANCH   3  15
ATOM     14  C   UNL     1      43.628   2.261  11.925  0.00  0.00    +0.000 C 
ATOM     15  O   UNL     1      43.297   2.884  10.689  0.00  0.00    +0.000 OA
ENDBRANCH   3  15
ENDBRANCH   1   8
BRANCH   1  16
ATOM     16  C   UNL     1      43.806   5.796  11.404  0.00  0.00    +0.000 C 
BRANCH  16  17
ATOM     17  C   UNL     1      45.084   5.905  12.204  0.00  0.00    +0.000 A 
ATOM     18  C   UNL     1      45.416   4.928  13.147  0.00  0.00    +0.000 A 
ATOM     19  C   UNL     1      46.675   4.932  13.741  0.00  0.00    +0.000 A 
ATOM     20  C   UNL     1      47.615   5.908  13.393  0.00  0.00    +0.000 A 
ATOM     21  C   UNL     1      47.322   6.905  12.447  0.00  0.00    +0.000 A 
ATOM     22  C   UNL     1      46.027   6.904  11.893  0.00  0.00    +0.000 A 
BRANCH  21  23
ATOM     23  C   UNL     1      48.360   7.850  11.963  0.00  0.00    +0.000 A 
ATOM     24  C   UNL     1      48.061   9.215  11.775  0.00  0.00    +0.000 A 
ATOM     25  C   UNL     1      49.047  10.136  11.407  0.00  0.00    +0.000 A 
ATOM     26  C   UNL     1      50.351   9.705  11.227  0.00  0.00    +0.000 A 
ATOM     27  F   UNL     1      51.303  10.590  10.904  0.00  0.00    +0.000 F 
ATOM     28  C   UNL     1      50.683   8.367  11.388  0.00  0.00    +0.000 A 
ATOM     29  C   UNL     1      49.692   7.445  11.745  0.00  0.00    +0.000 A 
ENDBRANCH  21  23
ENDBRANCH  16  17
ENDBRANCH   1  16
TORSDOF 6
ENDMDL
MODEL 4
REMARK VINA RESULT:    -7.560      1.594      2.158
REMARK INTER + INTRA:         -11.461
REMARK INTER:                 -10.720
REMARK INTRA:                  -0.741
REMARK UNBOUND:                -1.249
REMARK  Name = 
REMARK  7 active torsions:
REMARK  status: ('A' for Active; 'I' for Inactive)
REMARK    1  A    between atoms: C_1  and  O_2
REMARK    2  A    between atoms: O_2  and  C_3
REMARK    3  A    between atoms: C_5  and  C_6
REMARK    4  A    between atoms: C_11  and  N_12
REMARK    5  A    between atoms: N_12  and  C_13
REMARK    6  A    between atoms: C_13  and  C_14
REMARK    7  A    between atoms: C_18  and  C_19
REMARK                            x       y       z     vdW  Elec       q    Type
REMARK                         _______ _______ _______ _____ _____    ______ ____
ROOT
ATOM      1  N   UNL     1      44.869   7.167  11.050  0.00  0.00    +0.000 N 
ATOM      2  H   UNL     1      44.932   7.689  10.188  0.00  0.00    +0.000 HD
ENDROOT
BRANCH   1   8
ATOM      3  C   UNL     1      46.004   8.592  12.730  0.00  0.00    +0.000 A 
ATOM      4  C   UNL     1      47.062   8.692  13.639  0.00  0.00    +0.000 A 
ATOM      5  C   UNL     1      47.979   7.653  13.774  0.00  0.00    +0.000 A 
ATOM      6  C   UNL     1      47.783   6.537  12.982  0.00  0.00    +0.000 A 
ATOM      7  N   UNL     1      46.759   6.397  12.095  0.00  0.00    +0.000 NA
ATOM      8  C   UNL     1      45.869   7.412  11.967  0.00  0.00    +0.000 A 
BRANCH   5   9
ATOM      9  C   UNL     1      49.088   7.826  14.747  0.00  0.00    +0.000 C 
ATOM     10  N   UNL     1      50.337   7.372  14.431  0.00  0.00    +0.000 N 
ATOM     11  O   UNL     1      48.896   8.375  15.825  0.00  0.00    +0.000 OA
ATOM     12  H   UNL     1      50.601   6.903  13.580  0.00  0.00    +0.000 HD
ATOM     13  H   UNL     1      51.055   7.518  15.129  0.00  0.00    +0.000 HD
ENDBRANCH   5   9
BRANCH   3  15
ATOM     14  C   UNL     1      45.456  10.739  11.839  0.00  0.00    +0.000 C 
ATOM     15  O   UNL     1      45.073   9.589  12.585  0.00  0.00    +0.000 OA
ENDBRANCH   3  15
ENDBRANCH   1   8
BRANCH   1  16
ATOM     16  C   UNL     1      43.725   6.337  11.323  0.00  0.00    +0.000 C 
BRANCH  16  17
ATOM     17  C   UNL     1      43.968   4.867  11.068  0.00  0.00    +0.000 A 
ATOM     18  C   UNL     1      43.217   3.898  11.740  0.00  0.00    +0.000 A 
ATOM     19  C   UNL     1      43.310   2.560  11.365  0.00  0.00    +0.000 A 
ATOM     20  C   UNL     1      44.149   2.181  10.313  0.00  0.00    +0.000 A 
ATOM     21  C   UNL     1      44.918   3.125   9.609  0.00  0.00    +0.000 A 
ATOM     22  C   UNL     1      44.837   4.465  10.036  0.00  0.00    +0.000 A 
BRANCH  21  23
ATOM     23  C   UNL     1      45.692   2.753   8.399  0.00  0.00    +0.000 A 
ATOM     24  C   UNL     1      45.957   3.705   7.392  0.00  0.00    +0.000 A 
ATOM     25  C   UNL     1      46.761   3.399   6.289  0.00  0.00    +0.000 A 
ATOM     26  C   UNL     1      47.317   2.135   6.180  0.00  0.00    +0.000 A 
ATOM     27  F   UNL     1      48.112   1.850   5.140  0.00  0.00    +0.000 F 
ATOM     28  C   UNL     1      47.069   1.166   7.141  0.00  0.00    +0.000 A 
ATOM     29  C   UNL     1      46.255   1.471   8.238  0.00  0.00    +0.000 A 
ENDBRANCH  21  23
ENDBRANCH  16  17
ENDBRANCH   1  16
TORSDOF 6
ENDMDL
MODEL 5
REMARK VINA RESULT:    -7.484      3.492      4.186
REMARK INTER + INTRA:         -11.358
REMARK INTER:                 -10.629
REMARK INTRA:                  -0.728
REMARK UNBOUND:                -1.249
REMARK  Name = 
REMARK  7 active torsions:
REMARK  status: ('A' for Active; 'I' for Inactive)
REMARK    1  A    between atoms: C_1  and  O_2
REMARK    2  A    between atoms: O_2  and  C_3
REMARK    3  A    between atoms: C_5  and  C_6
REMARK    4  A    between atoms: C_11  and  N_12
REMARK    5  A    between atoms: N_12  and  C_13
REMARK    6  A    between atoms: C_13  and  C_14
REMARK    7  A    between atoms: C_18  and  C_19
REMARK                            x       y       z     vdW  Elec       q    Type
REMARK                         _______ _______ _______ _____ _____    ______ ____
ROOT
ATOM      1  N   UNL     1      46.794   4.527  14.132  0.00  0.00    +0.000 N 
ATOM      2  H   UNL     1      47.114   3.807  13.500  0.00  0.00    +0.000 HD
ENDROOT
BRANCH   1   8
ATOM      3  C   UNL     1      48.456   5.385  15.757  0.00  0.00    +0.000 A 
ATOM      4  C   UNL     1      48.952   5.297  17.062  0.00  0.00    +0.000 A 
ATOM      5  C   UNL     1      48.422   4.374  17.960  0.00  0.00    +0.000 A 
ATOM      6  C   UNL     1      47.393   3.574  17.501  0.00  0.00    +0.000 A 
ATOM      7  N   UNL     1      46.873   3.638  16.244  0.00  0.00    +0.000 NA
ATOM      8  C   UNL     1      47.393   4.538  15.373  0.00  0.00    +0.000 A 
BRANCH   5   9
ATOM      9  C   UNL     1      49.002   4.321  19.326  0.00  0.00    +0.000 C 
ATOM     10  N   UNL     1      48.350   3.629  20.306  0.00  0.00    +0.000 N 
ATOM     11  O   UNL     1      50.059   4.884  19.581  0.00  0.00    +0.000 OA
ATOM     12  H   UNL     1      47.475   3.139  20.207  0.00  0.00    +0.000 HD
ATOM     13  H   UNL     1      48.790   3.624  21.218  0.00  0.00    +0.000 HD
ENDBRANCH   5   9
BRANCH   3  15
ATOM     14  C   UNL     1      48.610   7.663  15.059  0.00  0.00    +0.000 C 
ATOM     15  O   UNL     1      48.943   6.295  14.853  0.00  0.00    +0.000 OA
ENDBRANCH   3  15
ENDBRANCH   1   8
BRANCH   1  16
ATOM     16  C   UNL     1      45.873   5.539  13.684  0.00  0.00    +0.000 C 
BRANCH  16  17
ATOM     17  C   UNL     1      44.954   5.075  12.578  0.00  0.00    +0.000 A 
ATOM     18  C   UNL     1      43.633   5.530  12.518  0.00  0.00    +0.000 A 
ATOM     19  C   UNL     1      42.850   5.253  11.400  0.00  0.00    +0.000 A 
ATOM     20  C   UNL     1      43.383   4.525  10.331  0.00  0.00    +0.000 A 
ATOM     21  C   UNL     1      44.707   4.053  10.351  0.00  0.00    +0.000 A 
ATOM     22  C   UNL     1      45.463   4.311  11.511  0.00  0.00    +0.000 A 
BRANCH  21  23
ATOM     23  C   UNL     1      45.325   3.412   9.163  0.00  0.00    +0.000 A 
ATOM     24  C   UNL     1      45.775   4.191   8.077  0.00  0.00    +0.000 A 
ATOM     25  C   UNL     1      46.441   3.616   6.990  0.00  0.00    +0.000 A 
ATOM     26  C   UNL     1      46.671   2.250   6.976  0.00  0.00    +0.000 A 
ATOM     27  F   UNL     1      47.335   1.701   5.950  0.00  0.00    +0.000 F 
ATOM     28  C   UNL     1      46.231   1.447   8.018  0.00  0.00    +0.000 A 
ATOM     29  C   UNL     1      45.555   2.024   9.100  0.00  0.00    +0.000 A 
ENDBRANCH  21  23
ENDBRANCH  16  17
ENDBRANCH   1  16
TORSDOF 6
ENDMDL
MODEL 6
REMARK VINA RESULT:    -7.261      3.786      7.123
REMARK INTER + INTRA:         -11.056
REMARK INTER:                 -10.517
REMARK INTRA:                  -0.540
REMARK UNBOUND:                -1.249
REMARK  Name = 
REMARK  7 active torsions:
REMARK  status: ('A' for Active; 'I' for Inactive)
REMARK    1  A    between atoms: C_1  and  O_2
REMARK    2  A    between atoms: O_2  and  C_3
REMARK    3  A    between atoms: C_5  and  C_6
REMARK    4  A    between atoms: C_11  and  N_12
REMARK    5  A    between atoms: N_12  and  C_13
REMARK    6  A    between atoms: C_13  and  C_14
REMARK    7  A    between atoms: C_18  and  C_19
REMARK                            x       y       z     vdW  Elec       q    Type
REMARK                         _______ _______ _______ _____ _____    ______ ____
ROOT
ATOM      1  N   UNL     1      44.059   5.255   9.895  0.00  0.00    +0.000 N 
ATOM      2  H   UNL     1      43.484   5.789   9.258  0.00  0.00    +0.000 HD
ENDROOT
BRANCH   1   8
ATOM      3  C   UNL     1      44.520   2.834   9.637  0.00  0.00    +0.000 A 
ATOM      4  C   UNL     1      45.277   1.863   8.974  0.00  0.00    +0.000 A 
ATOM      5  C   UNL     1      46.249   2.235   8.048  0.00  0.00    +0.000 A 
ATOM      6  C   UNL     1      46.412   3.589   7.820  0.00  0.00    +0.000 A 
ATOM      7  N   UNL     1      45.685   4.563   8.436  0.00  0.00    +0.000 NA
ATOM      8  C   UNL     1      44.741   4.195   9.336  0.00  0.00    +0.000 A 
BRANCH   5   9
ATOM      9  C   UNL     1      47.029   1.157   7.388  0.00  0.00    +0.000 C 
ATOM     10  N   UNL     1      46.764  -0.147   7.693  0.00  0.00    +0.000 N 
ATOM     11  O   UNL     1      47.901   1.425   6.571  0.00  0.00    +0.000 OA
ATOM     12  H   UNL     1      46.077  -0.476   8.352  0.00  0.00    +0.000 HD
ATOM     13  H   UNL     1      47.323  -0.841   7.212  0.00  0.00    +0.000 HD
ENDBRANCH   5   9
BRANCH   3  15
ATOM     14  C   UNL     1      43.907   2.466  11.915  0.00  0.00    +0.000 C 
ATOM     15  O   UNL     1      43.542   2.502  10.540  0.00  0.00    +0.000 OA
ENDBRANCH   3  15
ENDBRANCH   1   8
BRANCH   1  16
ATOM     16  C   UNL     1      44.236   5.684  11.257  0.00  0.00    +0.000 C 
BRANCH  16  17
ATOM     17  C   UNL     1      44.958   7.006  11.387  0.00  0.00    +0.000 A 
ATOM     18  C   UNL     1      44.245   8.208  11.367  0.00  0.00    +0.000 A 
ATOM     19  C   UNL     1      44.886   9.405  11.675  0.00  0.00    +0.000 A 
ATOM     20  C   UNL     1      46.244   9.409  12.013  0.00  0.00    +0.000 A 
ATOM     21  C   UNL     1      46.995   8.221  12.048  0.00  0.00    +0.000 A 
ATOM     22  C   UNL     1      46.332   7.031  11.691  0.00  0.00    +0.000 A 
BRANCH  21  23
ATOM     23  C   UNL     1      48.392   8.198  12.550  0.00  0.00    +0.000 A 
ATOM     24  C   UNL     1      49.478   8.104  11.655  0.00  0.00    +0.000 A 
ATOM     25  C   UNL     1      50.802   8.172  12.101  0.00  0.00    +0.000 A 
ATOM     26  C   UNL     1      51.059   8.341  13.451  0.00  0.00    +0.000 A 
ATOM     27  F   UNL     1      52.326   8.436  13.877  0.00  0.00    +0.000 F 
ATOM     28  C   UNL     1      50.019   8.422  14.366  0.00  0.00    +0.000 A 
ATOM     29  C   UNL     1      48.695   8.343  13.918  0.00  0.00    +0.000 A 
ENDBRANCH  21  23
ENDBRANCH  16  17
ENDBRANCH   1  16
TORSDOF 6
ENDMDL
MODEL 7
REMARK VINA RESULT:    -6.710      1.607      2.197
REMARK INTER + INTRA:         -10.313
REMARK INTER:                  -9.413
REMARK INTRA:                  -0.900
REMARK UNBOUND:                -1.249
REMARK  Name = 
REMARK  7 active torsions:
REMARK  status: ('A' for Active; 'I' for Inactive)
REMARK    1  A    between atoms: C_1  and  O_2
REMARK    2  A    between atoms: O_2  and  C_3
REMARK    3  A    between atoms: C_5  and  C_6
REMARK    4  A    between atoms: C_11  and  N_12
REMARK    5  A    between atoms: N_12  and  C_13
REMARK    6  A    between atoms: C_13  and  C_14
REMARK    7  A    between atoms: C_18  and  C_19
REMARK                            x       y       z     vdW  Elec       q    Type
REMARK                         _______ _______ _______ _____ _____    ______ ____
ROOT
ATOM      1  N   UNL     1      46.587   7.001  13.443  0.00  0.00    +0.000 N 
ATOM      2  H   UNL     1      46.463   6.439  14.274  0.00  0.00    +0.000 HD
ENDROOT
BRANCH   1   8
ATOM      3  C   UNL     1      48.917   7.512  14.114  0.00  0.00    +0.000 A 
ATOM      4  C   UNL     1      50.195   7.871  13.677  0.00  0.00    +0.000 A 
ATOM      5  C   UNL     1      50.442   8.104  12.326  0.00  0.00    +0.000 A 
ATOM      6  C   UNL     1      49.375   7.953  11.460  0.00  0.00    +0.000 A 
ATOM      7  N   UNL     1      48.120   7.592  11.845  0.00  0.00    +0.000 NA
ATOM      8  C   UNL     1      47.885   7.367  13.161  0.00  0.00    +0.000 A 
BRANCH   5   9
ATOM      9  C   UNL     1      51.818   8.496  11.927  0.00  0.00    +0.000 C 
ATOM     10  N   UNL     1      52.181   8.429  10.612  0.00  0.00    +0.000 N 
ATOM     11  O   UNL     1      52.626   8.882  12.762  0.00  0.00    +0.000 OA
ATOM     12  H   UNL     1      51.599   8.120   9.850  0.00  0.00    +0.000 HD
ATOM     13  H   UNL     1      53.129   8.710  10.396  0.00  0.00    +0.000 HD
ENDBRANCH   5   9
BRANCH   3  15
ATOM     14  C   UNL     1      49.654   6.606  16.197  0.00  0.00    +0.000 C 
ATOM     15  O   UNL     1      48.644   7.257  15.434  0.00  0.00    +0.000 OA
ENDBRANCH   3  15
ENDBRANCH   1   8
BRANCH   1  16
ATOM     16  C   UNL     1      45.477   7.265  12.565  0.00  0.00    +0.000 C 
BRANCH  16  17
ATOM     17  C   UNL     1      44.800   6.015  12.051  0.00  0.00    +0.000 A 
ATOM     18  C   UNL     1      43.486   5.717  12.424  0.00  0.00    +0.000 A 
ATOM     19  C   UNL     1      42.805   4.673  11.803  0.00  0.00    +0.000 A 
ATOM     20  C   UNL     1      43.429   3.923  10.801  0.00  0.00    +0.000 A 
ATOM     21  C   UNL     1      44.748   4.193  10.395  0.00  0.00    +0.000 A 
ATOM     22  C   UNL     1      45.428   5.227  11.068  0.00  0.00    +0.000 A 
BRANCH  21  23
ATOM     23  C   UNL     1      45.362   3.503   9.233  0.00  0.00    +0.000 A 
ATOM     24  C   UNL     1      45.958   4.241   8.189  0.00  0.00    +0.000 A 
ATOM     25  C   UNL     1      46.621   3.610   7.132  0.00  0.00    +0.000 A 
ATOM     26  C   UNL     1      46.703   2.227   7.107  0.00  0.00    +0.000 A 
ATOM     27  F   UNL     1      47.364   1.621   6.112  0.00  0.00    +0.000 F 
ATOM     28  C   UNL     1      46.118   1.464   8.108  0.00  0.00    +0.000 A 
ATOM     29  C   UNL     1      45.445   2.099   9.159  0.00  0.00    +0.000 A 
ENDBRANCH  21  23
ENDBRANCH  16  17
ENDBRANCH   1  16
TORSDOF 6
ENDMDL
MODEL 8
REMARK VINA RESULT:    -6.481      3.963      5.362
REMARK INTER + INTRA:         -10.003
REMARK INTER:                  -9.253
REMARK INTRA:                  -0.750
REMARK UNBOUND:                -1.249
REMARK  Name = 
REMARK  7 active torsions:
REMARK  status: ('A' for Active; 'I' for Inactive)
REMARK    1  A    between atoms: C_1  and  O_2
REMARK    2  A    between atoms: O_2  and  C_3
REMARK    3  A    between atoms: C_5  and  C_6
REMARK    4  A    between atoms: C_11  and  N_12
REMARK    5  A    between atoms: N_12  and  C_13
REMARK    6  A    between atoms: C_13  and  C_14
REMARK    7  A    between atoms: C_18  and  C_19
REMARK                            x       y       z     vdW  Elec       q    Type
REMARK                         _______ _______ _______ _____ _____    ______ ____
ROOT
ATOM      1  N   UNL     1      48.305   6.709  15.661  0.00  0.00    +0.000 N 
ATOM      2  H   UNL     1      47.436   6.928  16.128  0.00  0.00    +0.000 HD
ENDROOT
BRANCH   1   8
ATOM      3  C   UNL     1      48.807   4.772  17.122  0.00  0.00    +0.000 A 
ATOM      4  C   UNL     1      49.805   4.042  17.776  0.00  0.00    +0.000 A 
ATOM      5  C   UNL     1      51.137   4.442  17.704  0.00  0.00    +0.000 A 
ATOM      6  C   UNL     1      51.412   5.573  16.957  0.00  0.00    +0.000 A 
ATOM      7  N   UNL     1      50.470   6.303  16.296  0.00  0.00    +0.000 NA
ATOM      8  C   UNL     1      49.175   5.908  16.370  0.00  0.00    +0.000 A 
BRANCH   5   9
ATOM      9  C   UNL     1      52.148   3.632  18.431  0.00  0.00    +0.000 C 
ATOM     10  N   UNL     1      52.203   2.284  18.223  0.00  0.00    +0.000 N 
ATOM     11  O   UNL     1      52.933   4.160  19.207  0.00  0.00    +0.000 OA
ATOM     12  H   UNL     1      51.603   1.750  17.614  0.00  0.00    +0.000 HD
ATOM     13  H   UNL     1      52.912   1.781  18.741  0.00  0.00    +0.000 HD
ENDBRANCH   5   9
BRANCH   3  15
ATOM     14  C   UNL     1      47.205   3.038  17.483  0.00  0.00    +0.000 C 
ATOM     15  O   UNL     1      47.489   4.394  17.158  0.00  0.00    +0.000 OA
ENDBRANCH   3  15
ENDBRANCH   1   8
BRANCH   1  16
ATOM     16  C   UNL     1      48.524   7.109  14.296  0.00  0.00    +0.000 C 
BRANCH  16  17
ATOM     17  C   UNL     1      47.251   7.265  13.498  0.00  0.00    +0.000 A 
ATOM     18  C   UNL     1      46.690   8.531  13.300  0.00  0.00    +0.000 A 
ATOM     19  C   UNL     1      45.629   8.693  12.412  0.00  0.00    +0.000 A 
ATOM     20  C   UNL     1      45.126   7.593  11.710  0.00  0.00    +0.000 A 
ATOM     21  C   UNL     1      45.664   6.305  11.877  0.00  0.00    +0.000 A 
ATOM     22  C   UNL     1      46.708   6.162  12.812  0.00  0.00    +0.000 A 
BRANCH  21  23
ATOM     23  C   UNL     1      45.238   5.165  11.027  0.00  0.00    +0.000 A 
ATOM     24  C   UNL     1      45.492   5.165   9.639  0.00  0.00    +0.000 A 
ATOM     25  C   UNL     1      45.180   4.063   8.838  0.00  0.00    +0.000 A 
ATOM     26  C   UNL     1      44.612   2.939   9.415  0.00  0.00    +0.000 A 
ATOM     27  F   UNL     1      44.340   1.871   8.654  0.00  0.00    +0.000 F 
ATOM     28  C   UNL     1      44.332   2.905  10.774  0.00  0.00    +0.000 A 
ATOM     29  C   UNL     1      44.635   4.014  11.572  0.00  0.00    +0.000 A 
ENDBRANCH  21  23
ENDBRANCH  16  17
ENDBRANCH   1  16
TORSDOF 6
ENDMDL
MODEL 9
REMARK VINA RESULT:    -6.236      5.096      8.392
REMARK INTER + INTRA:          -9.672
REMARK INTER:                  -8.530
REMARK INTRA:                  -1.143
REMARK UNBOUND:                -1.249
REMARK  Name = 
REMARK  7 active torsions:
REMARK  status: ('A' for Active; 'I' for Inactive)
REMARK    1  A    between atoms: C_1  and  O_2
REMARK    2  A    between atoms: O_2  and  C_3
REMARK    3  A    between atoms: C_5  and  C_6
REMARK    4  A    between atoms: C_11  and  N_12
REMARK    5  A    between atoms: N_12  and  C_13
REMARK    6  A    between atoms: C_13  and  C_14
REMARK    7  A    between atoms: C_18  and  C_19
REMARK                            x       y       z     vdW  Elec       q    Type
REMARK                         _______ _______ _______ _____ _____    ______ ____
ROOT
ATOM      1  N   UNL     1      48.682   6.719  14.225  0.00  0.00    +0.000 N 
ATOM      2  H   UNL     1      49.468   6.230  13.821  0.00  0.00    +0.000 HD
ENDROOT
BRANCH   1   8
ATOM      3  C   UNL     1      46.841   5.085  13.940  0.00  0.00    +0.000 A 
ATOM      4  C   UNL     1      45.566   4.857  13.414  0.00  0.00    +0.000 A 
ATOM      5  C   UNL     1      44.908   5.853  12.697  0.00  0.00    +0.000 A 
ATOM      6  C   UNL     1      45.570   7.057  12.545  0.00  0.00    +0.000 A 
ATOM      7  N   UNL     1      46.806   7.322  13.052  0.00  0.00    +0.000 NA
ATOM      8  C   UNL     1      47.442   6.348  13.750  0.00  0.00    +0.000 A 
BRANCH   5   9
ATOM      9  C   UNL     1      43.560   5.544  12.153  0.00  0.00    +0.000 C 
ATOM     10  N   UNL     1      43.342   5.634  10.808  0.00  0.00    +0.000 N 
ATOM     11  O   UNL     1      42.648   5.205  12.896  0.00  0.00    +0.000 OA
ATOM     12  H   UNL     1      44.017   5.909  10.113  0.00  0.00    +0.000 HD
ATOM     13  H   UNL     1      42.407   5.410  10.491  0.00  0.00    +0.000 HD
ENDBRANCH   5   9
BRANCH   3  15
ATOM     14  C   UNL     1      47.141   3.974  16.032  0.00  0.00    +0.000 C 
ATOM     15  O   UNL     1      47.509   4.132  14.666  0.00  0.00    +0.000 OA
ENDBRANCH   3  15
ENDBRANCH   1   8
BRANCH   1  16
ATOM     16  C   UNL     1      48.873   7.637  15.318  0.00  0.00    +0.000 C 
BRANCH  16  17
ATOM     17  C   UNL     1      49.232   6.961  16.621  0.00  0.00    +0.000 A 
ATOM     18  C   UNL     1      48.573   7.308  17.804  0.00  0.00    +0.000 A 
ATOM     19  C   UNL     1      48.771   6.556  18.959  0.00  0.00    +0.000 A 
ATOM     20  C   UNL     1      49.624   5.448  18.940  0.00  0.00    +0.000 A 
ATOM     21  C   UNL     1      50.302   5.063  17.770  0.00  0.00    +0.000 A 
ATOM     22  C   UNL     1      50.117   5.866  16.627  0.00  0.00    +0.000 A 
BRANCH  21  23
ATOM     23  C   UNL     1      51.087   3.805  17.702  0.00  0.00    +0.000 A 
ATOM     24  C   UNL     1      52.447   3.783  18.078  0.00  0.00    +0.000 A 
ATOM     25  C   UNL     1      53.178   2.591  18.107  0.00  0.00    +0.000 A 
ATOM     26  C   UNL     1      52.557   1.401  17.765  0.00  0.00    +0.000 A 
ATOM     27  F   UNL     1      53.248   0.254  17.822  0.00  0.00    +0.000 F 
ATOM     28  C   UNL     1      51.225   1.383  17.376  0.00  0.00    +0.000 A 
ATOM     29  C   UNL     1      50.499   2.578  17.336  0.00  0.00    +0.000 A 
ENDBRANCH  21  23
ENDBRANCH  16  17
ENDBRANCH   1  16
TORSDOF 6
ENDMDL
