MODEL 1
REMARK VINA RESULT:    -8.499      0.000      0.000
REMARK INTER + INTRA:         -13.102
REMARK INTER:                 -11.978
REMARK INTRA:                  -1.124
REMARK UNBOUND:                -1.124
REMARK  Name = 
REMARK  7 active torsions:
REMARK  status: ('A' for Active; 'I' for Inactive)
REMARK    1  A    between atoms: C_2  and  C_4
REMARK    2  A    between atoms: C_7  and  N_8
REMARK    3  A    between atoms: N_8  and  C_9
REMARK    4  A    between atoms: C_9  and  C_10
REMARK    5  A    between atoms: C_10  and  C_11
REMARK    6  A    between atoms: C_15  and  C_16
REMARK    7  A    between atoms: C_21  and  C_22
REMARK                            x       y       z     vdW  Elec       q    Type
REMARK                         _______ _______ _______ _____ _____    ______ ____
ROOT
ATOM      1  C   UNL     1      45.022   5.633  12.525  0.00  0.00    +0.000 A 
ATOM      2  C   UNL     1      45.384   4.644  13.440  0.00  0.00    +0.000 A 
ATOM      3  C   UNL     1      46.660   4.648  13.995  0.00  0.00    +0.000 A 
ATOM      4  C   UNL     1      47.573   5.650  13.649  0.00  0.00    +0.000 A 
ATOM      5  C   UNL     1      47.257   6.643  12.703  0.00  0.00    +0.000 A 
ATOM      6  C   UNL     1      45.976   6.584  12.128  0.00  0.00    +0.000 A 
ENDROOT
BRANCH   5   7
ATOM      7  C   UNL     1      48.256   7.656  12.267  0.00  0.00    +0.000 A 
ATOM      8  C   UNL     1      49.571   7.213  11.986  0.00  0.00    +0.000 A 
ATOM      9  C   UNL     1      50.549   8.055  11.451  0.00  0.00    +0.000 A 
ATOM     10  C   UNL     1      50.234   9.369  11.151  0.00  0.00    +0.000 A 
ATOM     11  C   UNL     1      48.965   9.850  11.450  0.00  0.00    +0.000 A 
ATOM     12  C   UNL     1      47.977   9.029  12.048  0.00  0.00    +0.000 A 
BRANCH  12  13
ATOM     13  C   UNL     1      46.681   9.728  12.399  0.00  0.00    +0.000 C 
ATOM     14  F   UNL     1      46.088   9.357  13.564  0.00  0.00    +0.000 F 
ATOM     15  F   UNL     1      46.845  11.081  12.513  0.00  0.00    +0.000 F 
ATOM     16  F   UNL     1      45.735   9.565  11.429  0.00  0.00    +0.000 F 
ENDBRANCH  12  13
ENDBRANCH   5   7
BRANCH   1  17
ATOM     17  C   UNL     1      43.626   5.692  11.962  0.00  0.00    +0.000 C 
BRANCH  17  18
ATOM     18  C   UNL     1      43.351   4.564  10.966  0.00  0.00    +0.000 C 
BRANCH  18  19
ATOM     19  N   UNL     1      43.819   4.967   9.637  0.00  0.00    +0.000 N 
ATOM     20  H   UNL     1      44.298   5.864   9.652  0.00  0.00    +0.000 HD
BRANCH  19  24
ATOM     21  C   UNL     1      46.218   2.098   7.941  0.00  0.00    +0.000 A 
ATOM     22  C   UNL     1      46.305   3.418   7.534  0.00  0.00    +0.000 A 
ATOM     23  N   UNL     1      45.516   4.393   8.055  0.00  0.00    +0.000 NA
ATOM     24  C   UNL     1      44.627   4.015   8.998  0.00  0.00    +0.000 A 
ATOM     25  C   UNL     1      44.547   2.670   9.385  0.00  0.00    +0.000 A 
ATOM     26  N   UNL     1      45.322   1.678   8.875  0.00  0.00    +0.000 NA
BRANCH  21  28
ATOM     27  N   UNL     1      46.866  -0.215   7.680  0.00  0.00    +0.000 N 
ATOM     28  C   UNL     1      47.153   1.087   7.376  0.00  0.00    +0.000 C 
ATOM     29  O   UNL     1      48.119   1.395   6.694  0.00  0.00    +0.000 OA
ATOM     30  H   UNL     1      47.478  -0.949   7.359  0.00  0.00    +0.000 HD
ATOM     31  H   UNL     1      46.067  -0.432   8.270  0.00  0.00    +0.000 HD
ENDBRANCH  21  28
ENDBRANCH  19  24
ENDBRANCH  18  19
ENDBRANCH  17  18
ENDBRANCH   1  17
TORSDOF 7
ENDMDL
MODEL 2
REMARK VINA RESULT:    -8.251      4.612      7.397
REMARK INTER + INTRA:         -12.751
REMARK INTER:                 -11.163
REMARK INTRA:                  -1.588
REMARK UNBOUND:                -1.124
REMARK  Name = 
REMARK  7 active torsions:
REMARK  status: ('A' for Active; 'I' for Inactive)
REMARK    1  A    between atoms: C_2  and  C_4
REMARK    2  A    between atoms: C_7  and  N_8
REMARK    3  A    between atoms: N_8  and  C_9
REMARK    4  A    between atoms: C_9  and  C_10
REMARK    5  A    between atoms: C_10  and  C_11
REMARK    6  A    between atoms: C_15  and  C_16
REMARK    7  A    between atoms: C_21  and  C_22
REMARK                            x       y       z     vdW  Elec       q    Type
REMARK                         _______ _______ _______ _____ _____    ______ ____
ROOT
ATOM      1  C   UNL     1      47.216   7.777  11.811  0.00  0.00    +0.000 A 
ATOM      2  C   UNL     1      46.223   8.609  12.331  0.00  0.00    +0.000 A 
ATOM      3  C   UNL     1      44.887   8.238  12.231  0.00  0.00    +0.000 A 
ATOM      4  C   UNL     1      44.538   7.026  11.624  0.00  0.00    +0.000 A 
ATOM      5  C   UNL     1      45.507   6.178  11.056  0.00  0.00    +0.000 A 
ATOM      6  C   UNL     1      46.844   6.603  11.134  0.00  0.00    +0.000 A 
ENDROOT
BRANCH   5   7
ATOM      7  C   UNL     1      45.132   4.933  10.331  0.00  0.00    +0.000 A 
ATOM      8  C   UNL     1      45.503   4.820   8.969  0.00  0.00    +0.000 A 
ATOM      9  C   UNL     1      45.312   3.648   8.234  0.00  0.00    +0.000 A 
ATOM     10  C   UNL     1      44.765   2.534   8.847  0.00  0.00    +0.000 A 
ATOM     11  C   UNL     1      44.351   2.620  10.172  0.00  0.00    +0.000 A 
ATOM     12  C   UNL     1      44.481   3.818  10.917  0.00  0.00    +0.000 A 
BRANCH  12  13
ATOM     13  C   UNL     1      43.895   3.778  12.313  0.00  0.00    +0.000 C 
ATOM     14  F   UNL     1      42.820   4.577  12.542  0.00  0.00    +0.000 F 
ATOM     15  F   UNL     1      43.469   2.523  12.652  0.00  0.00    +0.000 F 
ATOM     16  F   UNL     1      44.818   4.108  13.264  0.00  0.00    +0.000 F 
ENDBRANCH  12  13
ENDBRANCH   5   7
BRANCH   1  17
ATOM     17  C   UNL     1      48.674   8.122  11.966  0.00  0.00    +0.000 C 
BRANCH  17  18
ATOM     18  C   UNL     1      49.412   7.137  12.875  0.00  0.00    +0.000 C 
BRANCH  18  19
ATOM     19  N   UNL     1      49.263   7.560  14.270  0.00  0.00    +0.000 N 
ATOM     20  H   UNL     1      48.727   8.420  14.357  0.00  0.00    +0.000 HD
BRANCH  19  24
ATOM     21  C   UNL     1      47.844   4.671  16.821  0.00  0.00    +0.000 A 
ATOM     22  C   UNL     1      47.452   4.691  15.493  0.00  0.00    +0.000 A 
ATOM     23  N   UNL     1      47.882   5.641  14.623  0.00  0.00    +0.000 NA
ATOM     24  C   UNL     1      48.717   6.581  15.114  0.00  0.00    +0.000 A 
ATOM     25  C   UNL     1      49.090   6.549  16.465  0.00  0.00    +0.000 A 
ATOM     26  N   UNL     1      48.669   5.612  17.354  0.00  0.00    +0.000 NA
BRANCH  21  28
ATOM     27  N   UNL     1      48.121   3.388  18.849  0.00  0.00    +0.000 N 
ATOM     28  C   UNL     1      47.386   3.568  17.710  0.00  0.00    +0.000 C 
ATOM     29  O   UNL     1      46.427   2.862  17.439  0.00  0.00    +0.000 OA
ATOM     30  H   UNL     1      47.887   2.636  19.479  0.00  0.00    +0.000 HD
ATOM     31  H   UNL     1      48.927   3.980  19.030  0.00  0.00    +0.000 HD
ENDBRANCH  21  28
ENDBRANCH  19  24
ENDBRANCH  18  19
ENDBRANCH  17  18
ENDBRANCH   1  17
TORSDOF 7
ENDMDL
MODEL 3
REMARK VINA RESULT:    -8.235      5.440      7.809
REMARK INTER + INTRA:         -12.729
REMARK INTER:                 -11.432
REMARK INTRA:                  -1.298
REMARK UNBOUND:                -1.124
REMARK  Name = 
REMARK  7 active torsions:
REMARK  status: ('A' for Active; 'I' for Inactive)
REMARK    1  A    between atoms: C_2  and  C_4
REMARK    2  A    between atoms: C_7  and  N_8
REMARK    3  A    between atoms: N_8  and  C_9
REMARK    4  A    between atoms: C_9  and  C_10
REMARK    5  A    between atoms: C_10  and  C_11
REMARK    6  A    between atoms: C_15  and  C_16
REMARK    7  A    between atoms: C_21  and  C_22
REMARK                            x       y       z     vdW  Elec       q    Type
REMARK                         _______ _______ _______ _____ _____    ______ ____
ROOT
ATOM      1  C   UNL     1      46.724   6.455  13.216  0.00  0.00    +0.000 A 
ATOM      2  C   UNL     1      46.208   7.742  13.059  0.00  0.00    +0.000 A 
ATOM      3  C   UNL     1      45.344   8.019  12.005  0.00  0.00    +0.000 A 
ATOM      4  C   UNL     1      44.980   7.005  11.111  0.00  0.00    +0.000 A 
ATOM      5  C   UNL     1      45.508   5.704  11.214  0.00  0.00    +0.000 A 
ATOM      6  C   UNL     1      46.412   5.470  12.264  0.00  0.00    +0.000 A 
ENDROOT
BRANCH   5   7
ATOM      7  C   UNL     1      45.193   4.649  10.213  0.00  0.00    +0.000 A 
ATOM      8  C   UNL     1      45.727   4.790   8.910  0.00  0.00    +0.000 A 
ATOM      9  C   UNL     1      45.598   3.799   7.934  0.00  0.00    +0.000 A 
ATOM     10  C   UNL     1      44.950   2.614   8.240  0.00  0.00    +0.000 A 
ATOM     11  C   UNL     1      44.378   2.456   9.497  0.00  0.00    +0.000 A 
ATOM     12  C   UNL     1      44.445   3.474  10.480  0.00  0.00    +0.000 A 
BRANCH  12  13
ATOM     13  C   UNL     1      43.689   3.187  11.761  0.00  0.00    +0.000 C 
ATOM     14  F   UNL     1      42.840   4.156  12.193  0.00  0.00    +0.000 F 
ATOM     15  F   UNL     1      42.908   2.069  11.653  0.00  0.00    +0.000 F 
ATOM     16  F   UNL     1      44.531   2.933  12.805  0.00  0.00    +0.000 F 
ENDBRANCH  12  13
ENDBRANCH   5   7
BRANCH   1  17
ATOM     17  C   UNL     1      47.606   6.112  14.387  0.00  0.00    +0.000 C 
BRANCH  17  18
ATOM     18  C   UNL     1      47.199   4.799  15.058  0.00  0.00    +0.000 C 
BRANCH  18  19
ATOM     19  N   UNL     1      47.570   4.844  16.476  0.00  0.00    +0.000 N 
ATOM     20  H   UNL     1      46.780   4.656  17.088  0.00  0.00    +0.000 HD
BRANCH  19  24
ATOM     21  C   UNL     1      50.821   2.516  17.410  0.00  0.00    +0.000 A 
ATOM     22  C   UNL     1      49.695   1.953  16.834  0.00  0.00    +0.000 A 
ATOM     23  N   UNL     1      48.592   2.684  16.529  0.00  0.00    +0.000 NA
ATOM     24  C   UNL     1      48.638   4.002  16.818  0.00  0.00    +0.000 A 
ATOM     25  C   UNL     1      49.784   4.548  17.414  0.00  0.00    +0.000 A 
ATOM     26  N   UNL     1      50.896   3.836  17.732  0.00  0.00    +0.000 NA
BRANCH  21  28
ATOM     27  N   UNL     1      51.764   0.373  18.006  0.00  0.00    +0.000 N 
ATOM     28  C   UNL     1      52.021   1.672  17.664  0.00  0.00    +0.000 C 
ATOM     29  O   UNL     1      53.160   2.108  17.584  0.00  0.00    +0.000 OA
ATOM     30  H   UNL     1      52.530  -0.245  18.226  0.00  0.00    +0.000 HD
ATOM     31  H   UNL     1      50.804   0.051  18.085  0.00  0.00    +0.000 HD
ENDBRANCH  21  28
ENDBRANCH  19  24
ENDBRANCH  18  19
ENDBRANCH  17  18
ENDBRANCH   1  17
TORSDOF 7
ENDMDL
MODEL 4
REMARK VINA RESULT:    -8.149      2.255      3.801
REMARK INTER + INTRA:         -12.607
REMARK INTER:                 -11.667
REMARK INTRA:                  -0.940
REMARK UNBOUND:                -1.124
REMARK  Name = 
REMARK  7 active torsions:
REMARK  status: ('A' for Active; 'I' for Inactive)
REMARK    1  A    between atoms: C_2  and  C_4
REMARK    2  A    between atoms: C_7  and  N_8
REMARK    3  A    between atoms: N_8  and  C_9
REMARK    4  A    between atoms: C_9  and  C_10
REMARK    5  A    between atoms: C_10  and  C_11
REMARK    6  A    between atoms: C_15  and  C_16
REMARK    7  A    between atoms: C_21  and  C_22
REMARK                            x       y       z     vdW  Elec       q    Type
REMARK                         _______ _______ _______ _____ _____    ______ ____
ROOT
ATOM      1  C   UNL     1      45.331   5.937  12.401  0.00  0.00    +0.000 A 
ATOM      2  C   UNL     1      46.166   6.616  11.513  0.00  0.00    +0.000 A 
ATOM      3  C   UNL     1      47.516   6.771  11.812  0.00  0.00    +0.000 A 
ATOM      4  C   UNL     1      48.039   6.234  12.993  0.00  0.00    +0.000 A 
ATOM      5  C   UNL     1      47.222   5.575  13.931  0.00  0.00    +0.000 A 
ATOM      6  C   UNL     1      45.856   5.474  13.619  0.00  0.00    +0.000 A 
ENDROOT
BRANCH   5   7
ATOM      7  C   UNL     1      47.758   5.083  15.229  0.00  0.00    +0.000 A 
ATOM      8  C   UNL     1      47.432   3.763  15.625  0.00  0.00    +0.000 A 
ATOM      9  C   UNL     1      47.984   3.161  16.759  0.00  0.00    +0.000 A 
ATOM     10  C   UNL     1      48.907   3.853  17.523  0.00  0.00    +0.000 A 
ATOM     11  C   UNL     1      49.222   5.166  17.188  0.00  0.00    +0.000 A 
ATOM     12  C   UNL     1      48.627   5.815  16.077  0.00  0.00    +0.000 A 
BRANCH  12  13
ATOM     13  C   UNL     1      49.001   7.272  15.905  0.00  0.00    +0.000 C 
ATOM     14  F   UNL     1      48.002   8.112  15.526  0.00  0.00    +0.000 F 
ATOM     15  F   UNL     1      49.487   7.815  17.062  0.00  0.00    +0.000 F 
ATOM     16  F   UNL     1      49.999   7.438  14.988  0.00  0.00    +0.000 F 
ENDBRANCH  12  13
ENDBRANCH   5   7
BRANCH   1  17
ATOM     17  C   UNL     1      43.882   5.695  12.070  0.00  0.00    +0.000 C 
BRANCH  17  18
ATOM     18  C   UNL     1      43.683   4.456  11.194  0.00  0.00    +0.000 C 
BRANCH  18  19
ATOM     19  N   UNL     1      43.769   4.843   9.783  0.00  0.00    +0.000 N 
ATOM     20  H   UNL     1      43.990   5.828   9.665  0.00  0.00    +0.000 HD
BRANCH  19  24
ATOM     21  C   UNL     1      46.434   2.479   7.737  0.00  0.00    +0.000 A 
ATOM     22  C   UNL     1      46.371   3.841   7.495  0.00  0.00    +0.000 A 
ATOM     23  N   UNL     1      45.491   4.653   8.135  0.00  0.00    +0.000 NA
ATOM     24  C   UNL     1      44.664   4.069   9.028  0.00  0.00    +0.000 A 
ATOM     25  C   UNL     1      44.736   2.686   9.247  0.00  0.00    +0.000 A 
ATOM     26  N   UNL     1      45.604   1.854   8.616  0.00  0.00    +0.000 NA
BRANCH  21  28
ATOM     27  N   UNL     1      48.507   2.348   6.504  0.00  0.00    +0.000 N 
ATOM     28  C   UNL     1      47.462   1.653   7.048  0.00  0.00    +0.000 C 
ATOM     29  O   UNL     1      47.378   0.437   6.962  0.00  0.00    +0.000 OA
ATOM     30  H   UNL     1      49.222   1.854   5.993  0.00  0.00    +0.000 HD
ATOM     31  H   UNL     1      48.532   3.361   6.575  0.00  0.00    +0.000 HD
ENDBRANCH  21  28
ENDBRANCH  19  24
ENDBRANCH  18  19
ENDBRANCH  17  18
ENDBRANCH   1  17
TORSDOF 7
ENDMDL
MODEL 5
REMARK VINA RESULT:    -8.064      1.424      1.731
REMARK INTER + INTRA:         -12.488
REMARK INTER:                 -11.125
REMARK INTRA:                  -1.364
REMARK UNBOUND:                -1.124
REMARK  Name = 
REMARK  7 active torsions:
REMARK  status: ('A' for Active; 'I' for Inactive)
REMARK    1  A    between atoms: C_2  and  C_4
REMARK    2  A    between atoms: C_7  and  N_8
REMARK    3  A    between atoms: N_8  and  C_9
REMARK    4  A    between atoms: C_9  and  C_10
REMARK    5  A    between atoms: C_10  and  C_11
REMARK    6  A    between atoms: C_15  and  C_16
REMARK    7  A    between atoms: C_21  and  C_22
REMARK                            x       y       z     vdW  Elec       q    Type
REMARK                         _______ _______ _______ _____ _____    ______ ____
ROOT
ATOM      1  C   UNL     1      45.576   5.987  12.381  0.00  0.00    +0.000 A 
ATOM      2  C   UNL     1      45.674   4.955  13.314  0.00  0.00    +0.000 A 
ATOM      3  C   UNL     1      46.829   4.818  14.078  0.00  0.00    +0.000 A 
ATOM      4  C   UNL     1      47.884   5.724  13.922  0.00  0.00    +0.000 A 
ATOM      5  C   UNL     1      47.838   6.756  12.966  0.00  0.00    +0.000 A 
ATOM      6  C   UNL     1      46.676   6.838  12.180  0.00  0.00    +0.000 A 
ENDROOT
BRANCH   5   7
ATOM      7  C   UNL     1      48.995   7.664  12.736  0.00  0.00    +0.000 A 
ATOM      8  C   UNL     1      49.758   7.481  11.557  0.00  0.00    +0.000 A 
ATOM      9  C   UNL     1      50.783   8.354  11.184  0.00  0.00    +0.000 A 
ATOM     10  C   UNL     1      51.061   9.461  11.967  0.00  0.00    +0.000 A 
ATOM     11  C   UNL     1      50.360   9.651  13.152  0.00  0.00    +0.000 A 
ATOM     12  C   UNL     1      49.358   8.744  13.579  0.00  0.00    +0.000 A 
BRANCH  12  13
ATOM     13  C   UNL     1      48.756   9.039  14.937  0.00  0.00    +0.000 C 
ATOM     14  F   UNL     1      47.400   9.084  15.002  0.00  0.00    +0.000 F 
ATOM     15  F   UNL     1      49.114   8.103  15.868  0.00  0.00    +0.000 F 
ATOM     16  F   UNL     1      49.196  10.229  15.442  0.00  0.00    +0.000 F 
ENDBRANCH  12  13
ENDBRANCH   5   7
BRANCH   1  17
ATOM     17  C   UNL     1      44.312   6.199  11.590  0.00  0.00    +0.000 C 
BRANCH  17  18
ATOM     18  C   UNL     1      43.746   4.891  11.034  0.00  0.00    +0.000 C 
BRANCH  18  19
ATOM     19  N   UNL     1      43.749   4.946   9.570  0.00  0.00    +0.000 N 
ATOM     20  H   UNL     1      43.995   5.869   9.219  0.00  0.00    +0.000 HD
BRANCH  19  24
ATOM     21  C   UNL     1      46.168   2.044   7.960  0.00  0.00    +0.000 A 
ATOM     22  C   UNL     1      46.222   3.345   7.490  0.00  0.00    +0.000 A 
ATOM     23  N   UNL     1      45.425   4.329   7.982  0.00  0.00    +0.000 NA
ATOM     24  C   UNL     1      44.562   3.980   8.959  0.00  0.00    +0.000 A 
ATOM     25  C   UNL     1      44.514   2.653   9.409  0.00  0.00    +0.000 A 
ATOM     26  N   UNL     1      45.297   1.653   8.930  0.00  0.00    +0.000 NA
BRANCH  21  28
ATOM     27  N   UNL     1      46.747  -0.278   7.628  0.00  0.00    +0.000 N 
ATOM     28  C   UNL     1      47.111   1.025   7.422  0.00  0.00    +0.000 C 
ATOM     29  O   UNL     1      48.145   1.326   6.846  0.00  0.00    +0.000 OA
ATOM     30  H   UNL     1      47.358  -1.019   7.320  0.00  0.00    +0.000 HD
ATOM     31  H   UNL     1      45.891  -0.490   8.132  0.00  0.00    +0.000 HD
ENDBRANCH  21  28
ENDBRANCH  19  24
ENDBRANCH  18  19
ENDBRANCH  17  18
ENDBRANCH   1  17
TORSDOF 7
ENDMDL
MODEL 6
REMARK VINA RESULT:    -8.059      1.779      2.542
REMARK INTER + INTRA:         -12.481
REMARK INTER:                 -11.317
REMARK INTRA:                  -1.164
REMARK UNBOUND:                -1.124
REMARK  Name = 
REMARK  7 active torsions:
REMARK  status: ('A' for Active; 'I' for Inactive)
REMARK    1  A    between atoms: C_2  and  C_4
REMARK    2  A    between atoms: C_7  and  N_8
REMARK    3  A    between atoms: N_8  and  C_9
REMARK    4  A    between atoms: C_9  and  C_10
REMARK    5  A    between atoms: C_10  and  C_11
REMARK    6  A    between atoms: C_15  and  C_16
REMARK    7  A    between atoms: C_21  and  C_22
REMARK                            x       y       z     vdW  Elec       q    Type
REMARK                         _______ _______ _______ _____ _____    ______ ____
ROOT
ATOM      1  C   UNL     1      45.856   6.235  11.947  0.00  0.00    +0.000 A 
ATOM      2  C   UNL     1      44.986   7.315  12.091  0.00  0.00    +0.000 A 
ATOM      3  C   UNL     1      45.493   8.582  12.359  0.00  0.00    +0.000 A 
ATOM      4  C   UNL     1      46.874   8.777  12.470  0.00  0.00    +0.000 A 
ATOM      5  C   UNL     1      47.782   7.705  12.367  0.00  0.00    +0.000 A 
ATOM      6  C   UNL     1      47.234   6.432  12.140  0.00  0.00    +0.000 A 
ENDROOT
BRANCH   5   7
ATOM      7  C   UNL     1      49.244   7.894  12.573  0.00  0.00    +0.000 A 
ATOM      8  C   UNL     1      50.045   8.164  11.438  0.00  0.00    +0.000 A 
ATOM      9  C   UNL     1      51.402   8.481  11.535  0.00  0.00    +0.000 A 
ATOM     10  C   UNL     1      52.000   8.566  12.780  0.00  0.00    +0.000 A 
ATOM     11  C   UNL     1      51.255   8.267  13.915  0.00  0.00    +0.000 A 
ATOM     12  C   UNL     1      49.893   7.885  13.834  0.00  0.00    +0.000 A 
BRANCH  12  13
ATOM     13  C   UNL     1      49.250   7.499  15.150  0.00  0.00    +0.000 C 
ATOM     14  F   UNL     1      48.661   6.275  15.200  0.00  0.00    +0.000 F 
ATOM     15  F   UNL     1      50.155   7.488  16.176  0.00  0.00    +0.000 F 
ATOM     16  F   UNL     1      48.291   8.393  15.531  0.00  0.00    +0.000 F 
ENDBRANCH  12  13
ENDBRANCH   5   7
BRANCH   1  17
ATOM     17  C   UNL     1      45.339   4.866  11.589  0.00  0.00    +0.000 C 
BRANCH  17  18
ATOM     18  C   UNL     1      43.862   4.888  11.190  0.00  0.00    +0.000 C 
BRANCH  18  19
ATOM     19  N   UNL     1      43.756   4.914   9.728  0.00  0.00    +0.000 N 
ATOM     20  H   UNL     1      43.932   5.840   9.345  0.00  0.00    +0.000 HD
BRANCH  19  24
ATOM     21  C   UNL     1      46.161   2.075   7.989  0.00  0.00    +0.000 A 
ATOM     22  C   UNL     1      46.275   3.408   7.633  0.00  0.00    +0.000 A 
ATOM     23  N   UNL     1      45.486   4.374   8.169  0.00  0.00    +0.000 NA
ATOM     24  C   UNL     1      44.568   3.975   9.075  0.00  0.00    +0.000 A 
ATOM     25  C   UNL     1      44.460   2.617   9.410  0.00  0.00    +0.000 A 
ATOM     26  N   UNL     1      45.235   1.635   8.884  0.00  0.00    +0.000 NA
BRANCH  21  28
ATOM     27  N   UNL     1      46.785  -0.235   7.659  0.00  0.00    +0.000 N 
ATOM     28  C   UNL     1      47.097   1.073   7.410  0.00  0.00    +0.000 C 
ATOM     29  O   UNL     1      48.084   1.392   6.765  0.00  0.00    +0.000 OA
ATOM     30  H   UNL     1      47.395  -0.965   7.326  0.00  0.00    +0.000 HD
ATOM     31  H   UNL     1      45.968  -0.463   8.219  0.00  0.00    +0.000 HD
ENDBRANCH  21  28
ENDBRANCH  19  24
ENDBRANCH  18  19
ENDBRANCH  17  18
ENDBRANCH   1  17
TORSDOF 7
ENDMDL
MODEL 7
REMARK VINA RESULT:    -7.919      2.100      2.402
REMARK INTER + INTRA:         -12.284
REMARK INTER:                 -10.875
REMARK INTRA:                  -1.409
REMARK UNBOUND:                -1.124
REMARK  Name = 
REMARK  7 active torsions:
REMARK  status: ('A' for Active; 'I' for Inactive)
REMARK    1  A    between atoms: C_2  and  C_4
REMARK    2  A    between atoms: C_7  and  N_8
REMARK    3  A    between atoms: N_8  and  C_9
REMARK    4  A    between atoms: C_9  and  C_10
REMARK    5  A    between atoms: C_10  and  C_11
REMARK    6  A    between atoms: C_15  and  C_16
REMARK    7  A    between atoms: C_21  and  C_22
REMARK                            x       y       z     vdW  Elec       q    Type
REMARK                         _______ _______ _______ _____ _____    ______ ____
ROOT
ATOM      1  C   UNL     1      45.480   5.965  12.678  0.00  0.00    +0.000 A 
ATOM      2  C   UNL     1      45.817   4.730  13.233  0.00  0.00    +0.000 A 
ATOM      3  C   UNL     1      46.935   4.621  14.053  0.00  0.00    +0.000 A 
ATOM      4  C   UNL     1      47.712   5.750  14.333  0.00  0.00    +0.000 A 
ATOM      5  C   UNL     1      47.426   7.006  13.764  0.00  0.00    +0.000 A 
ATOM      6  C   UNL     1      46.316   7.071  12.905  0.00  0.00    +0.000 A 
ENDROOT
BRANCH   5   7
ATOM      7  C   UNL     1      48.302   8.187  13.989  0.00  0.00    +0.000 A 
ATOM      8  C   UNL     1      48.096   8.952  15.162  0.00  0.00    +0.000 A 
ATOM      9  C   UNL     1      48.941  10.002  15.532  0.00  0.00    +0.000 A 
ATOM     10  C   UNL     1      50.043  10.304  14.750  0.00  0.00    +0.000 A 
ATOM     11  C   UNL     1      50.254   9.601  13.569  0.00  0.00    +0.000 A 
ATOM     12  C   UNL     1      49.375   8.573  13.146  0.00  0.00    +0.000 A 
BRANCH  12  13
ATOM     13  C   UNL     1      49.689   7.972  11.792  0.00  0.00    +0.000 C 
ATOM     14  F   UNL     1      50.678   8.570  11.078  0.00  0.00    +0.000 F 
ATOM     15  F   UNL     1      50.079   6.665  11.892  0.00  0.00    +0.000 F 
ATOM     16  F   UNL     1      48.594   7.954  10.976  0.00  0.00    +0.000 F 
ENDBRANCH  12  13
ENDBRANCH   5   7
BRANCH   1  17
ATOM     17  C   UNL     1      44.236   6.126  11.843  0.00  0.00    +0.000 C 
BRANCH  17  18
ATOM     18  C   UNL     1      43.791   4.810  11.202  0.00  0.00    +0.000 C 
BRANCH  18  19
ATOM     19  N   UNL     1      43.776   4.963   9.744  0.00  0.00    +0.000 N 
ATOM     20  H   UNL     1      44.006   5.910   9.453  0.00  0.00    +0.000 HD
BRANCH  19  24
ATOM     21  C   UNL     1      46.223   2.216   7.918  0.00  0.00    +0.000 A 
ATOM     22  C   UNL     1      46.206   3.534   7.495  0.00  0.00    +0.000 A 
ATOM     23  N   UNL     1      45.397   4.468   8.058  0.00  0.00    +0.000 NA
ATOM     24  C   UNL     1      44.595   4.051   9.061  0.00  0.00    +0.000 A 
ATOM     25  C   UNL     1      44.619   2.708   9.464  0.00  0.00    +0.000 A 
ATOM     26  N   UNL     1      45.415   1.757   8.912  0.00  0.00    +0.000 NA
BRANCH  21  28
ATOM     27  N   UNL     1      48.309   1.808   6.769  0.00  0.00    +0.000 N 
ATOM     28  C   UNL     1      47.177   1.254   7.301  0.00  0.00    +0.000 C 
ATOM     29  O   UNL     1      46.963   0.052   7.260  0.00  0.00    +0.000 OA
ATOM     30  H   UNL     1      48.981   1.218   6.304  0.00  0.00    +0.000 HD
ATOM     31  H   UNL     1      48.442   2.815   6.801  0.00  0.00    +0.000 HD
ENDBRANCH  21  28
ENDBRANCH  19  24
ENDBRANCH  18  19
ENDBRANCH  17  18
ENDBRANCH   1  17
TORSDOF 7
ENDMDL
MODEL 8
REMARK VINA RESULT:    -7.884      1.814      2.733
REMARK INTER + INTRA:         -12.235
REMARK INTER:                 -11.018
REMARK INTRA:                  -1.217
REMARK UNBOUND:                -1.124
REMARK  Name = 
REMARK  7 active torsions:
REMARK  status: ('A' for Active; 'I' for Inactive)
REMARK    1  A    between atoms: C_2  and  C_4
REMARK    2  A    between atoms: C_7  and  N_8
REMARK    3  A    between atoms: N_8  and  C_9
REMARK    4  A    between atoms: C_9  and  C_10
REMARK    5  A    between atoms: C_10  and  C_11
REMARK    6  A    between atoms: C_15  and  C_16
REMARK    7  A    between atoms: C_21  and  C_22
REMARK                            x       y       z     vdW  Elec       q    Type
REMARK                         _______ _______ _______ _____ _____    ______ ____
ROOT
ATOM      1  C   UNL     1      45.901   4.671  12.950  0.00  0.00    +0.000 A 
ATOM      2  C   UNL     1      46.845   4.361  13.929  0.00  0.00    +0.000 A 
ATOM      3  C   UNL     1      47.665   5.361  14.443  0.00  0.00    +0.000 A 
ATOM      4  C   UNL     1      47.533   6.678  13.990  0.00  0.00    +0.000 A 
ATOM      5  C   UNL     1      46.617   7.024  12.978  0.00  0.00    +0.000 A 
ATOM      6  C   UNL     1      45.837   5.983  12.449  0.00  0.00    +0.000 A 
ENDROOT
BRANCH   5   7
ATOM      7  C   UNL     1      46.538   8.406  12.431  0.00  0.00    +0.000 A 
ATOM      8  C   UNL     1      45.277   9.050  12.437  0.00  0.00    +0.000 A 
ATOM      9  C   UNL     1      45.116  10.387  12.065  0.00  0.00    +0.000 A 
ATOM     10  C   UNL     1      46.221  11.137  11.701  0.00  0.00    +0.000 A 
ATOM     11  C   UNL     1      47.469  10.527  11.645  0.00  0.00    +0.000 A 
ATOM     12  C   UNL     1      47.644   9.156  11.959  0.00  0.00    +0.000 A 
BRANCH  12  13
ATOM     13  C   UNL     1      49.046   8.620  11.756  0.00  0.00    +0.000 C 
ATOM     14  F   UNL     1      49.767   8.368  12.879  0.00  0.00    +0.000 F 
ATOM     15  F   UNL     1      49.045   7.435  11.074  0.00  0.00    +0.000 F 
ATOM     16  F   UNL     1      49.809   9.464  11.001  0.00  0.00    +0.000 F 
ENDBRANCH  12  13
ENDBRANCH   5   7
BRANCH   1  17
ATOM     17  C   UNL     1      44.955   3.622  12.426  0.00  0.00    +0.000 C 
BRANCH  17  18
ATOM     18  C   UNL     1      44.043   4.160  11.323  0.00  0.00    +0.000 C 
BRANCH  18  19
ATOM     19  N   UNL     1      43.777   3.094  10.353  0.00  0.00    +0.000 N 
ATOM     20  H   UNL     1      42.852   3.172   9.937  0.00  0.00    +0.000 HD
BRANCH  19  24
ATOM     21  C   UNL     1      46.471   2.881   7.260  0.00  0.00    +0.000 A 
ATOM     22  C   UNL     1      46.240   1.782   8.068  0.00  0.00    +0.000 A 
ATOM     23  N   UNL     1      45.373   1.817   9.113  0.00  0.00    +0.000 NA
ATOM     24  C   UNL     1      44.738   2.987   9.337  0.00  0.00    +0.000 A 
ATOM     25  C   UNL     1      44.997   4.092   8.513  0.00  0.00    +0.000 A 
ATOM     26  N   UNL     1      45.863   4.081   7.466  0.00  0.00    +0.000 NA
BRANCH  21  28
ATOM     27  N   UNL     1      48.672   2.401   6.390  0.00  0.00    +0.000 N 
ATOM     28  C   UNL     1      47.387   2.761   6.093  0.00  0.00    +0.000 C 
ATOM     29  O   UNL     1      47.023   2.979   4.947  0.00  0.00    +0.000 OA
ATOM     30  H   UNL     1      49.355   2.334   5.650  0.00  0.00    +0.000 HD
ATOM     31  H   UNL     1      48.945   2.250   7.357  0.00  0.00    +0.000 HD
ENDBRANCH  21  28
ENDBRANCH  19  24
ENDBRANCH  18  19
ENDBRANCH  17  18
ENDBRANCH   1  17
TORSDOF 7
ENDMDL
MODEL 9
REMARK VINA RESULT:    -7.245      4.350      6.282
REMARK INTER + INTRA:         -11.333
REMARK INTER:                  -9.751
REMARK INTRA:                  -1.583
REMARK UNBOUND:                -1.124
REMARK  Name = 
REMARK  7 active torsions:
REMARK  status: ('A' for Active; 'I' for Inactive)
REMARK    1  A    between atoms: C_2  and  C_4
REMARK    2  A    between atoms: C_7  and  N_8
REMARK    3  A    between atoms: N_8  and  C_9
REMARK    4  A    between atoms: C_9  and  C_10
REMARK    5  A    between atoms: C_10  and  C_11
REMARK    6  A    between atoms: C_15  and  C_16
REMARK    7  A    between atoms: C_21  and  C_22
REMARK                            x       y       z     vdW  Elec       q    Type
REMARK                         _______ _______ _______ _____ _____    ______ ____
ROOT
ATOM      1  C   UNL     1      48.322   8.518  15.719  0.00  0.00    +0.000 A 
ATOM      2  C   UNL     1      47.986   9.242  16.863  0.00  0.00    +0.000 A 
ATOM      3  C   UNL     1      48.223   8.698  18.121  0.00  0.00    +0.000 A 
ATOM      4  C   UNL     1      48.811   7.434  18.240  0.00  0.00    +0.000 A 
ATOM      5  C   UNL     1      49.131   6.658  17.110  0.00  0.00    +0.000 A 
ATOM      6  C   UNL     1      48.837   7.218  15.855  0.00  0.00    +0.000 A 
ENDROOT
BRANCH   5   7
ATOM      7  C   UNL     1      49.672   5.277  17.235  0.00  0.00    +0.000 A 
ATOM      8  C   UNL     1      51.079   5.117  17.267  0.00  0.00    +0.000 A 
ATOM      9  C   UNL     1      51.688   3.883  17.507  0.00  0.00    +0.000 A 
ATOM     10  C   UNL     1      50.906   2.767  17.752  0.00  0.00    +0.000 A 
ATOM     11  C   UNL     1      49.522   2.878  17.689  0.00  0.00    +0.000 A 
ATOM     12  C   UNL     1      48.886   4.108  17.387  0.00  0.00    +0.000 A 
BRANCH  12  13
ATOM     13  C   UNL     1      47.378   4.041  17.259  0.00  0.00    +0.000 C 
ATOM     14  F   UNL     1      46.803   2.833  17.499  0.00  0.00    +0.000 F 
ATOM     15  F   UNL     1      46.754   4.897  18.125  0.00  0.00    +0.000 F 
ATOM     16  F   UNL     1      46.954   4.419  16.018  0.00  0.00    +0.000 F 
ENDBRANCH  12  13
ENDBRANCH   5   7
BRANCH   1  17
ATOM     17  C   UNL     1      48.139   9.110  14.346  0.00  0.00    +0.000 C 
BRANCH  17  18
ATOM     18  C   UNL     1      47.721   8.065  13.311  0.00  0.00    +0.000 C 
BRANCH  18  19
ATOM     19  N   UNL     1      46.267   7.885  13.365  0.00  0.00    +0.000 N 
ATOM     20  H   UNL     1      45.765   8.672  12.960  0.00  0.00    +0.000 HD
BRANCH  19  24
ATOM     21  C   UNL     1      44.755   4.466  11.665  0.00  0.00    +0.000 A 
ATOM     22  C   UNL     1      45.687   4.391  12.685  0.00  0.00    +0.000 A 
ATOM     23  N   UNL     1      46.226   5.498  13.260  0.00  0.00    +0.000 NA
ATOM     24  C   UNL     1      45.813   6.691  12.785  0.00  0.00    +0.000 A 
ATOM     25  C   UNL     1      44.878   6.743  11.741  0.00  0.00    +0.000 A 
ATOM     26  N   UNL     1      44.329   5.652  11.149  0.00  0.00    +0.000 NA
BRANCH  21  28
ATOM     27  N   UNL     1      44.960   2.500  10.277  0.00  0.00    +0.000 N 
ATOM     28  C   UNL     1      44.156   3.218  11.118  0.00  0.00    +0.000 C 
ATOM     29  O   UNL     1      43.020   2.860  11.391  0.00  0.00    +0.000 OA
ATOM     30  H   UNL     1      44.605   1.661   9.843  0.00  0.00    +0.000 HD
ATOM     31  H   UNL     1      45.891   2.840  10.054  0.00  0.00    +0.000 HD
ENDBRANCH  21  28
ENDBRANCH  19  24
ENDBRANCH  18  19
ENDBRANCH  17  18
ENDBRANCH   1  17
TORSDOF 7
ENDMDL
