MODEL 1
REMARK VINA RESULT:    -7.834      0.000      0.000
REMARK INTER + INTRA:         -10.363
REMARK INTER:                  -9.666
REMARK INTRA:                  -0.696
REMARK UNBOUND:                -0.696
REMARK  Name = 
REMARK  5 active torsions:
REMARK  status: ('A' for Active; 'I' for Inactive)
REMARK    1  A    between atoms: C_1  and  C_2
REMARK    2  A    between atoms: C_2  and  O_3
REMARK    3  A    between atoms: C_2  and  C_14
REMARK    4  A    between atoms: O_3  and  C_4
REMARK    5  A    between atoms: C_7  and  C_8
REMARK                            x       y       z     vdW  Elec       q    Type
REMARK                         _______ _______ _______ _____ _____    ______ ____
ROOT
ATOM      1  C   UNL     1      44.837   3.316   9.441  0.00  0.00    +0.000 A 
ATOM      2  C   UNL     1      45.333   4.377   8.684  0.00  0.00    +0.000 A 
ATOM      3  C   UNL     1      46.193   4.140   7.610  0.00  0.00    +0.000 A 
ATOM      4  C   UNL     1      46.577   2.833   7.275  0.00  0.00    +0.000 A 
ATOM      5  C   UNL     1      46.113   1.773   8.067  0.00  0.00    +0.000 A 
ATOM      6 CL   UNL     1      46.581   0.123   7.832  0.00  0.00    +0.000 Cl
ATOM      7  C   UNL     1      45.248   2.019   9.144  0.00  0.00    +0.000 A 
ENDROOT
BRANCH   4   8
ATOM      8  C   UNL     1      47.468   2.695   6.092  0.00  0.00    +0.000 C 
ATOM      9  N   UNL     1      48.787   2.413   6.300  0.00  0.00    +0.000 N 
ATOM     10  O   UNL     1      47.026   2.785   4.952  0.00  0.00    +0.000 OA
ATOM     11  H   UNL     1      49.212   2.409   7.217  0.00  0.00    +0.000 HD
ATOM     12  H   UNL     1      49.389   2.368   5.488  0.00  0.00    +0.000 HD
ENDBRANCH   4   8
BRANCH   1  13
ATOM     13  O   UNL     1      43.995   3.677  10.450  0.00  0.00    +0.000 OA
BRANCH  13  15
ATOM     14  C   UNL     1      43.385   3.539  12.810  0.00  0.00    +0.000 C 
ATOM     15  C   UNL     1      44.504   3.765  11.791  0.00  0.00    +0.000 C 
BRANCH  15  16
ATOM     16  C   UNL     1      45.099   5.156  11.945  0.00  0.00    +0.000 A 
ATOM     17  C   UNL     1      46.385   5.323  12.484  0.00  0.00    +0.000 A 
ATOM     18  C   UNL     1      46.951   6.596  12.585  0.00  0.00    +0.000 A 
ATOM     19  C   UNL     1      46.239   7.715  12.157  0.00  0.00    +0.000 A 
ATOM     20  C   UNL     1      44.953   7.565  11.641  0.00  0.00    +0.000 A 
ATOM     21  C   UNL     1      44.385   6.296  11.539  0.00  0.00    +0.000 A 
ENDBRANCH  15  16
ENDBRANCH  13  15
ENDBRANCH   1  13
TORSDOF 4
ENDMDL
MODEL 2
REMARK VINA RESULT:    -6.670      3.929      6.562
REMARK INTER + INTRA:          -8.927
REMARK INTER:                  -8.291
REMARK INTRA:                  -0.636
REMARK UNBOUND:                -0.696
REMARK  Name = 
REMARK  5 active torsions:
REMARK  status: ('A' for Active; 'I' for Inactive)
REMARK    1  A    between atoms: C_1  and  C_2
REMARK    2  A    between atoms: C_2  and  O_3
REMARK    3  A    between atoms: C_2  and  C_14
REMARK    4  A    between atoms: O_3  and  C_4
REMARK    5  A    between atoms: C_7  and  C_8
REMARK                            x       y       z     vdW  Elec       q    Type
REMARK                         _______ _______ _______ _____ _____    ______ ____
ROOT
ATOM      1  C   UNL     1      45.439   5.505  11.759  0.00  0.00    +0.000 A 
ATOM      2  C   UNL     1      44.456   6.306  11.178  0.00  0.00    +0.000 A 
ATOM      3  C   UNL     1      44.480   7.691  11.349  0.00  0.00    +0.000 A 
ATOM      4  C   UNL     1      45.488   8.303  12.109  0.00  0.00    +0.000 A 
ATOM      5  C   UNL     1      46.446   7.490  12.730  0.00  0.00    +0.000 A 
ATOM      6 CL   UNL     1      47.688   8.095  13.774  0.00  0.00    +0.000 Cl
ATOM      7  C   UNL     1      46.417   6.097  12.552  0.00  0.00    +0.000 A 
ENDROOT
BRANCH   4   8
ATOM      8  C   UNL     1      45.435   9.787  12.195  0.00  0.00    +0.000 C 
ATOM      9  N   UNL     1      44.243  10.379  12.496  0.00  0.00    +0.000 N 
ATOM     10  O   UNL     1      46.445  10.466  12.048  0.00  0.00    +0.000 OA
ATOM     11  H   UNL     1      43.371   9.870  12.547  0.00  0.00    +0.000 HD
ATOM     12  H   UNL     1      44.212  11.391  12.506  0.00  0.00    +0.000 HD
ENDBRANCH   4   8
BRANCH   1  13
ATOM     13  O   UNL     1      45.314   4.172  11.505  0.00  0.00    +0.000 OA
BRANCH  13  15
ATOM     14  C   UNL     1      43.506   2.591  11.066  0.00  0.00    +0.000 C 
ATOM     15  C   UNL     1      44.368   3.731  10.518  0.00  0.00    +0.000 C 
BRANCH  15  16
ATOM     16  C   UNL     1      45.173   3.265   9.315  0.00  0.00    +0.000 A 
ATOM     17  C   UNL     1      45.695   4.199   8.406  0.00  0.00    +0.000 A 
ATOM     18  C   UNL     1      46.473   3.778   7.324  0.00  0.00    +0.000 A 
ATOM     19  C   UNL     1      46.731   2.422   7.135  0.00  0.00    +0.000 A 
ATOM     20  C   UNL     1      46.200   1.483   8.017  0.00  0.00    +0.000 A 
ATOM     21  C   UNL     1      45.424   1.901   9.097  0.00  0.00    +0.000 A 
ENDBRANCH  15  16
ENDBRANCH  13  15
ENDBRANCH   1  13
TORSDOF 4
ENDMDL
MODEL 3
REMARK VINA RESULT:    -6.646      4.048      6.682
REMARK INTER + INTRA:          -8.896
REMARK INTER:                  -8.157
REMARK INTRA:                  -0.739
REMARK UNBOUND:                -0.696
REMARK  Name = 
REMARK  5 active torsions:
REMARK  status: ('A' for Active; 'I' for Inactive)
REMARK    1  A    between atoms: C_1  and  C_2
REMARK    2  A    between atoms: C_2  and  O_3
REMARK    3  A    between atoms: C_2  and  C_14
REMARK    4  A    between atoms: O_3  and  C_4
REMARK    5  A    between atoms: C_7  and  C_8
REMARK                            x       y       z     vdW  Elec       q    Type
REMARK                         _______ _______ _______ _____ _____    ______ ____
ROOT
ATOM      1  C   UNL     1      45.804   5.307  12.386  0.00  0.00    +0.000 A 
ATOM      2  C   UNL     1      46.982   5.278  13.133  0.00  0.00    +0.000 A 
ATOM      3  C   UNL     1      47.550   6.463  13.604  0.00  0.00    +0.000 A 
ATOM      4  C   UNL     1      46.953   7.703  13.331  0.00  0.00    +0.000 A 
ATOM      5  C   UNL     1      45.796   7.730  12.540  0.00  0.00    +0.000 A 
ATOM      6 CL   UNL     1      45.007   9.189  12.042  0.00  0.00    +0.000 Cl
ATOM      7  C   UNL     1      45.229   6.534  12.072  0.00  0.00    +0.000 A 
ENDROOT
BRANCH   4   8
ATOM      8  C   UNL     1      47.626   8.896  13.910  0.00  0.00    +0.000 C 
ATOM      9  N   UNL     1      47.474   9.146  15.242  0.00  0.00    +0.000 N 
ATOM     10  O   UNL     1      48.340   9.617  13.221  0.00  0.00    +0.000 OA
ATOM     11  H   UNL     1      46.835   8.630  15.831  0.00  0.00    +0.000 HD
ATOM     12  H   UNL     1      47.900   9.986  15.612  0.00  0.00    +0.000 HD
ENDBRANCH   4   8
BRANCH   1  13
ATOM     13  O   UNL     1      45.342   4.084  12.000  0.00  0.00    +0.000 OA
BRANCH  13  15
ATOM     14  C   UNL     1      43.231   3.024  11.384  0.00  0.00    +0.000 C 
ATOM     15  C   UNL     1      44.334   4.005  10.980  0.00  0.00    +0.000 C 
BRANCH  15  16
ATOM     16  C   UNL     1      45.030   3.538   9.710  0.00  0.00    +0.000 A 
ATOM     17  C   UNL     1      45.533   4.474   8.792  0.00  0.00    +0.000 A 
ATOM     18  C   UNL     1      46.212   4.049   7.647  0.00  0.00    +0.000 A 
ATOM     19  C   UNL     1      46.389   2.689   7.403  0.00  0.00    +0.000 A 
ATOM     20  C   UNL     1      45.874   1.750   8.295  0.00  0.00    +0.000 A 
ATOM     21  C   UNL     1      45.197   2.171   9.438  0.00  0.00    +0.000 A 
ENDBRANCH  15  16
ENDBRANCH  13  15
ENDBRANCH   1  13
TORSDOF 4
ENDMDL
MODEL 4
REMARK VINA RESULT:    -6.494      4.141      6.752
REMARK INTER + INTRA:          -8.709
REMARK INTER:                  -7.999
REMARK INTRA:                  -0.711
REMARK UNBOUND:                -0.696
REMARK  Name = 
REMARK  5 active torsions:
REMARK  status: ('A' for Active; 'I' for Inactive)
REMARK    1  A    between atoms: C_1  and  C_2
REMARK    2  A    between atoms: C_2  and  O_3
REMARK    3  A    between atoms: C_2  and  C_14
REMARK    4  A    between atoms: O_3  and  C_4
REMARK    5  A    between atoms: C_7  and  C_8
REMARK                            x       y       z     vdW  Elec       q    Type
REMARK                         _______ _______ _______ _____ _____    ______ ____
ROOT
ATOM      1  C   UNL     1      46.088   5.091  12.761  0.00  0.00    +0.000 A 
ATOM      2  C   UNL     1      46.395   4.609  14.033  0.00  0.00    +0.000 A 
ATOM      3  C   UNL     1      47.371   5.234  14.811  0.00  0.00    +0.000 A 
ATOM      4  C   UNL     1      48.065   6.353  14.327  0.00  0.00    +0.000 A 
ATOM      5  C   UNL     1      47.787   6.805  13.030  0.00  0.00    +0.000 A 
ATOM      6 CL   UNL     1      48.630   8.111  12.266  0.00  0.00    +0.000 Cl
ATOM      7  C   UNL     1      46.802   6.173  12.254  0.00  0.00    +0.000 A 
ENDROOT
BRANCH   4   8
ATOM      8  C   UNL     1      49.059   6.959  15.253  0.00  0.00    +0.000 C 
ATOM      9  N   UNL     1      48.612   7.512  16.416  0.00  0.00    +0.000 N 
ATOM     10  O   UNL     1      50.260   6.923  15.005  0.00  0.00    +0.000 OA
ATOM     11  H   UNL     1      47.630   7.636  16.627  0.00  0.00    +0.000 HD
ATOM     12  H   UNL     1      49.294   7.961  17.014  0.00  0.00    +0.000 HD
ENDBRANCH   4   8
BRANCH   1  13
ATOM     13  O   UNL     1      45.107   4.405  12.110  0.00  0.00    +0.000 OA
BRANCH  13  15
ATOM     14  C   UNL     1      43.032   4.919  10.931  0.00  0.00    +0.000 C 
ATOM     15  C   UNL     1      44.561   4.943  10.894  0.00  0.00    +0.000 C 
BRANCH  15  16
ATOM     16  C   UNL     1      45.086   4.078   9.758  0.00  0.00    +0.000 A 
ATOM     17  C   UNL     1      45.742   4.666   8.664  0.00  0.00    +0.000 A 
ATOM     18  C   UNL     1      46.264   3.871   7.640  0.00  0.00    +0.000 A 
ATOM     19  C   UNL     1      46.131   2.485   7.694  0.00  0.00    +0.000 A 
ATOM     20  C   UNL     1      45.462   1.892   8.763  0.00  0.00    +0.000 A 
ATOM     21  C   UNL     1      44.940   2.682   9.786  0.00  0.00    +0.000 A 
ENDBRANCH  15  16
ENDBRANCH  13  15
ENDBRANCH   1  13
TORSDOF 4
ENDMDL
MODEL 5
REMARK VINA RESULT:    -6.475      4.157      6.698
REMARK INTER + INTRA:          -8.685
REMARK INTER:                  -7.961
REMARK INTRA:                  -0.724
REMARK UNBOUND:                -0.696
REMARK  Name = 
REMARK  5 active torsions:
REMARK  status: ('A' for Active; 'I' for Inactive)
REMARK    1  A    between atoms: C_1  and  C_2
REMARK    2  A    between atoms: C_2  and  O_3
REMARK    3  A    between atoms: C_2  and  C_14
REMARK    4  A    between atoms: O_3  and  C_4
REMARK    5  A    between atoms: C_7  and  C_8
REMARK                            x       y       z     vdW  Elec       q    Type
REMARK                         _______ _______ _______ _____ _____    ______ ____
ROOT
ATOM      1  C   UNL     1      45.982   4.758  12.958  0.00  0.00    +0.000 A 
ATOM      2  C   UNL     1      46.475   5.991  12.533  0.00  0.00    +0.000 A 
ATOM      3  C   UNL     1      47.417   6.679  13.300  0.00  0.00    +0.000 A 
ATOM      4  C   UNL     1      47.880   6.147  14.513  0.00  0.00    +0.000 A 
ATOM      5  C   UNL     1      47.347   4.930  14.959  0.00  0.00    +0.000 A 
ATOM      6 CL   UNL     1      47.752   4.202  16.477  0.00  0.00    +0.000 Cl
ATOM      7  C   UNL     1      46.402   4.243  14.181  0.00  0.00    +0.000 A 
ENDROOT
BRANCH   4   8
ATOM      8  C   UNL     1      48.908   6.948  15.230  0.00  0.00    +0.000 C 
ATOM      9  N   UNL     1      48.519   7.692  16.305  0.00  0.00    +0.000 N 
ATOM     10  O   UNL     1      50.087   6.910  14.897  0.00  0.00    +0.000 OA
ATOM     11  H   UNL     1      47.551   7.818  16.568  0.00  0.00    +0.000 HD
ATOM     12  H   UNL     1      49.220   8.267  16.755  0.00  0.00    +0.000 HD
ENDBRANCH   4   8
BRANCH   1  13
ATOM     13  O   UNL     1      45.081   4.180  12.113  0.00  0.00    +0.000 OA
BRANCH  13  15
ATOM     14  C   UNL     1      43.166   5.045  10.872  0.00  0.00    +0.000 C 
ATOM     15  C   UNL     1      44.686   4.881  10.923  0.00  0.00    +0.000 C 
BRANCH  15  16
ATOM     16  C   UNL     1      45.177   4.055   9.744  0.00  0.00    +0.000 A 
ATOM     17  C   UNL     1      45.804   4.679   8.653  0.00  0.00    +0.000 A 
ATOM     18  C   UNL     1      46.296   3.919   7.589  0.00  0.00    +0.000 A 
ATOM     19  C   UNL     1      46.161   2.532   7.599  0.00  0.00    +0.000 A 
ATOM     20  C   UNL     1      45.521   1.904   8.664  0.00  0.00    +0.000 A 
ATOM     21  C   UNL     1      45.029   2.659   9.728  0.00  0.00    +0.000 A 
ENDBRANCH  15  16
ENDBRANCH  13  15
ENDBRANCH   1  13
TORSDOF 4
ENDMDL
MODEL 6
REMARK VINA RESULT:    -6.059      4.759      6.778
REMARK INTER + INTRA:          -8.172
REMARK INTER:                  -7.556
REMARK INTRA:                  -0.617
REMARK UNBOUND:                -0.696
REMARK  Name = 
REMARK  5 active torsions:
REMARK  status: ('A' for Active; 'I' for Inactive)
REMARK    1  A    between atoms: C_1  and  C_2
REMARK    2  A    between atoms: C_2  and  O_3
REMARK    3  A    between atoms: C_2  and  C_14
REMARK    4  A    between atoms: O_3  and  C_4
REMARK    5  A    between atoms: C_7  and  C_8
REMARK                            x       y       z     vdW  Elec       q    Type
REMARK                         _______ _______ _______ _____ _____    ______ ____
ROOT
ATOM      1  C   UNL     1      46.987   5.625  13.420  0.00  0.00    +0.000 A 
ATOM      2  C   UNL     1      46.233   4.456  13.309  0.00  0.00    +0.000 A 
ATOM      3  C   UNL     1      45.032   4.454  12.597  0.00  0.00    +0.000 A 
ATOM      4  C   UNL     1      44.559   5.624  11.986  0.00  0.00    +0.000 A 
ATOM      5  C   UNL     1      45.296   6.807  12.140  0.00  0.00    +0.000 A 
ATOM      6 CL   UNL     1      44.786   8.343  11.525  0.00  0.00    +0.000 Cl
ATOM      7  C   UNL     1      46.504   6.801  12.856  0.00  0.00    +0.000 A 
ENDROOT
BRANCH   4   8
ATOM      8  C   UNL     1      43.287   5.498  11.225  0.00  0.00    +0.000 C 
ATOM      9  N   UNL     1      42.158   6.058  11.747  0.00  0.00    +0.000 N 
ATOM     10  O   UNL     1      43.256   4.945  10.131  0.00  0.00    +0.000 OA
ATOM     11  H   UNL     1      42.117   6.453  12.678  0.00  0.00    +0.000 HD
ATOM     12  H   UNL     1      41.292   5.925  11.241  0.00  0.00    +0.000 HD
ENDBRANCH   4   8
BRANCH   1  13
ATOM     13  O   UNL     1      48.146   5.492  14.126  0.00  0.00    +0.000 OA
BRANCH  13  15
ATOM     14  C   UNL     1      49.550   7.031  15.398  0.00  0.00    +0.000 C 
ATOM     15  C   UNL     1      48.284   6.173  15.384  0.00  0.00    +0.000 C 
BRANCH  15  16
ATOM     16  C   UNL     1      48.349   5.099  16.458  0.00  0.00    +0.000 A 
ATOM     17  C   UNL     1      47.272   4.219  16.650  0.00  0.00    +0.000 A 
ATOM     18  C   UNL     1      47.347   3.203  17.606  0.00  0.00    +0.000 A 
ATOM     19  C   UNL     1      48.493   3.059  18.385  0.00  0.00    +0.000 A 
ATOM     20  C   UNL     1      49.560   3.940  18.221  0.00  0.00    +0.000 A 
ATOM     21  C   UNL     1      49.488   4.955  17.267  0.00  0.00    +0.000 A 
ENDBRANCH  15  16
ENDBRANCH  13  15
ENDBRANCH   1  13
TORSDOF 4
ENDMDL
MODEL 7
REMARK VINA RESULT:    -5.944      4.429      6.309
REMARK INTER + INTRA:          -8.031
REMARK INTER:                  -7.483
REMARK INTRA:                  -0.548
REMARK UNBOUND:                -0.696
REMARK  Name = 
REMARK  5 active torsions:
REMARK  status: ('A' for Active; 'I' for Inactive)
REMARK    1  A    between atoms: C_1  and  C_2
REMARK    2  A    between atoms: C_2  and  O_3
REMARK    3  A    between atoms: C_2  and  C_14
REMARK    4  A    between atoms: O_3  and  C_4
REMARK    5  A    between atoms: C_7  and  C_8
REMARK                            x       y       z     vdW  Elec       q    Type
REMARK                         _______ _______ _______ _____ _____    ______ ____
ROOT
ATOM      1  C   UNL     1      47.061   5.410  13.337  0.00  0.00    +0.000 A 
ATOM      2  C   UNL     1      46.778   6.549  12.584  0.00  0.00    +0.000 A 
ATOM      3  C   UNL     1      45.614   6.618  11.816  0.00  0.00    +0.000 A 
ATOM      4  C   UNL     1      44.712   5.544  11.783  0.00  0.00    +0.000 A 
ATOM      5  C   UNL     1      45.024   4.383  12.504  0.00  0.00    +0.000 A 
ATOM      6 CL   UNL     1      44.056   2.948  12.480  0.00  0.00    +0.000 Cl
ATOM      7  C   UNL     1      46.196   4.322  13.276  0.00  0.00    +0.000 A 
ENDROOT
BRANCH   4   8
ATOM      8  C   UNL     1      43.489   5.740  10.959  0.00  0.00    +0.000 C 
ATOM      9  N   UNL     1      42.678   6.800  11.241  0.00  0.00    +0.000 N 
ATOM     10  O   UNL     1      43.235   4.998  10.017  0.00  0.00    +0.000 OA
ATOM     11  H   UNL     1      42.802   7.390  12.053  0.00  0.00    +0.000 HD
ATOM     12  H   UNL     1      41.826   6.894  10.702  0.00  0.00    +0.000 HD
ENDBRANCH   4   8
BRANCH   1  13
ATOM     13  O   UNL     1      48.218   5.473  14.056  0.00  0.00    +0.000 OA
BRANCH  13  15
ATOM     14  C   UNL     1      49.403   7.106  15.430  0.00  0.00    +0.000 C 
ATOM     15  C   UNL     1      48.219   6.142  15.327  0.00  0.00    +0.000 C 
BRANCH  15  16
ATOM     16  C   UNL     1      48.313   5.060  16.392  0.00  0.00    +0.000 A 
ATOM     17  C   UNL     1      49.454   4.960  17.204  0.00  0.00    +0.000 A 
ATOM     18  C   UNL     1      49.525   3.996  18.213  0.00  0.00    +0.000 A 
ATOM     19  C   UNL     1      48.462   3.118  18.416  0.00  0.00    +0.000 A 
ATOM     20  C   UNL     1      47.334   3.192  17.602  0.00  0.00    +0.000 A 
ATOM     21  C   UNL     1      47.260   4.153  16.595  0.00  0.00    +0.000 A 
ENDBRANCH  15  16
ENDBRANCH  13  15
ENDBRANCH   1  13
TORSDOF 4
ENDMDL
MODEL 8
REMARK VINA RESULT:    -5.807      5.038      6.907
REMARK INTER + INTRA:          -7.862
REMARK INTER:                  -7.221
REMARK INTRA:                  -0.641
REMARK UNBOUND:                -0.696
REMARK  Name = 
REMARK  5 active torsions:
REMARK  status: ('A' for Active; 'I' for Inactive)
REMARK    1  A    between atoms: C_1  and  C_2
REMARK    2  A    between atoms: C_2  and  O_3
REMARK    3  A    between atoms: C_2  and  C_14
REMARK    4  A    between atoms: O_3  and  C_4
REMARK    5  A    between atoms: C_7  and  C_8
REMARK                            x       y       z     vdW  Elec       q    Type
REMARK                         _______ _______ _______ _____ _____    ______ ____
ROOT
ATOM      1  C   UNL     1      47.535   5.246  14.546  0.00  0.00    +0.000 A 
ATOM      2  C   UNL     1      47.624   6.460  13.864  0.00  0.00    +0.000 A 
ATOM      3  C   UNL     1      46.864   6.683  12.715  0.00  0.00    +0.000 A 
ATOM      4  C   UNL     1      46.002   5.692  12.222  0.00  0.00    +0.000 A 
ATOM      5  C   UNL     1      45.950   4.458  12.884  0.00  0.00    +0.000 A 
ATOM      6 CL   UNL     1      45.007   3.113  12.337  0.00  0.00    +0.000 Cl
ATOM      7  C   UNL     1      46.716   4.241  14.041  0.00  0.00    +0.000 A 
ENDROOT
BRANCH   4   8
ATOM      8  C   UNL     1      45.215   6.051  11.012  0.00  0.00    +0.000 C 
ATOM      9  N   UNL     1      45.667   5.632   9.794  0.00  0.00    +0.000 N 
ATOM     10  O   UNL     1      44.159   6.668  11.102  0.00  0.00    +0.000 OA
ATOM     11  H   UNL     1      46.568   5.193   9.662  0.00  0.00    +0.000 HD
ATOM     12  H   UNL     1      45.147   5.923   8.976  0.00  0.00    +0.000 HD
ENDBRANCH   4   8
BRANCH   1  13
ATOM     13  O   UNL     1      48.314   5.159  15.662  0.00  0.00    +0.000 OA
BRANCH  13  15
ATOM     14  C   UNL     1      47.286   4.733  17.834  0.00  0.00    +0.000 C 
ATOM     15  C   UNL     1      48.032   4.142  16.637  0.00  0.00    +0.000 C 
BRANCH  15  16
ATOM     16  C   UNL     1      49.372   3.565  17.068  0.00  0.00    +0.000 A 
ATOM     17  C   UNL     1      49.643   2.197  16.903  0.00  0.00    +0.000 A 
ATOM     18  C   UNL     1      50.888   1.673  17.257  0.00  0.00    +0.000 A 
ATOM     19  C   UNL     1      51.872   2.505  17.787  0.00  0.00    +0.000 A 
ATOM     20  C   UNL     1      51.608   3.860  17.978  0.00  0.00    +0.000 A 
ATOM     21  C   UNL     1      50.366   4.386  17.625  0.00  0.00    +0.000 A 
ENDBRANCH  15  16
ENDBRANCH  13  15
ENDBRANCH   1  13
TORSDOF 4
ENDMDL
MODEL 9
REMARK VINA RESULT:    -5.738      3.619      6.268
REMARK INTER + INTRA:          -7.777
REMARK INTER:                  -8.797
REMARK INTRA:                   1.021
REMARK UNBOUND:                -0.696
REMARK  Name = 
REMARK  5 active torsions:
REMARK  status: ('A' for Active; 'I' for Inactive)
REMARK    1  A    between atoms: C_1  and  C_2
REMARK    2  A    between atoms: C_2  and  O_3
REMARK    3  A    between atoms: C_2  and  C_14
REMARK    4  A    between atoms: O_3  and  C_4
REMARK    5  A    between atoms: C_7  and  C_8
REMARK                            x       y       z     vdW  Elec       q    Type
REMARK                         _______ _______ _______ _____ _____    ______ ____
ROOT
ATOM      1  C   UNL     1      45.337   5.586  11.705  0.00  0.00    +0.000 A 
ATOM      2  C   UNL     1      44.858   4.706  12.675  0.00  0.00    +0.000 A 
ATOM      3  C   UNL     1      45.617   4.427  13.813  0.00  0.00    +0.000 A 
ATOM      4  C   UNL     1      46.874   5.020  14.000  0.00  0.00    +0.000 A 
ATOM      5  C   UNL     1      47.371   5.868  13.000  0.00  0.00    +0.000 A 
ATOM      6 CL   UNL     1      48.943   6.593  13.049  0.00  0.00    +0.000 Cl
ATOM      7  C   UNL     1      46.602   6.146  11.859  0.00  0.00    +0.000 A 
ENDROOT
BRANCH   4   8
ATOM      8  C   UNL     1      47.579   4.678  15.264  0.00  0.00    +0.000 C 
ATOM      9  N   UNL     1      47.424   3.423  15.776  0.00  0.00    +0.000 N 
ATOM     10  O   UNL     1      48.322   5.484  15.813  0.00  0.00    +0.000 OA
ATOM     11  H   UNL     1      46.764   2.753  15.405  0.00  0.00    +0.000 HD
ATOM     12  H   UNL     1      47.873   3.219  16.660  0.00  0.00    +0.000 HD
ENDBRANCH   4   8
BRANCH   1  13
ATOM     13  O   UNL     1      44.496   5.788  10.651  0.00  0.00    +0.000 OA
BRANCH  13  15
ATOM     14  C   UNL     1      43.154   3.844  11.264  0.00  0.00    +0.000 C 
ATOM     15  C   UNL     1      43.747   4.679  10.128  0.00  0.00    +0.000 C 
BRANCH  15  16
ATOM     16  C   UNL     1      44.714   3.849   9.298  0.00  0.00    +0.000 A 
ATOM     17  C   UNL     1      44.776   2.455   9.463  0.00  0.00    +0.000 A 
ATOM     18  C   UNL     1      45.632   1.685   8.671  0.00  0.00    +0.000 A 
ATOM     19  C   UNL     1      46.439   2.297   7.714  0.00  0.00    +0.000 A 
ATOM     20  C   UNL     1      46.403   3.680   7.557  0.00  0.00    +0.000 A 
ATOM     21  C   UNL     1      45.550   4.452   8.345  0.00  0.00    +0.000 A 
ENDBRANCH  15  16
ENDBRANCH  13  15
ENDBRANCH   1  13
TORSDOF 4
ENDMDL
