MODEL 1
REMARK VINA RESULT:    -7.486      0.000      0.000
REMARK INTER + INTRA:          -9.559
REMARK INTER:                  -9.455
REMARK INTRA:                  -0.105
REMARK UNBOUND:                -0.105
REMARK  Name = 
REMARK  7 active torsions:
REMARK  status: ('A' for Active; 'I' for Inactive)
REMARK    1  A    between atoms: C_1  and  O_2
REMARK    2  A    between atoms: O_2  and  C_3
REMARK    3  A    between atoms: C_5  and  C_6
REMARK    4  A    between atoms: C_11  and  C_12
REMARK    5  A    between atoms: C_12  and  C_13
REMARK    6  A    between atoms: C_16  and  O_17
REMARK    7  A    between atoms: C_18  and  C_19
REMARK                            x       y       z     vdW  Elec       q    Type
REMARK                         _______ _______ _______ _____ _____    ______ ____
ROOT
ATOM      1  C   UNL     1      44.147   3.213  10.185  0.00  0.00    +0.000 A 
ATOM      2  C   UNL     1      44.739   2.298   9.304  0.00  0.00    +0.000 A 
ATOM      3  C   UNL     1      45.724   2.718   8.402  0.00  0.00    +0.000 A 
ATOM      4  C   UNL     1      46.071   4.066   8.327  0.00  0.00    +0.000 A 
ATOM      5  C   UNL     1      45.468   4.980   9.190  0.00  0.00    +0.000 A 
ATOM      6  C   UNL     1      44.520   4.577  10.154  0.00  0.00    +0.000 A 
ENDROOT
BRANCH   3   7
ATOM      7  C   UNL     1      46.369   1.695   7.537  0.00  0.00    +0.000 C 
ATOM      8  N   UNL     1      46.796   2.095   6.301  0.00  0.00    +0.000 N 
ATOM      9  O   UNL     1      46.558   0.551   7.928  0.00  0.00    +0.000 OA
ATOM     10  H   UNL     1      46.907   3.069   6.055  0.00  0.00    +0.000 HD
ATOM     11  H   UNL     1      47.343   1.418   5.782  0.00  0.00    +0.000 HD
ENDBRANCH   3   7
BRANCH   6  12
ATOM     12  C   UNL     1      44.081   5.572  11.242  0.00  0.00    +0.000 C 
ATOM     13  C   UNL     1      42.654   5.502  11.759  0.00  0.00    +0.000 C 
ATOM     14  C   UNL     1      43.066   6.656  10.905  0.00  0.00    +0.000 C 
BRANCH  12  15
ATOM     15  C   UNL     1      45.240   5.939  12.173  0.00  0.00    +0.000 A 
ATOM     16  C   UNL     1      45.582   5.142  13.275  0.00  0.00    +0.000 A 
ATOM     17  C   UNL     1      46.812   5.293  13.918  0.00  0.00    +0.000 A 
ATOM     18  C   UNL     1      47.725   6.242  13.460  0.00  0.00    +0.000 A 
ATOM     19  C   UNL     1      47.396   7.103  12.412  0.00  0.00    +0.000 A 
ATOM     20  C   UNL     1      48.352   8.122  11.866  0.00  0.00    +0.000 C 
ATOM     21  C   UNL     1      46.136   6.966  11.811  0.00  0.00    +0.000 A 
BRANCH  18  22
ATOM     22  O   UNL     1      48.972   6.306  14.008  0.00  0.00    +0.000 OA
ATOM     23  H   UNL     1      49.174   7.238  14.199  0.00  0.00    +0.000 HD
ENDBRANCH  18  22
ENDBRANCH  12  15
ENDBRANCH   6  12
BRANCH   1  25
ATOM     24  C   UNL     1      43.639   2.133  12.255  0.00  0.00    +0.000 C 
ATOM     25  O   UNL     1      43.201   2.871  11.120  0.00  0.00    +0.000 OA
ENDBRANCH   1  25
TORSDOF 5
ENDMDL
MODEL 2
REMARK VINA RESULT:    -7.244      2.751      6.025
REMARK INTER + INTRA:          -9.254
REMARK INTER:                  -9.279
REMARK INTRA:                   0.025
REMARK UNBOUND:                -0.105
REMARK  Name = 
REMARK  7 active torsions:
REMARK  status: ('A' for Active; 'I' for Inactive)
REMARK    1  A    between atoms: C_1  and  O_2
REMARK    2  A    between atoms: O_2  and  C_3
REMARK    3  A    between atoms: C_5  and  C_6
REMARK    4  A    between atoms: C_11  and  C_12
REMARK    5  A    between atoms: C_12  and  C_13
REMARK    6  A    between atoms: C_16  and  O_17
REMARK    7  A    between atoms: C_18  and  C_19
REMARK                            x       y       z     vdW  Elec       q    Type
REMARK                         _______ _______ _______ _____ _____    ______ ____
ROOT
ATOM      1  C   UNL     1      45.346   6.130  12.205  0.00  0.00    +0.000 A 
ATOM      2  C   UNL     1      46.380   6.731  12.934  0.00  0.00    +0.000 A 
ATOM      3  C   UNL     1      47.317   5.943  13.615  0.00  0.00    +0.000 A 
ATOM      4  C   UNL     1      47.185   4.556  13.627  0.00  0.00    +0.000 A 
ATOM      5  C   UNL     1      46.145   3.959  12.917  0.00  0.00    +0.000 A 
ATOM      6  C   UNL     1      45.223   4.721  12.169  0.00  0.00    +0.000 A 
ENDROOT
BRANCH   3   7
ATOM      7  C   UNL     1      48.435   6.629  14.316  0.00  0.00    +0.000 C 
ATOM      8  N   UNL     1      48.232   6.990  15.620  0.00  0.00    +0.000 N 
ATOM      9  O   UNL     1      49.513   6.823  13.771  0.00  0.00    +0.000 OA
ATOM     10  H   UNL     1      47.478   6.611  16.175  0.00  0.00    +0.000 HD
ATOM     11  H   UNL     1      49.045   7.340  16.114  0.00  0.00    +0.000 HD
ENDBRANCH   3   7
BRANCH   6  12
ATOM     12  C   UNL     1      44.260   4.006  11.205  0.00  0.00    +0.000 C 
ATOM     13  C   UNL     1      42.767   4.249  11.355  0.00  0.00    +0.000 C 
ATOM     14  C   UNL     1      43.334   2.919  11.735  0.00  0.00    +0.000 C 
BRANCH  12  15
ATOM     15  C   UNL     1      44.890   3.801   9.825  0.00  0.00    +0.000 A 
ATOM     16  C   UNL     1      45.423   4.871   9.091  0.00  0.00    +0.000 A 
ATOM     17  C   UNL     1      46.271   4.646   8.005  0.00  0.00    +0.000 A 
ATOM     18  C   UNL     1      46.607   3.343   7.642  0.00  0.00    +0.000 A 
ATOM     19  C   UNL     1      46.043   2.250   8.301  0.00  0.00    +0.000 A 
ATOM     20  C   UNL     1      46.393   0.829   7.966  0.00  0.00    +0.000 C 
ATOM     21  C   UNL     1      45.157   2.497   9.359  0.00  0.00    +0.000 A 
BRANCH  18  22
ATOM     22  O   UNL     1      47.531   3.125   6.662  0.00  0.00    +0.000 OA
ATOM     23  H   UNL     1      47.976   2.281   6.845  0.00  0.00    +0.000 HD
ENDBRANCH  18  22
ENDBRANCH  12  15
ENDBRANCH   6  12
BRANCH   1  25
ATOM     24  C   UNL     1      44.567   8.244  11.409  0.00  0.00    +0.000 C 
ATOM     25  O   UNL     1      44.411   6.832  11.485  0.00  0.00    +0.000 OA
ENDBRANCH   1  25
TORSDOF 5
ENDMDL
MODEL 3
REMARK VINA RESULT:    -6.777      1.195      1.963
REMARK INTER + INTRA:          -8.664
REMARK INTER:                  -8.370
REMARK INTRA:                  -0.294
REMARK UNBOUND:                -0.105
REMARK  Name = 
REMARK  7 active torsions:
REMARK  status: ('A' for Active; 'I' for Inactive)
REMARK    1  A    between atoms: C_1  and  O_2
REMARK    2  A    between atoms: O_2  and  C_3
REMARK    3  A    between atoms: C_5  and  C_6
REMARK    4  A    between atoms: C_11  and  C_12
REMARK    5  A    between atoms: C_12  and  C_13
REMARK    6  A    between atoms: C_16  and  O_17
REMARK    7  A    between atoms: C_18  and  C_19
REMARK                            x       y       z     vdW  Elec       q    Type
REMARK                         _______ _______ _______ _____ _____    ______ ____
ROOT
ATOM      1  C   UNL     1      45.045   3.368  10.500  0.00  0.00    +0.000 A 
ATOM      2  C   UNL     1      45.399   2.521   9.443  0.00  0.00    +0.000 A 
ATOM      3  C   UNL     1      45.973   3.044   8.277  0.00  0.00    +0.000 A 
ATOM      4  C   UNL     1      46.130   4.421   8.134  0.00  0.00    +0.000 A 
ATOM      5  C   UNL     1      45.760   5.267   9.179  0.00  0.00    +0.000 A 
ATOM      6  C   UNL     1      45.240   4.765  10.391  0.00  0.00    +0.000 A 
ENDROOT
BRANCH   3   7
ATOM      7  C   UNL     1      46.395   2.094   7.213  0.00  0.00    +0.000 C 
ATOM      8  N   UNL     1      46.675   0.810   7.593  0.00  0.00    +0.000 N 
ATOM      9  O   UNL     1      46.445   2.427   6.037  0.00  0.00    +0.000 OA
ATOM     10  H   UNL     1      46.386   0.434   8.484  0.00  0.00    +0.000 HD
ATOM     11  H   UNL     1      46.837   0.152   6.839  0.00  0.00    +0.000 HD
ENDBRANCH   3   7
BRANCH   6  12
ATOM     12  C   UNL     1      45.090   5.711  11.596  0.00  0.00    +0.000 C 
ATOM     13  C   UNL     1      43.715   5.881  12.220  0.00  0.00    +0.000 C 
ATOM     14  C   UNL     1      44.308   7.009  11.441  0.00  0.00    +0.000 C 
BRANCH  12  15
ATOM     15  C   UNL     1      46.355   5.734  12.457  0.00  0.00    +0.000 A 
ATOM     16  C   UNL     1      47.358   6.696  12.270  0.00  0.00    +0.000 A 
ATOM     17  C   UNL     1      48.334   6.916  13.243  0.00  0.00    +0.000 A 
ATOM     18  C   UNL     1      48.317   6.179  14.427  0.00  0.00    +0.000 A 
ATOM     19  C   UNL     1      47.379   5.164  14.622  0.00  0.00    +0.000 A 
ATOM     20  C   UNL     1      47.301   4.361  15.888  0.00  0.00    +0.000 C 
ATOM     21  C   UNL     1      46.436   4.928  13.612  0.00  0.00    +0.000 A 
BRANCH  18  22
ATOM     22  O   UNL     1      49.193   6.477  15.428  0.00  0.00    +0.000 OA
ATOM     23  H   UNL     1      49.322   5.680  15.968  0.00  0.00    +0.000 HD
ENDBRANCH  18  22
ENDBRANCH  12  15
ENDBRANCH   6  12
BRANCH   1  25
ATOM     24  C   UNL     1      43.231   2.308  11.638  0.00  0.00    +0.000 C 
ATOM     25  O   UNL     1      44.511   2.928  11.686  0.00  0.00    +0.000 OA
ENDBRANCH   1  25
TORSDOF 5
ENDMDL
MODEL 4
REMARK VINA RESULT:    -6.633      2.833      6.216
REMARK INTER + INTRA:          -8.483
REMARK INTER:                  -9.079
REMARK INTRA:                   0.596
REMARK UNBOUND:                -0.105
REMARK  Name = 
REMARK  7 active torsions:
REMARK  status: ('A' for Active; 'I' for Inactive)
REMARK    1  A    between atoms: C_1  and  O_2
REMARK    2  A    between atoms: O_2  and  C_3
REMARK    3  A    between atoms: C_5  and  C_6
REMARK    4  A    between atoms: C_11  and  C_12
REMARK    5  A    between atoms: C_12  and  C_13
REMARK    6  A    between atoms: C_16  and  O_17
REMARK    7  A    between atoms: C_18  and  C_19
REMARK                            x       y       z     vdW  Elec       q    Type
REMARK                         _______ _______ _______ _____ _____    ______ ____
ROOT
ATOM      1  C   UNL     1      46.175   5.146  12.463  0.00  0.00    +0.000 A 
ATOM      2  C   UNL     1      46.638   6.322  13.066  0.00  0.00    +0.000 A 
ATOM      3  C   UNL     1      46.209   7.572  12.603  0.00  0.00    +0.000 A 
ATOM      4  C   UNL     1      45.371   7.654  11.492  0.00  0.00    +0.000 A 
ATOM      5  C   UNL     1      44.925   6.484  10.879  0.00  0.00    +0.000 A 
ATOM      6  C   UNL     1      45.288   5.209  11.362  0.00  0.00    +0.000 A 
ENDROOT
BRANCH   3   7
ATOM      7  C   UNL     1      46.676   8.787  13.322  0.00  0.00    +0.000 C 
ATOM      8  N   UNL     1      47.076   8.632  14.621  0.00  0.00    +0.000 N 
ATOM      9  O   UNL     1      46.748   9.875  12.767  0.00  0.00    +0.000 OA
ATOM     10  H   UNL     1      47.289   7.729  15.018  0.00  0.00    +0.000 HD
ATOM     11  H   UNL     1      47.506   9.443  15.050  0.00  0.00    +0.000 HD
ENDBRANCH   3   7
BRANCH   6  12
ATOM     12  C   UNL     1      44.569   3.963  10.815  0.00  0.00    +0.000 C 
ATOM     13  C   UNL     1      43.103   3.758  11.160  0.00  0.00    +0.000 C 
ATOM     14  C   UNL     1      44.131   2.864  11.774  0.00  0.00    +0.000 C 
BRANCH  12  15
ATOM     15  C   UNL     1      45.123   3.544   9.451  0.00  0.00    +0.000 A 
ATOM     16  C   UNL     1      45.652   4.480   8.550  0.00  0.00    +0.000 A 
ATOM     17  C   UNL     1      46.438   4.075   7.470  0.00  0.00    +0.000 A 
ATOM     18  C   UNL     1      46.714   2.722   7.279  0.00  0.00    +0.000 A 
ATOM     19  C   UNL     1      46.150   1.754   8.110  0.00  0.00    +0.000 A 
ATOM     20  C   UNL     1      46.438   0.288   7.963  0.00  0.00    +0.000 C 
ATOM     21  C   UNL     1      45.325   2.179   9.161  0.00  0.00    +0.000 A 
BRANCH  18  22
ATOM     22  O   UNL     1      47.581   2.336   6.299  0.00  0.00    +0.000 OA
ATOM     23  H   UNL     1      48.470   2.647   6.538  0.00  0.00    +0.000 HD
ENDBRANCH  18  22
ENDBRANCH  12  15
ENDBRANCH   6  12
BRANCH   1  25
ATOM     24  C   UNL     1      47.145   3.765  14.154  0.00  0.00    +0.000 C 
ATOM     25  O   UNL     1      46.522   3.884  12.881  0.00  0.00    +0.000 OA
ENDBRANCH   1  25
TORSDOF 5
ENDMDL
MODEL 5
REMARK VINA RESULT:    -6.405      2.772      6.083
REMARK INTER + INTRA:          -8.195
REMARK INTER:                  -8.509
REMARK INTRA:                   0.314
REMARK UNBOUND:                -0.105
REMARK  Name = 
REMARK  7 active torsions:
REMARK  status: ('A' for Active; 'I' for Inactive)
REMARK    1  A    between atoms: C_1  and  O_2
REMARK    2  A    between atoms: O_2  and  C_3
REMARK    3  A    between atoms: C_5  and  C_6
REMARK    4  A    between atoms: C_11  and  C_12
REMARK    5  A    between atoms: C_12  and  C_13
REMARK    6  A    between atoms: C_16  and  O_17
REMARK    7  A    between atoms: C_18  and  C_19
REMARK                            x       y       z     vdW  Elec       q    Type
REMARK                         _______ _______ _______ _____ _____    ______ ____
ROOT
ATOM      1  C   UNL     1      44.258   6.216  11.355  0.00  0.00    +0.000 A 
ATOM      2  C   UNL     1      44.685   7.523  11.623  0.00  0.00    +0.000 A 
ATOM      3  C   UNL     1      45.994   7.765  12.059  0.00  0.00    +0.000 A 
ATOM      4  C   UNL     1      46.858   6.698  12.296  0.00  0.00    +0.000 A 
ATOM      5  C   UNL     1      46.427   5.395  12.048  0.00  0.00    +0.000 A 
ATOM      6  C   UNL     1      45.136   5.123  11.547  0.00  0.00    +0.000 A 
ENDROOT
BRANCH   3   7
ATOM      7  C   UNL     1      46.418   9.175  12.262  0.00  0.00    +0.000 C 
ATOM      8  N   UNL     1      47.674   9.388  12.759  0.00  0.00    +0.000 N 
ATOM      9  O   UNL     1      45.696  10.114  11.955  0.00  0.00    +0.000 OA
ATOM     10  H   UNL     1      48.384   8.669  12.764  0.00  0.00    +0.000 HD
ATOM     11  H   UNL     1      47.988  10.352  12.770  0.00  0.00    +0.000 HD
ENDBRANCH   3   7
BRANCH   6  12
ATOM     12  C   UNL     1      44.803   3.705  11.052  0.00  0.00    +0.000 C 
ATOM     13  C   UNL     1      43.561   3.018  11.596  0.00  0.00    +0.000 C 
ATOM     14  C   UNL     1      44.910   2.528  12.012  0.00  0.00    +0.000 C 
BRANCH  12  15
ATOM     15  C   UNL     1      45.251   3.492   9.604  0.00  0.00    +0.000 A 
ATOM     16  C   UNL     1      45.582   4.569   8.768  0.00  0.00    +0.000 A 
ATOM     17  C   UNL     1      46.288   4.367   7.581  0.00  0.00    +0.000 A 
ATOM     18  C   UNL     1      46.682   3.080   7.215  0.00  0.00    +0.000 A 
ATOM     19  C   UNL     1      46.312   1.975   7.982  0.00  0.00    +0.000 A 
ATOM     20  C   UNL     1      46.733   0.574   7.646  0.00  0.00    +0.000 C 
ATOM     21  C   UNL     1      45.562   2.195   9.146  0.00  0.00    +0.000 A 
BRANCH  18  22
ATOM     22  O   UNL     1      47.476   2.896   6.121  0.00  0.00    +0.000 OA
ATOM     23  H   UNL     1      48.035   2.117   6.279  0.00  0.00    +0.000 HD
ENDBRANCH  18  22
ENDBRANCH  12  15
ENDBRANCH   6  12
BRANCH   1  25
ATOM     24  C   UNL     1      41.943   5.876  11.842  0.00  0.00    +0.000 C 
ATOM     25  O   UNL     1      43.003   5.902  10.893  0.00  0.00    +0.000 OA
ENDBRANCH   1  25
TORSDOF 5
ENDMDL
MODEL 6
REMARK VINA RESULT:    -5.750      3.266      6.810
REMARK INTER + INTRA:          -7.367
REMARK INTER:                  -7.118
REMARK INTRA:                  -0.249
REMARK UNBOUND:                -0.105
REMARK  Name = 
REMARK  7 active torsions:
REMARK  status: ('A' for Active; 'I' for Inactive)
REMARK    1  A    between atoms: C_1  and  O_2
REMARK    2  A    between atoms: O_2  and  C_3
REMARK    3  A    between atoms: C_5  and  C_6
REMARK    4  A    between atoms: C_11  and  C_12
REMARK    5  A    between atoms: C_12  and  C_13
REMARK    6  A    between atoms: C_16  and  O_17
REMARK    7  A    between atoms: C_18  and  C_19
REMARK                            x       y       z     vdW  Elec       q    Type
REMARK                         _______ _______ _______ _____ _____    ______ ____
ROOT
ATOM      1  C   UNL     1      49.189   7.804  13.810  0.00  0.00    +0.000 A 
ATOM      2  C   UNL     1      50.555   8.115  13.851  0.00  0.00    +0.000 A 
ATOM      3  C   UNL     1      51.261   8.359  12.666  0.00  0.00    +0.000 A 
ATOM      4  C   UNL     1      50.623   8.226  11.434  0.00  0.00    +0.000 A 
ATOM      5  C   UNL     1      49.269   7.898  11.393  0.00  0.00    +0.000 A 
ATOM      6  C   UNL     1      48.515   7.709  12.571  0.00  0.00    +0.000 A 
ENDROOT
BRANCH   3   7
ATOM      7  C   UNL     1      52.691   8.753  12.768  0.00  0.00    +0.000 C 
ATOM      8  N   UNL     1      53.613   7.748  12.871  0.00  0.00    +0.000 N 
ATOM      9  O   UNL     1      53.041   9.924  12.715  0.00  0.00    +0.000 OA
ATOM     10  H   UNL     1      53.396   6.788  12.646  0.00  0.00    +0.000 HD
ATOM     11  H   UNL     1      54.584   8.032  12.813  0.00  0.00    +0.000 HD
ENDBRANCH   3   7
BRANCH   6  12
ATOM     12  C   UNL     1      46.982   7.604  12.476  0.00  0.00    +0.000 C 
ATOM     13  C   UNL     1      46.213   8.747  11.834  0.00  0.00    +0.000 C 
ATOM     14  C   UNL     1      46.111   8.534  13.310  0.00  0.00    +0.000 C 
BRANCH  12  15
ATOM     15  C   UNL     1      46.525   6.153  12.307  0.00  0.00    +0.000 A 
ATOM     16  C   UNL     1      46.827   5.168  13.258  0.00  0.00    +0.000 A 
ATOM     17  C   UNL     1      46.149   3.948  13.271  0.00  0.00    +0.000 A 
ATOM     18  C   UNL     1      45.149   3.697  12.332  0.00  0.00    +0.000 A 
ATOM     19  C   UNL     1      44.866   4.621  11.326  0.00  0.00    +0.000 A 
ATOM     20  C   UNL     1      43.781   4.411  10.310  0.00  0.00    +0.000 C 
ATOM     21  C   UNL     1      45.591   5.821  11.303  0.00  0.00    +0.000 A 
BRANCH  18  22
ATOM     22  O   UNL     1      44.403   2.559  12.420  0.00  0.00    +0.000 OA
ATOM     23  H   UNL     1      43.728   2.688  13.107  0.00  0.00    +0.000 HD
ENDBRANCH  18  22
ENDBRANCH  12  15
ENDBRANCH   6  12
BRANCH   1  25
ATOM     24  C   UNL     1      48.955   6.726  15.930  0.00  0.00    +0.000 C 
ATOM     25  O   UNL     1      48.422   7.585  14.928  0.00  0.00    +0.000 OA
ENDBRANCH   1  25
TORSDOF 5
ENDMDL
MODEL 7
REMARK VINA RESULT:    -5.735      3.737      5.773
REMARK INTER + INTRA:          -7.348
REMARK INTER:                  -6.887
REMARK INTRA:                  -0.461
REMARK UNBOUND:                -0.105
REMARK  Name = 
REMARK  7 active torsions:
REMARK  status: ('A' for Active; 'I' for Inactive)
REMARK    1  A    between atoms: C_1  and  O_2
REMARK    2  A    between atoms: O_2  and  C_3
REMARK    3  A    between atoms: C_5  and  C_6
REMARK    4  A    between atoms: C_11  and  C_12
REMARK    5  A    between atoms: C_12  and  C_13
REMARK    6  A    between atoms: C_16  and  O_17
REMARK    7  A    between atoms: C_18  and  C_19
REMARK                            x       y       z     vdW  Elec       q    Type
REMARK                         _______ _______ _______ _____ _____    ______ ____
ROOT
ATOM      1  C   UNL     1      45.856   7.442  12.810  0.00  0.00    +0.000 A 
ATOM      2  C   UNL     1      44.722   6.620  12.820  0.00  0.00    +0.000 A 
ATOM      3  C   UNL     1      44.854   5.231  12.941  0.00  0.00    +0.000 A 
ATOM      4  C   UNL     1      46.121   4.652  12.981  0.00  0.00    +0.000 A 
ATOM      5  C   UNL     1      47.251   5.469  12.951  0.00  0.00    +0.000 A 
ATOM      6  C   UNL     1      47.149   6.875  12.895  0.00  0.00    +0.000 A 
ENDROOT
BRANCH   3   7
ATOM      7  C   UNL     1      43.616   4.411  13.017  0.00  0.00    +0.000 C 
ATOM      8  N   UNL     1      43.751   3.057  12.876  0.00  0.00    +0.000 N 
ATOM      9  O   UNL     1      42.525   4.914  13.245  0.00  0.00    +0.000 OA
ATOM     10  H   UNL     1      44.641   2.589  12.962  0.00  0.00    +0.000 HD
ATOM     11  H   UNL     1      42.917   2.509  13.056  0.00  0.00    +0.000 HD
ENDBRANCH   3   7
BRANCH   6  12
ATOM     12  C   UNL     1      48.408   7.731  13.122  0.00  0.00    +0.000 C 
ATOM     13  C   UNL     1      48.784   8.763  12.072  0.00  0.00    +0.000 C 
ATOM     14  C   UNL     1      49.623   7.536  12.225  0.00  0.00    +0.000 C 
BRANCH  12  15
ATOM     15  C   UNL     1      48.650   7.996  14.610  0.00  0.00    +0.000 A 
ATOM     16  C   UNL     1      48.288   9.210  15.212  0.00  0.00    +0.000 A 
ATOM     17  C   UNL     1      48.209   9.329  16.601  0.00  0.00    +0.000 A 
ATOM     18  C   UNL     1      48.484   8.228  17.411  0.00  0.00    +0.000 A 
ATOM     19  C   UNL     1      48.915   7.023  16.856  0.00  0.00    +0.000 A 
ATOM     20  C   UNL     1      49.197   5.801  17.681  0.00  0.00    +0.000 C 
ATOM     21  C   UNL     1      49.033   6.939  15.461  0.00  0.00    +0.000 A 
BRANCH  18  22
ATOM     22  O   UNL     1      48.287   8.308  18.758  0.00  0.00    +0.000 OA
ATOM     23  H   UNL     1      47.375   8.034  18.950  0.00  0.00    +0.000 HD
ENDBRANCH  18  22
ENDBRANCH  12  15
ENDBRANCH   6  12
BRANCH   1  25
ATOM     24  C   UNL     1      44.938   9.380  11.755  0.00  0.00    +0.000 C 
ATOM     25  O   UNL     1      45.807   8.812  12.729  0.00  0.00    +0.000 OA
ENDBRANCH   1  25
TORSDOF 5
ENDMDL
MODEL 8
REMARK VINA RESULT:    -5.723      3.474      5.411
REMARK INTER + INTRA:          -7.333
REMARK INTER:                  -7.149
REMARK INTRA:                  -0.184
REMARK UNBOUND:                -0.105
REMARK  Name = 
REMARK  7 active torsions:
REMARK  status: ('A' for Active; 'I' for Inactive)
REMARK    1  A    between atoms: C_1  and  O_2
REMARK    2  A    between atoms: O_2  and  C_3
REMARK    3  A    between atoms: C_5  and  C_6
REMARK    4  A    between atoms: C_11  and  C_12
REMARK    5  A    between atoms: C_12  and  C_13
REMARK    6  A    between atoms: C_16  and  O_17
REMARK    7  A    between atoms: C_18  and  C_19
REMARK                            x       y       z     vdW  Elec       q    Type
REMARK                         _______ _______ _______ _____ _____    ______ ____
ROOT
ATOM      1  C   UNL     1      46.598   5.800  13.197  0.00  0.00    +0.000 A 
ATOM      2  C   UNL     1      45.337   5.271  12.892  0.00  0.00    +0.000 A 
ATOM      3  C   UNL     1      44.411   6.022  12.157  0.00  0.00    +0.000 A 
ATOM      4  C   UNL     1      44.714   7.330  11.784  0.00  0.00    +0.000 A 
ATOM      5  C   UNL     1      45.962   7.864  12.104  0.00  0.00    +0.000 A 
ATOM      6  C   UNL     1      46.940   7.111  12.787  0.00  0.00    +0.000 A 
ENDROOT
BRANCH   3   7
ATOM      7  C   UNL     1      43.115   5.387  11.801  0.00  0.00    +0.000 C 
ATOM      8  N   UNL     1      42.013   6.196  11.747  0.00  0.00    +0.000 N 
ATOM      9  O   UNL     1      43.037   4.199  11.519  0.00  0.00    +0.000 OA
ATOM     10  H   UNL     1      42.082   7.203  11.702  0.00  0.00    +0.000 HD
ATOM     11  H   UNL     1      41.170   5.770  11.381  0.00  0.00    +0.000 HD
ENDBRANCH   3   7
BRANCH   6  12
ATOM     12  C   UNL     1      48.376   7.653  12.887  0.00  0.00    +0.000 C 
ATOM     13  C   UNL     1      48.919   8.491  11.740  0.00  0.00    +0.000 C 
ATOM     14  C   UNL     1      49.452   7.111  11.954  0.00  0.00    +0.000 C 
BRANCH  12  15
ATOM     15  C   UNL     1      48.768   7.952  14.336  0.00  0.00    +0.000 A 
ATOM     16  C   UNL     1      48.089   8.911  15.101  0.00  0.00    +0.000 A 
ATOM     17  C   UNL     1      48.227   8.953  16.489  0.00  0.00    +0.000 A 
ATOM     18  C   UNL     1      49.043   8.026  17.136  0.00  0.00    +0.000 A 
ATOM     19  C   UNL     1      49.791   7.100  16.407  0.00  0.00    +0.000 A 
ATOM     20  C   UNL     1      50.663   6.065  17.056  0.00  0.00    +0.000 C 
ATOM     21  C   UNL     1      49.674   7.107  15.009  0.00  0.00    +0.000 A 
BRANCH  18  22
ATOM     22  O   UNL     1      49.082   7.986  18.499  0.00  0.00    +0.000 OA
ATOM     23  H   UNL     1      49.045   7.056  18.778  0.00  0.00    +0.000 HD
ENDBRANCH  18  22
ENDBRANCH  12  15
ENDBRANCH   6  12
BRANCH   1  25
ATOM     24  C   UNL     1      47.175   4.423  15.062  0.00  0.00    +0.000 C 
ATOM     25  O   UNL     1      47.569   5.114  13.882  0.00  0.00    +0.000 OA
ENDBRANCH   1  25
TORSDOF 5
ENDMDL
MODEL 9
REMARK VINA RESULT:    -5.502      3.096      5.303
REMARK INTER + INTRA:          -7.054
REMARK INTER:                  -6.974
REMARK INTRA:                  -0.081
REMARK UNBOUND:                -0.105
REMARK  Name = 
REMARK  7 active torsions:
REMARK  status: ('A' for Active; 'I' for Inactive)
REMARK    1  A    between atoms: C_1  and  O_2
REMARK    2  A    between atoms: O_2  and  C_3
REMARK    3  A    between atoms: C_5  and  C_6
REMARK    4  A    between atoms: C_11  and  C_12
REMARK    5  A    between atoms: C_12  and  C_13
REMARK    6  A    between atoms: C_16  and  O_17
REMARK    7  A    between atoms: C_18  and  C_19
REMARK                            x       y       z     vdW  Elec       q    Type
REMARK                         _______ _______ _______ _____ _____    ______ ____
ROOT
ATOM      1  C   UNL     1      46.640   5.693  13.030  0.00  0.00    +0.000 A 
ATOM      2  C   UNL     1      45.534   5.149  12.366  0.00  0.00    +0.000 A 
ATOM      3  C   UNL     1      44.603   5.986  11.737  0.00  0.00    +0.000 A 
ATOM      4  C   UNL     1      44.736   7.370  11.829  0.00  0.00    +0.000 A 
ATOM      5  C   UNL     1      45.827   7.912  12.507  0.00  0.00    +0.000 A 
ATOM      6  C   UNL     1      46.816   7.096  13.095  0.00  0.00    +0.000 A 
ENDROOT
BRANCH   3   7
ATOM      7  C   UNL     1      43.485   5.356  10.986  0.00  0.00    +0.000 C 
ATOM      8  N   UNL     1      43.773   4.825   9.759  0.00  0.00    +0.000 N 
ATOM      9  O   UNL     1      42.361   5.269  11.461  0.00  0.00    +0.000 OA
ATOM     10  H   UNL     1      44.718   4.634   9.460  0.00  0.00    +0.000 HD
ATOM     11  H   UNL     1      43.029   4.292   9.322  0.00  0.00    +0.000 HD
ENDBRANCH   3   7
BRANCH   6  12
ATOM     12  C   UNL     1      48.120   7.737  13.603  0.00  0.00    +0.000 C 
ATOM     13  C   UNL     1      48.803   7.132  14.818  0.00  0.00    +0.000 C 
ATOM     14  C   UNL     1      48.131   8.460  14.943  0.00  0.00    +0.000 C 
BRANCH  12  15
ATOM     15  C   UNL     1      48.937   8.338  12.457  0.00  0.00    +0.000 A 
ATOM     16  C   UNL     1      48.903   9.709  12.166  0.00  0.00    +0.000 A 
ATOM     17  C   UNL     1      49.873  10.297  11.352  0.00  0.00    +0.000 A 
ATOM     18  C   UNL     1      50.902   9.518  10.823  0.00  0.00    +0.000 A 
ATOM     19  C   UNL     1      50.934   8.139  11.030  0.00  0.00    +0.000 A 
ATOM     20  C   UNL     1      52.033   7.262  10.506  0.00  0.00    +0.000 C 
ATOM     21  C   UNL     1      49.922   7.562  11.811  0.00  0.00    +0.000 A 
BRANCH  18  22
ATOM     22  O   UNL     1      51.918  10.111  10.132  0.00  0.00    +0.000 OA
ATOM     23  H   UNL     1      52.692   9.525  10.165  0.00  0.00    +0.000 HD
ENDBRANCH  18  22
ENDBRANCH  12  15
ENDBRANCH   6  12
BRANCH   1  25
ATOM     24  C   UNL     1      47.189   3.796  14.376  0.00  0.00    +0.000 C 
ATOM     25  O   UNL     1      47.612   4.939  13.640  0.00  0.00    +0.000 OA
ENDBRANCH   1  25
TORSDOF 5
ENDMDL
