MODEL 1
REMARK VINA RESULT:    -8.748      0.000      0.000
REMARK INTER + INTRA:         -11.970
REMARK INTER:                 -11.305
REMARK INTRA:                  -0.665
REMARK UNBOUND:                -0.665
REMARK  Name = 
REMARK  5 active torsions:
REMARK  status: ('A' for Active; 'I' for Inactive)
REMARK    1  A    between atoms: C_8  and  C_9
REMARK    2  A    between atoms: N_11  and  C_12
REMARK    3  A    between atoms: C_12  and  C_13
REMARK    4  A    between atoms: C_16  and  O_17
REMARK    5  A    between atoms: O_17  and  C_18
REMARK                            x       y       z     vdW  Elec       q    Type
REMARK                         _______ _______ _______ _____ _____    ______ ____
ROOT
ATOM      1  C   UNL     1      47.781   7.009  13.701  0.00  0.00    +0.000 C 
ATOM      2  O   UNL     1      48.481   7.348  12.746  0.00  0.00    +0.000 OA
ATOM      3  N   UNL     1      46.415   7.099  13.646  0.00  0.00    +0.000 N 
ATOM      4  H   UNL     1      45.845   6.829  14.443  0.00  0.00    +0.000 HD
ENDROOT
BRANCH   1  12
ATOM      5  N   UNL     1      49.687   3.992  18.865  0.00  0.00    +0.000 N 
ATOM      6  C   UNL     1      48.857   4.116  17.793  0.00  0.00    +0.000 A 
ATOM      7  N   UNL     1      47.944   3.191  17.631  0.00  0.00    +0.000 NA
ATOM      8  N   UNL     1      47.093   3.283  16.550  0.00  0.00    +0.000 N 
ATOM      9  C   UNL     1      47.090   4.266  15.580  0.00  0.00    +0.000 A 
ATOM     10  O   UNL     1      46.279   4.242  14.654  0.00  0.00    +0.000 OA
ATOM     11  C   UNL     1      48.090   5.308  15.741  0.00  0.00    +0.000 A 
ATOM     12  C   UNL     1      48.388   6.485  14.942  0.00  0.00    +0.000 A 
ATOM     13  C   UNL     1      49.450   7.177  15.524  0.00  0.00    +0.000 A 
ATOM     14  S   UNL     1      50.059   6.454  16.944  0.00  0.00    +0.000 S 
ATOM     15  C   UNL     1      48.930   5.200  16.833  0.00  0.00    +0.000 A 
ATOM     16  H   UNL     1      49.543   3.223  19.505  0.00  0.00    +0.000 HD
ATOM     17  H   UNL     1      50.387   4.689  19.071  0.00  0.00    +0.000 HD
ATOM     18  H   UNL     1      46.407   2.544  16.459  0.00  0.00    +0.000 HD
ENDBRANCH   1  12
BRANCH   3  19
ATOM     19  C   UNL     1      45.729   7.593  12.474  0.00  0.00    +0.000 C 
BRANCH  19  20
ATOM     20  C   UNL     1      45.330   6.479  11.536  0.00  0.00    +0.000 A 
ATOM     21  C   UNL     1      44.216   5.681  11.822  0.00  0.00    +0.000 A 
ATOM     22  C   UNL     1      43.857   4.629  10.975  0.00  0.00    +0.000 A 
ATOM     23  C   UNL     1      44.572   4.397   9.795  0.00  0.00    +0.000 A 
ATOM     24  C   UNL     1      45.696   5.170   9.513  0.00  0.00    +0.000 A 
ATOM     25  C   UNL     1      46.077   6.200  10.381  0.00  0.00    +0.000 A 
BRANCH  23  26
ATOM     26  O   UNL     1      44.275   3.408   8.881  0.00  0.00    +0.000 OA
BRANCH  26  27
ATOM     27  C   UNL     1      45.295   2.793   8.197  0.00  0.00    +0.000 A 
ATOM     28  C   UNL     1      45.990   3.367   7.134  0.00  0.00    +0.000 A 
ATOM     29  C   UNL     1      46.942   2.617   6.454  0.00  0.00    +0.000 A 
ATOM     30  C   UNL     1      47.224   1.345   6.920  0.00  0.00    +0.000 A 
ATOM     31  N   UNL     1      46.632   0.785   7.996  0.00  0.00    +0.000 NA
ATOM     32  C   UNL     1      45.677   1.527   8.611  0.00  0.00    +0.000 A 
ENDBRANCH  26  27
ENDBRANCH  23  26
ENDBRANCH  19  20
ENDBRANCH   3  19
TORSDOF 5
ENDMDL
MODEL 2
REMARK VINA RESULT:    -8.038      1.758      2.537
REMARK INTER + INTRA:         -11.052
REMARK INTER:                 -10.417
REMARK INTRA:                  -0.635
REMARK UNBOUND:                -0.665
REMARK  Name = 
REMARK  5 active torsions:
REMARK  status: ('A' for Active; 'I' for Inactive)
REMARK    1  A    between atoms: C_8  and  C_9
REMARK    2  A    between atoms: N_11  and  C_12
REMARK    3  A    between atoms: C_12  and  C_13
REMARK    4  A    between atoms: C_16  and  O_17
REMARK    5  A    between atoms: O_17  and  C_18
REMARK                            x       y       z     vdW  Elec       q    Type
REMARK                         _______ _______ _______ _____ _____    ______ ____
ROOT
ATOM      1  C   UNL     1      47.739   5.829  14.605  0.00  0.00    +0.000 C 
ATOM      2  O   UNL     1      48.738   6.210  13.994  0.00  0.00    +0.000 OA
ATOM      3  N   UNL     1      46.479   6.060  14.120  0.00  0.00    +0.000 N 
ATOM      4  H   UNL     1      45.659   5.753  14.637  0.00  0.00    +0.000 HD
ENDROOT
BRANCH   1  12
ATOM      5  N   UNL     1      48.569   3.647  20.432  0.00  0.00    +0.000 N 
ATOM      6  C   UNL     1      48.638   4.647  19.512  0.00  0.00    +0.000 A 
ATOM      7  N   UNL     1      49.079   5.812  19.921  0.00  0.00    +0.000 NA
ATOM      8  N   UNL     1      49.152   6.848  19.014  0.00  0.00    +0.000 N 
ATOM      9  C   UNL     1      48.801   6.806  17.679  0.00  0.00    +0.000 A 
ATOM     10  O   UNL     1      48.907   7.802  16.963  0.00  0.00    +0.000 OA
ATOM     11  C   UNL     1      48.314   5.524  17.199  0.00  0.00    +0.000 A 
ATOM     12  C   UNL     1      47.861   5.100  15.885  0.00  0.00    +0.000 A 
ATOM     13  C   UNL     1      47.495   3.755  15.939  0.00  0.00    +0.000 A 
ATOM     14  S   UNL     1      47.678   3.043  17.478  0.00  0.00    +0.000 S 
ATOM     15  C   UNL     1      48.252   4.497  18.122  0.00  0.00    +0.000 A 
ATOM     16  H   UNL     1      48.893   3.829  21.372  0.00  0.00    +0.000 HD
ATOM     17  H   UNL     1      48.275   2.716  20.177  0.00  0.00    +0.000 HD
ATOM     18  H   UNL     1      49.493   7.730  19.374  0.00  0.00    +0.000 HD
ENDBRANCH   1  12
BRANCH   3  19
ATOM     19  C   UNL     1      46.257   6.759  12.874  0.00  0.00    +0.000 C 
BRANCH  19  20
ATOM     20  C   UNL     1      45.848   5.824  11.761  0.00  0.00    +0.000 A 
ATOM     21  C   UNL     1      46.031   6.195  10.424  0.00  0.00    +0.000 A 
ATOM     22  C   UNL     1      45.627   5.349   9.388  0.00  0.00    +0.000 A 
ATOM     23  C   UNL     1      45.089   4.090   9.674  0.00  0.00    +0.000 A 
ATOM     24  C   UNL     1      44.880   3.720  11.001  0.00  0.00    +0.000 A 
ATOM     25  C   UNL     1      45.250   4.584  12.038  0.00  0.00    +0.000 A 
BRANCH  23  26
ATOM     26  O   UNL     1      44.694   3.173   8.723  0.00  0.00    +0.000 OA
BRANCH  26  27
ATOM     27  C   UNL     1      45.640   2.575   7.928  0.00  0.00    +0.000 A 
ATOM     28  C   UNL     1      46.177   1.309   8.157  0.00  0.00    +0.000 A 
ATOM     29  C   UNL     1      47.199   0.840   7.339  0.00  0.00    +0.000 A 
ATOM     30  C   UNL     1      47.585   1.623   6.267  0.00  0.00    +0.000 A 
ATOM     31  N   UNL     1      47.033   2.818   5.963  0.00  0.00    +0.000 NA
ATOM     32  C   UNL     1      46.069   3.265   6.806  0.00  0.00    +0.000 A 
ENDBRANCH  26  27
ENDBRANCH  23  26
ENDBRANCH  19  20
ENDBRANCH   3  19
TORSDOF 5
ENDMDL
MODEL 3
REMARK VINA RESULT:    -7.909      1.481      2.103
REMARK INTER + INTRA:         -10.886
REMARK INTER:                 -10.107
REMARK INTRA:                  -0.779
REMARK UNBOUND:                -0.665
REMARK  Name = 
REMARK  5 active torsions:
REMARK  status: ('A' for Active; 'I' for Inactive)
REMARK    1  A    between atoms: C_8  and  C_9
REMARK    2  A    between atoms: N_11  and  C_12
REMARK    3  A    between atoms: C_12  and  C_13
REMARK    4  A    between atoms: C_16  and  O_17
REMARK    5  A    between atoms: O_17  and  C_18
REMARK                            x       y       z     vdW  Elec       q    Type
REMARK                         _______ _______ _______ _____ _____    ______ ____
ROOT
ATOM      1  C   UNL     1      48.837   7.185  15.121  0.00  0.00    +0.000 C 
ATOM      2  O   UNL     1      49.701   7.017  14.259  0.00  0.00    +0.000 OA
ATOM      3  N   UNL     1      47.662   7.827  14.832  0.00  0.00    +0.000 N 
ATOM      4  H   UNL     1      46.960   7.972  15.553  0.00  0.00    +0.000 HD
ENDROOT
BRANCH   1  12
ATOM      5  N   UNL     1      49.259   4.192  20.623  0.00  0.00    +0.000 N 
ATOM      6  C   UNL     1      48.882   4.239  19.316  0.00  0.00    +0.000 A 
ATOM      7  N   UNL     1      48.309   3.171  18.817  0.00  0.00    +0.000 NA
ATOM      8  N   UNL     1      47.924   3.183  17.493  0.00  0.00    +0.000 N 
ATOM      9  C   UNL     1      48.079   4.221  16.595  0.00  0.00    +0.000 A 
ATOM     10  O   UNL     1      47.697   4.115  15.430  0.00  0.00    +0.000 OA
ATOM     11  C   UNL     1      48.707   5.419  17.125  0.00  0.00    +0.000 A 
ATOM     12  C   UNL     1      49.032   6.690  16.500  0.00  0.00    +0.000 A 
ATOM     13  C   UNL     1      49.631   7.525  17.443  0.00  0.00    +0.000 A 
ATOM     14  S   UNL     1      49.802   6.823  18.989  0.00  0.00    +0.000 S 
ATOM     15  C   UNL     1      49.082   5.389  18.455  0.00  0.00    +0.000 A 
ATOM     16  H   UNL     1      49.049   3.362  21.160  0.00  0.00    +0.000 HD
ATOM     17  H   UNL     1      49.670   4.992  21.081  0.00  0.00    +0.000 HD
ATOM     18  H   UNL     1      47.490   2.336  17.148  0.00  0.00    +0.000 HD
ENDBRANCH   1  12
BRANCH   3  19
ATOM     19  C   UNL     1      47.377   8.340  13.511  0.00  0.00    +0.000 C 
BRANCH  19  20
ATOM     20  C   UNL     1      46.489   7.411  12.719  0.00  0.00    +0.000 A 
ATOM     21  C   UNL     1      45.342   7.903  12.084  0.00  0.00    +0.000 A 
ATOM     22  C   UNL     1      44.499   7.044  11.374  0.00  0.00    +0.000 A 
ATOM     23  C   UNL     1      44.821   5.690  11.237  0.00  0.00    +0.000 A 
ATOM     24  C   UNL     1      45.947   5.186  11.884  0.00  0.00    +0.000 A 
ATOM     25  C   UNL     1      46.772   6.040  12.627  0.00  0.00    +0.000 A 
BRANCH  23  26
ATOM     26  O   UNL     1      44.072   4.774  10.529  0.00  0.00    +0.000 OA
BRANCH  26  27
ATOM     27  C   UNL     1      44.692   3.958   9.616  0.00  0.00    +0.000 A 
ATOM     28  C   UNL     1      44.677   2.565   9.665  0.00  0.00    +0.000 A 
ATOM     29  C   UNL     1      45.417   1.838   8.740  0.00  0.00    +0.000 A 
ATOM     30  C   UNL     1      46.077   2.534   7.744  0.00  0.00    +0.000 A 
ATOM     31  N   UNL     1      46.048   3.878   7.612  0.00  0.00    +0.000 NA
ATOM     32  C   UNL     1      45.353   4.559   8.557  0.00  0.00    +0.000 A 
ENDBRANCH  26  27
ENDBRANCH  23  26
ENDBRANCH  19  20
ENDBRANCH   3  19
TORSDOF 5
ENDMDL
MODEL 4
REMARK VINA RESULT:    -7.549      3.728      8.083
REMARK INTER + INTRA:         -10.420
REMARK INTER:                  -9.496
REMARK INTRA:                  -0.924
REMARK UNBOUND:                -0.665
REMARK  Name = 
REMARK  5 active torsions:
REMARK  status: ('A' for Active; 'I' for Inactive)
REMARK    1  A    between atoms: C_8  and  C_9
REMARK    2  A    between atoms: N_11  and  C_12
REMARK    3  A    between atoms: C_12  and  C_13
REMARK    4  A    between atoms: C_16  and  O_17
REMARK    5  A    between atoms: O_17  and  C_18
REMARK                            x       y       z     vdW  Elec       q    Type
REMARK                         _______ _______ _______ _____ _____    ______ ____
ROOT
ATOM      1  C   UNL     1      47.951   6.961  13.339  0.00  0.00    +0.000 C 
ATOM      2  O   UNL     1      49.007   6.534  12.869  0.00  0.00    +0.000 OA
ATOM      3  N   UNL     1      47.947   7.887  14.349  0.00  0.00    +0.000 N 
ATOM      4  H   UNL     1      47.072   8.224  14.739  0.00  0.00    +0.000 HD
ENDROOT
BRANCH   1  12
ATOM      5  N   UNL     1      42.710   4.040  11.494  0.00  0.00    +0.000 N 
ATOM      6  C   UNL     1      43.960   4.021  12.034  0.00  0.00    +0.000 A 
ATOM      7  N   UNL     1      44.431   2.861  12.420  0.00  0.00    +0.000 NA
ATOM      8  N   UNL     1      45.689   2.810  12.980  0.00  0.00    +0.000 N 
ATOM      9  C   UNL     1      46.544   3.874  13.194  0.00  0.00    +0.000 A 
ATOM     10  O   UNL     1      47.650   3.706  13.708  0.00  0.00    +0.000 OA
ATOM     11  C   UNL     1      46.048   5.171  12.769  0.00  0.00    +0.000 A 
ATOM     12  C   UNL     1      46.646   6.494  12.826  0.00  0.00    +0.000 A 
ATOM     13  C   UNL     1      45.759   7.423  12.282  0.00  0.00    +0.000 A 
ATOM     14  S   UNL     1      44.289   6.748  11.740  0.00  0.00    +0.000 S 
ATOM     15  C   UNL     1      44.785   5.201  12.207  0.00  0.00    +0.000 A 
ATOM     16  H   UNL     1      42.218   3.165  11.379  0.00  0.00    +0.000 HD
ATOM     17  H   UNL     1      42.302   4.893  11.142  0.00  0.00    +0.000 HD
ATOM     18  H   UNL     1      46.012   1.895  13.269  0.00  0.00    +0.000 HD
ENDBRANCH   1  12
BRANCH   3  19
ATOM     19  C   UNL     1      49.172   8.408  14.911  0.00  0.00    +0.000 C 
BRANCH  19  20
ATOM     20  C   UNL     1      49.790   7.459  15.910  0.00  0.00    +0.000 A 
ATOM     21  C   UNL     1      49.015   6.922  16.946  0.00  0.00    +0.000 A 
ATOM     22  C   UNL     1      49.586   6.067  17.892  0.00  0.00    +0.000 A 
ATOM     23  C   UNL     1      50.928   5.687  17.782  0.00  0.00    +0.000 A 
ATOM     24  C   UNL     1      51.713   6.233  16.769  0.00  0.00    +0.000 A 
ATOM     25  C   UNL     1      51.150   7.120  15.844  0.00  0.00    +0.000 A 
BRANCH  23  26
ATOM     26  O   UNL     1      51.571   4.823  18.644  0.00  0.00    +0.000 OA
BRANCH  26  27
ATOM     27  C   UNL     1      51.766   3.517  18.270  0.00  0.00    +0.000 A 
ATOM     28  C   UNL     1      50.879   2.781  17.485  0.00  0.00    +0.000 A 
ATOM     29  C   UNL     1      51.132   1.435  17.245  0.00  0.00    +0.000 A 
ATOM     30  C   UNL     1      52.311   0.898  17.729  0.00  0.00    +0.000 A 
ATOM     31  N   UNL     1      53.234   1.599  18.423  0.00  0.00    +0.000 NA
ATOM     32  C   UNL     1      52.936   2.897  18.677  0.00  0.00    +0.000 A 
ENDBRANCH  26  27
ENDBRANCH  23  26
ENDBRANCH  19  20
ENDBRANCH   3  19
TORSDOF 5
ENDMDL
MODEL 5
REMARK VINA RESULT:    -7.484      2.263      3.037
REMARK INTER + INTRA:         -10.336
REMARK INTER:                  -9.379
REMARK INTRA:                  -0.956
REMARK UNBOUND:                -0.665
REMARK  Name = 
REMARK  5 active torsions:
REMARK  status: ('A' for Active; 'I' for Inactive)
REMARK    1  A    between atoms: C_8  and  C_9
REMARK    2  A    between atoms: N_11  and  C_12
REMARK    3  A    between atoms: C_12  and  C_13
REMARK    4  A    between atoms: C_16  and  O_17
REMARK    5  A    between atoms: O_17  and  C_18
REMARK                            x       y       z     vdW  Elec       q    Type
REMARK                         _______ _______ _______ _____ _____    ______ ____
ROOT
ATOM      1  C   UNL     1      49.186   6.485  16.472  0.00  0.00    +0.000 C 
ATOM      2  O   UNL     1      48.564   7.244  17.216  0.00  0.00    +0.000 OA
ATOM      3  N   UNL     1      49.008   6.520  15.114  0.00  0.00    +0.000 N 
ATOM      4  H   UNL     1      49.516   5.881  14.508  0.00  0.00    +0.000 HD
ENDROOT
BRANCH   1  12
ATOM      5  N   UNL     1      52.665   1.623  18.386  0.00  0.00    +0.000 N 
ATOM      6  C   UNL     1      51.551   2.133  17.793  0.00  0.00    +0.000 A 
ATOM      7  N   UNL     1      50.673   1.278  17.328  0.00  0.00    +0.000 NA
ATOM      8  N   UNL     1      49.538   1.763  16.713  0.00  0.00    +0.000 N 
ATOM      9  C   UNL     1      49.204   3.089  16.518  0.00  0.00    +0.000 A 
ATOM     10  O   UNL     1      48.159   3.404  15.950  0.00  0.00    +0.000 OA
ATOM     11  C   UNL     1      50.159   4.057  17.030  0.00  0.00    +0.000 A 
ATOM     12  C   UNL     1      50.155   5.510  17.016  0.00  0.00    +0.000 A 
ATOM     13  C   UNL     1      51.309   5.978  17.644  0.00  0.00    +0.000 A 
ATOM     14  S   UNL     1      52.342   4.746  18.213  0.00  0.00    +0.000 S 
ATOM     15  C   UNL     1      51.288   3.552  17.646  0.00  0.00    +0.000 A 
ATOM     16  H   UNL     1      52.751   0.620  18.477  0.00  0.00    +0.000 HD
ATOM     17  H   UNL     1      53.362   2.224  18.800  0.00  0.00    +0.000 HD
ATOM     18  H   UNL     1      48.890   1.069  16.364  0.00  0.00    +0.000 HD
ENDBRANCH   1  12
BRANCH   3  19
ATOM     19  C   UNL     1      48.088   7.442  14.488  0.00  0.00    +0.000 C 
BRANCH  19  20
ATOM     20  C   UNL     1      47.107   6.740  13.580  0.00  0.00    +0.000 A 
ATOM     21  C   UNL     1      46.252   7.482  12.756  0.00  0.00    +0.000 A 
ATOM     22  C   UNL     1      45.321   6.841  11.935  0.00  0.00    +0.000 A 
ATOM     23  C   UNL     1      45.271   5.444  11.879  0.00  0.00    +0.000 A 
ATOM     24  C   UNL     1      46.101   4.696  12.712  0.00  0.00    +0.000 A 
ATOM     25  C   UNL     1      47.008   5.340  13.562  0.00  0.00    +0.000 A 
BRANCH  23  26
ATOM     26  O   UNL     1      44.413   4.722  11.077  0.00  0.00    +0.000 OA
BRANCH  26  27
ATOM     27  C   UNL     1      44.916   4.028  10.004  0.00  0.00    +0.000 A 
ATOM     28  C   UNL     1      44.827   2.646   9.848  0.00  0.00    +0.000 A 
ATOM     29  C   UNL     1      45.454   2.038   8.766  0.00  0.00    +0.000 A 
ATOM     30  C   UNL     1      46.074   2.848   7.834  0.00  0.00    +0.000 A 
ATOM     31  N   UNL     1      46.111   4.196   7.906  0.00  0.00    +0.000 NA
ATOM     32  C   UNL     1      45.528   4.755   8.996  0.00  0.00    +0.000 A 
ENDBRANCH  26  27
ENDBRANCH  23  26
ENDBRANCH  19  20
ENDBRANCH   3  19
TORSDOF 5
ENDMDL
MODEL 6
REMARK VINA RESULT:    -6.733      5.145      6.868
REMARK INTER + INTRA:          -9.365
REMARK INTER:                  -8.445
REMARK INTRA:                  -0.921
REMARK UNBOUND:                -0.665
REMARK  Name = 
REMARK  5 active torsions:
REMARK  status: ('A' for Active; 'I' for Inactive)
REMARK    1  A    between atoms: C_8  and  C_9
REMARK    2  A    between atoms: N_11  and  C_12
REMARK    3  A    between atoms: C_12  and  C_13
REMARK    4  A    between atoms: C_16  and  O_17
REMARK    5  A    between atoms: O_17  and  C_18
REMARK                            x       y       z     vdW  Elec       q    Type
REMARK                         _______ _______ _______ _____ _____    ______ ____
ROOT
ATOM      1  C   UNL     1      46.201   8.062  12.540  0.00  0.00    +0.000 C 
ATOM      2  O   UNL     1      45.771   8.971  13.251  0.00  0.00    +0.000 OA
ATOM      3  N   UNL     1      47.467   8.108  12.018  0.00  0.00    +0.000 N 
ATOM      4  H   UNL     1      47.810   7.359  11.423  0.00  0.00    +0.000 HD
ENDROOT
BRANCH   1  12
ATOM      5  N   UNL     1      43.389   2.506  11.743  0.00  0.00    +0.000 N 
ATOM      6  C   UNL     1      44.423   3.266  12.199  0.00  0.00    +0.000 A 
ATOM      7  N   UNL     1      45.396   2.647  12.820  0.00  0.00    +0.000 NA
ATOM      8  N   UNL     1      46.453   3.389  13.301  0.00  0.00    +0.000 N 
ATOM      9  C   UNL     1      46.614   4.758  13.208  0.00  0.00    +0.000 A 
ATOM     10  O   UNL     1      47.604   5.315  13.682  0.00  0.00    +0.000 OA
ATOM     11  C   UNL     1      45.550   5.468  12.519  0.00  0.00    +0.000 A 
ATOM     12  C   UNL     1      45.369   6.880  12.228  0.00  0.00    +0.000 A 
ATOM     13  C   UNL     1      44.173   7.056  11.533  0.00  0.00    +0.000 A 
ATOM     14  S   UNL     1      43.312   5.611  11.251  0.00  0.00    +0.000 S 
ATOM     15  C   UNL     1      44.501   4.705  12.040  0.00  0.00    +0.000 A 
ATOM     16  H   UNL     1      43.432   1.504  11.866  0.00  0.00    +0.000 HD
ATOM     17  H   UNL     1      42.626   2.914  11.224  0.00  0.00    +0.000 HD
ATOM     18  H   UNL     1      47.180   2.872  13.779  0.00  0.00    +0.000 HD
ENDBRANCH   1  12
BRANCH   3  19
ATOM     19  C   UNL     1      48.357   9.217  12.272  0.00  0.00    +0.000 C 
BRANCH  19  20
ATOM     20  C   UNL     1      49.696   9.040  11.597  0.00  0.00    +0.000 A 
ATOM     21  C   UNL     1      50.227   7.759  11.408  0.00  0.00    +0.000 A 
ATOM     22  C   UNL     1      51.479   7.588  10.811  0.00  0.00    +0.000 A 
ATOM     23  C   UNL     1      52.194   8.694  10.339  0.00  0.00    +0.000 A 
ATOM     24  C   UNL     1      51.686   9.975  10.544  0.00  0.00    +0.000 A 
ATOM     25  C   UNL     1      50.448  10.147  11.176  0.00  0.00    +0.000 A 
BRANCH  23  26
ATOM     26  O   UNL     1      53.418   8.624   9.708  0.00  0.00    +0.000 OA
BRANCH  26  27
ATOM     27  C   UNL     1      53.672   7.590   8.841  0.00  0.00    +0.000 A 
ATOM     28  C   UNL     1      53.023   7.405   7.622  0.00  0.00    +0.000 A 
ATOM     29  C   UNL     1      53.293   6.270   6.867  0.00  0.00    +0.000 A 
ATOM     30  C   UNL     1      54.271   5.404   7.321  0.00  0.00    +0.000 A 
ATOM     31  N   UNL     1      54.981   5.591   8.455  0.00  0.00    +0.000 NA
ATOM     32  C   UNL     1      54.661   6.685   9.190  0.00  0.00    +0.000 A 
ENDBRANCH  26  27
ENDBRANCH  23  26
ENDBRANCH  19  20
ENDBRANCH   3  19
TORSDOF 5
ENDMDL
MODEL 7
REMARK VINA RESULT:    -6.647      2.283      3.048
REMARK INTER + INTRA:          -9.254
REMARK INTER:                  -8.321
REMARK INTRA:                  -0.933
REMARK UNBOUND:                -0.665
REMARK  Name = 
REMARK  5 active torsions:
REMARK  status: ('A' for Active; 'I' for Inactive)
REMARK    1  A    between atoms: C_8  and  C_9
REMARK    2  A    between atoms: N_11  and  C_12
REMARK    3  A    between atoms: C_12  and  C_13
REMARK    4  A    between atoms: C_16  and  O_17
REMARK    5  A    between atoms: O_17  and  C_18
REMARK                            x       y       z     vdW  Elec       q    Type
REMARK                         _______ _______ _______ _____ _____    ______ ____
ROOT
ATOM      1  C   UNL     1      49.177   7.283  15.216  0.00  0.00    +0.000 C 
ATOM      2  O   UNL     1      50.060   7.491  14.383  0.00  0.00    +0.000 OA
ATOM      3  N   UNL     1      47.874   7.623  14.968  0.00  0.00    +0.000 N 
ATOM      4  H   UNL     1      47.153   7.459  15.667  0.00  0.00    +0.000 HD
ENDROOT
BRANCH   1  12
ATOM      5  N   UNL     1      49.877   5.325  21.139  0.00  0.00    +0.000 N 
ATOM      6  C   UNL     1      49.376   6.197  20.222  0.00  0.00    +0.000 A 
ATOM      7  N   UNL     1      48.628   7.175  20.669  0.00  0.00    +0.000 NA
ATOM      8  N   UNL     1      48.097   8.070  19.765  0.00  0.00    +0.000 N 
ATOM      9  C   UNL     1      48.262   8.057  18.394  0.00  0.00    +0.000 A 
ATOM     10  O   UNL     1      47.733   8.912  17.683  0.00  0.00    +0.000 OA
ATOM     11  C   UNL     1      49.093   6.985  17.873  0.00  0.00    +0.000 A 
ATOM     12  C   UNL     1      49.490   6.651  16.515  0.00  0.00    +0.000 A 
ATOM     13  C   UNL     1      50.304   5.519  16.541  0.00  0.00    +0.000 A 
ATOM     14  S   UNL     1      50.573   4.889  18.104  0.00  0.00    +0.000 S 
ATOM     15  C   UNL     1      49.619   6.101  18.796  0.00  0.00    +0.000 A 
ATOM     16  H   UNL     1      49.687   5.487  22.118  0.00  0.00    +0.000 HD
ATOM     17  H   UNL     1      50.492   4.572  20.867  0.00  0.00    +0.000 HD
ATOM     18  H   UNL     1      47.521   8.806  20.153  0.00  0.00    +0.000 HD
ENDBRANCH   1  12
BRANCH   3  19
ATOM     19  C   UNL     1      47.469   8.239  13.726  0.00  0.00    +0.000 C 
BRANCH  19  20
ATOM     20  C   UNL     1      46.607   7.324  12.889  0.00  0.00    +0.000 A 
ATOM     21  C   UNL     1      45.546   7.844  12.138  0.00  0.00    +0.000 A 
ATOM     22  C   UNL     1      44.726   6.999  11.386  0.00  0.00    +0.000 A 
ATOM     23  C   UNL     1      44.991   5.627  11.324  0.00  0.00    +0.000 A 
ATOM     24  C   UNL     1      46.030   5.096  12.086  0.00  0.00    +0.000 A 
ATOM     25  C   UNL     1      46.828   5.938  12.869  0.00  0.00    +0.000 A 
BRANCH  23  26
ATOM     26  O   UNL     1      44.262   4.721  10.584  0.00  0.00    +0.000 OA
BRANCH  26  27
ATOM     27  C   UNL     1      44.890   3.980   9.614  0.00  0.00    +0.000 A 
ATOM     28  C   UNL     1      44.885   2.587   9.558  0.00  0.00    +0.000 A 
ATOM     29  C   UNL     1      45.634   1.938   8.583  0.00  0.00    +0.000 A 
ATOM     30  C   UNL     1      46.293   2.712   7.646  0.00  0.00    +0.000 A 
ATOM     31  N   UNL     1      46.255   4.062   7.617  0.00  0.00    +0.000 NA
ATOM     32  C   UNL     1      45.551   4.664   8.607  0.00  0.00    +0.000 A 
ENDBRANCH  26  27
ENDBRANCH  23  26
ENDBRANCH  19  20
ENDBRANCH   3  19
TORSDOF 5
ENDMDL
MODEL 8
REMARK VINA RESULT:    -6.196      2.040      2.852
REMARK INTER + INTRA:          -8.672
REMARK INTER:                  -7.802
REMARK INTRA:                  -0.870
REMARK UNBOUND:                -0.665
REMARK  Name = 
REMARK  5 active torsions:
REMARK  status: ('A' for Active; 'I' for Inactive)
REMARK    1  A    between atoms: C_8  and  C_9
REMARK    2  A    between atoms: N_11  and  C_12
REMARK    3  A    between atoms: C_12  and  C_13
REMARK    4  A    between atoms: C_16  and  O_17
REMARK    5  A    between atoms: O_17  and  C_18
REMARK                            x       y       z     vdW  Elec       q    Type
REMARK                         _______ _______ _______ _____ _____    ______ ____
ROOT
ATOM      1  C   UNL     1      50.188   8.190  13.791  0.00  0.00    +0.000 C 
ATOM      2  O   UNL     1      50.712   8.153  12.676  0.00  0.00    +0.000 OA
ATOM      3  N   UNL     1      48.920   8.679  13.962  0.00  0.00    +0.000 N 
ATOM      4  H   UNL     1      48.500   8.717  14.887  0.00  0.00    +0.000 HD
ENDROOT
BRANCH   1  12
ATOM      5  N   UNL     1      52.384   5.541  19.040  0.00  0.00    +0.000 N 
ATOM      6  C   UNL     1      51.395   5.737  18.127  0.00  0.00    +0.000 A 
ATOM      7  N   UNL     1      50.268   5.094  18.313  0.00  0.00    +0.000 NA
ATOM      8  N   UNL     1      49.249   5.264  17.400  0.00  0.00    +0.000 N 
ATOM      9  C   UNL     1      49.274   6.057  16.270  0.00  0.00    +0.000 A 
ATOM     10  O   UNL     1      48.299   6.128  15.522  0.00  0.00    +0.000 OA
ATOM     11  C   UNL     1      50.511   6.786  16.044  0.00  0.00    +0.000 A 
ATOM     12  C   UNL     1      50.906   7.702  14.987  0.00  0.00    +0.000 A 
ATOM     13  C   UNL     1      52.208   8.143  15.225  0.00  0.00    +0.000 A 
ATOM     14  S   UNL     1      52.918   7.491  16.633  0.00  0.00    +0.000 S 
ATOM     15  C   UNL     1      51.519   6.605  16.972  0.00  0.00    +0.000 A 
ATOM     16  H   UNL     1      52.200   4.945  19.836  0.00  0.00    +0.000 HD
ATOM     17  H   UNL     1      53.263   6.034  18.979  0.00  0.00    +0.000 HD
ATOM     18  H   UNL     1      48.399   4.744  17.580  0.00  0.00    +0.000 HD
ENDBRANCH   1  12
BRANCH   3  19
ATOM     19  C   UNL     1      48.136   9.173  12.853  0.00  0.00    +0.000 C 
BRANCH  19  20
ATOM     20  C   UNL     1      47.095   8.176  12.402  0.00  0.00    +0.000 A 
ATOM     21  C   UNL     1      45.818   8.611  12.026  0.00  0.00    +0.000 A 
ATOM     22  C   UNL     1      44.840   7.692  11.637  0.00  0.00    +0.000 A 
ATOM     23  C   UNL     1      45.141   6.329  11.559  0.00  0.00    +0.000 A 
ATOM     24  C   UNL     1      46.401   5.883  11.954  0.00  0.00    +0.000 A 
ATOM     25  C   UNL     1      47.369   6.800  12.380  0.00  0.00    +0.000 A 
BRANCH  23  26
ATOM     26  O   UNL     1      44.256   5.352  11.155  0.00  0.00    +0.000 OA
BRANCH  26  27
ATOM     27  C   UNL     1      44.637   4.454  10.189  0.00  0.00    +0.000 A 
ATOM     28  C   UNL     1      45.384   4.781   9.058  0.00  0.00    +0.000 A 
ATOM     29  C   UNL     1      45.633   3.808   8.097  0.00  0.00    +0.000 A 
ATOM     30  C   UNL     1      45.199   2.519   8.348  0.00  0.00    +0.000 A 
ATOM     31  N   UNL     1      44.545   2.145   9.469  0.00  0.00    +0.000 NA
ATOM     32  C   UNL     1      44.279   3.127  10.365  0.00  0.00    +0.000 A 
ENDBRANCH  26  27
ENDBRANCH  23  26
ENDBRANCH  19  20
ENDBRANCH   3  19
TORSDOF 5
ENDMDL
MODEL 9
REMARK VINA RESULT:    -5.995      5.347      7.112
REMARK INTER + INTRA:          -8.412
REMARK INTER:                  -8.042
REMARK INTRA:                  -0.370
REMARK UNBOUND:                -0.665
REMARK  Name = 
REMARK  5 active torsions:
REMARK  status: ('A' for Active; 'I' for Inactive)
REMARK    1  A    between atoms: C_8  and  C_9
REMARK    2  A    between atoms: N_11  and  C_12
REMARK    3  A    between atoms: C_12  and  C_13
REMARK    4  A    between atoms: C_16  and  O_17
REMARK    5  A    between atoms: O_17  and  C_18
REMARK                            x       y       z     vdW  Elec       q    Type
REMARK                         _______ _______ _______ _____ _____    ______ ____
ROOT
ATOM      1  C   UNL     1      47.579   8.232  12.383  0.00  0.00    +0.000 C 
ATOM      2  O   UNL     1      47.072   9.352  12.462  0.00  0.00    +0.000 OA
ATOM      3  N   UNL     1      48.890   8.071  12.019  0.00  0.00    +0.000 N 
ATOM      4  H   UNL     1      49.296   7.142  11.945  0.00  0.00    +0.000 HD
ENDROOT
BRANCH   1  12
ATOM      5  N   UNL     1      43.489   3.526  13.108  0.00  0.00    +0.000 N 
ATOM      6  C   UNL     1      43.814   4.763  12.643  0.00  0.00    +0.000 A 
ATOM      7  N   UNL     1      42.894   5.415  11.976  0.00  0.00    +0.000 NA
ATOM      8  N   UNL     1      43.196   6.667  11.483  0.00  0.00    +0.000 N 
ATOM      9  C   UNL     1      44.395   7.340  11.610  0.00  0.00    +0.000 A 
ATOM     10  O   UNL     1      44.550   8.459  11.122  0.00  0.00    +0.000 OA
ATOM     11  C   UNL     1      45.431   6.640  12.351  0.00  0.00    +0.000 A 
ATOM     12  C   UNL     1      46.793   7.018  12.687  0.00  0.00    +0.000 A 
ATOM     13  C   UNL     1      47.385   5.992  13.423  0.00  0.00    +0.000 A 
ATOM     14  S   UNL     1      46.368   4.648  13.690  0.00  0.00    +0.000 S 
ATOM     15  C   UNL     1      45.108   5.388  12.840  0.00  0.00    +0.000 A 
ATOM     16  H   UNL     1      42.552   3.180  12.956  0.00  0.00    +0.000 HD
ATOM     17  H   UNL     1      44.137   2.985  13.663  0.00  0.00    +0.000 HD
ATOM     18  H   UNL     1      42.458   7.132  10.969  0.00  0.00    +0.000 HD
ENDBRANCH   1  12
BRANCH   3  19
ATOM     19  C   UNL     1      49.740   9.197  11.710  0.00  0.00    +0.000 C 
BRANCH  19  20
ATOM     20  C   UNL     1      50.982   8.784  10.957  0.00  0.00    +0.000 A 
ATOM     21  C   UNL     1      51.841   9.753  10.426  0.00  0.00    +0.000 A 
ATOM     22  C   UNL     1      52.976   9.379   9.702  0.00  0.00    +0.000 A 
ATOM     23  C   UNL     1      53.304   8.028   9.550  0.00  0.00    +0.000 A 
ATOM     24  C   UNL     1      52.443   7.055  10.054  0.00  0.00    +0.000 A 
ATOM     25  C   UNL     1      51.286   7.430  10.747  0.00  0.00    +0.000 A 
BRANCH  23  26
ATOM     26  O   UNL     1      54.417   7.562   8.884  0.00  0.00    +0.000 OA
BRANCH  26  27
ATOM     27  C   UNL     1      54.296   6.492   8.033  0.00  0.00    +0.000 A 
ATOM     28  C   UNL     1      54.661   5.185   8.351  0.00  0.00    +0.000 A 
ATOM     29  C   UNL     1      54.582   4.195   7.379  0.00  0.00    +0.000 A 
ATOM     30  C   UNL     1      54.057   4.535   6.146  0.00  0.00    +0.000 A 
ATOM     31  N   UNL     1      53.616   5.770   5.825  0.00  0.00    +0.000 NA
ATOM     32  C   UNL     1      53.748   6.722   6.781  0.00  0.00    +0.000 A 
ENDBRANCH  26  27
ENDBRANCH  23  26
ENDBRANCH  19  20
ENDBRANCH   3  19
TORSDOF 5
ENDMDL
