MODEL 1
REMARK VINA RESULT:    -7.795      0.000      0.000
REMARK INTER + INTRA:         -11.286
REMARK INTER:                 -10.529
REMARK INTRA:                  -0.757
REMARK UNBOUND:                -0.757
REMARK  Name = 
REMARK  8 active torsions:
REMARK  status: ('A' for Active; 'I' for Inactive)
REMARK    1  A    between atoms: C_1  and  C_2
REMARK    2  A    between atoms: C_2  and  O_3
REMARK    3  A    between atoms: N_5  and  C_6
REMARK    4  A    between atoms: C_10  and  C_11
REMARK    5  A    between atoms: C_11  and  C_12
REMARK    6  A    between atoms: C_12  and  N_13
REMARK    7  A    between atoms: C_23  and  C_24
REMARK    8  A    between atoms: C_24  and  O_25
REMARK                            x       y       z     vdW  Elec       q    Type
REMARK                         _______ _______ _______ _____ _____    ______ ____
ROOT
ATOM      1  C   UNL     1      46.498   6.000  12.463  0.00  0.00    +0.000 A 
ATOM      2  C   UNL     1      47.605   6.845  12.498  0.00  0.00    +0.000 A 
ATOM      3  C   UNL     1      48.495   6.770  13.559  0.00  0.00    +0.000 A 
ATOM      4  N   UNL     1      48.369   5.904  14.580  0.00  0.00    +0.000 NA
ATOM      5  C   UNL     1      47.310   5.065  14.558  0.00  0.00    +0.000 A 
ATOM      6  C   UNL     1      46.369   5.092  13.527  0.00  0.00    +0.000 A 
ENDROOT
BRANCH   1  10
ATOM      7  C   UNL     1      44.871   3.195  10.352  0.00  0.00    +0.000 C 
ATOM      8  C   UNL     1      44.691   4.562   9.683  0.00  0.00    +0.000 C 
ATOM      9  C   UNL     1      45.811   5.557  10.098  0.00  0.00    +0.000 C 
ATOM     10  N   UNL     1      45.567   6.074  11.449  0.00  0.00    +0.000 N 
ATOM     11  C   UNL     1      44.256   6.721  11.577  0.00  0.00    +0.000 C 
ATOM     12  C   UNL     1      43.133   5.749  11.171  0.00  0.00    +0.000 C 
ATOM     13  O   UNL     1      43.363   5.053   9.923  0.00  0.00    +0.000 OA
BRANCH   8  14
ATOM     14  O   UNL     1      44.817   4.397   8.265  0.00  0.00    +0.000 OA
ATOM     15  H   UNL     1      43.965   4.604   7.850  0.00  0.00    +0.000 HD
ENDBRANCH   8  14
BRANCH  12  16
ATOM     16  C   UNL     1      42.756   4.787  12.304  0.00  0.00    +0.000 C 
BRANCH  16  17
ATOM     17  O   UNL     1      42.762   5.470  13.558  0.00  0.00    +0.000 OA
ATOM     18  H   UNL     1      42.228   4.925  14.168  0.00  0.00    +0.000 HD
ENDBRANCH  16  17
ENDBRANCH  12  16
ENDBRANCH   1  10
BRANCH   5  19
ATOM     19  C   UNL     1      47.164   4.081  15.702  0.00  0.00    +0.000 C 
BRANCH  19  20
ATOM     20  C   UNL     1      48.323   4.191  16.696  0.00  0.00    +0.000 C 
BRANCH  20  21
ATOM     21  N   UNL     1      48.722   2.891  17.231  0.00  0.00    +0.000 N 
ATOM     22  C   UNL     1      50.086   2.700  17.440  0.00  0.00    +0.000 A 
ATOM     23  C   UNL     1      50.931   3.708  17.909  0.00  0.00    +0.000 A 
ATOM     24  C   UNL     1      52.285   3.447  18.116  0.00  0.00    +0.000 A 
ATOM     25  C   UNL     1      52.753   2.170  17.879  0.00  0.00    +0.000 A 
ATOM     26  F   UNL     1      54.042   1.873  18.078  0.00  0.00    +0.000 F 
ATOM     27  C   UNL     1      51.861   1.211  17.438  0.00  0.00    +0.000 A 
ATOM     28  N   UNL     1      50.543   1.450  17.206  0.00  0.00    +0.000 NA
ATOM     29  H   UNL     1      48.393   2.076  16.717  0.00  0.00    +0.000 HD
ENDBRANCH  20  21
ENDBRANCH  19  20
ENDBRANCH   5  19
TORSDOF 7
ENDMDL
MODEL 2
REMARK VINA RESULT:    -7.712      4.810      7.836
REMARK INTER + INTRA:         -11.174
REMARK INTER:                 -10.234
REMARK INTRA:                  -0.941
REMARK UNBOUND:                -0.757
REMARK  Name = 
REMARK  8 active torsions:
REMARK  status: ('A' for Active; 'I' for Inactive)
REMARK    1  A    between atoms: C_1  and  C_2
REMARK    2  A    between atoms: C_2  and  O_3
REMARK    3  A    between atoms: N_5  and  C_6
REMARK    4  A    between atoms: C_10  and  C_11
REMARK    5  A    between atoms: C_11  and  C_12
REMARK    6  A    between atoms: C_12  and  N_13
REMARK    7  A    between atoms: C_23  and  C_24
REMARK    8  A    between atoms: C_24  and  O_25
REMARK                            x       y       z     vdW  Elec       q    Type
REMARK                         _______ _______ _______ _____ _____    ______ ____
ROOT
ATOM      1  C   UNL     1      47.067   6.179  13.434  0.00  0.00    +0.000 A 
ATOM      2  C   UNL     1      47.225   4.887  13.928  0.00  0.00    +0.000 A 
ATOM      3  C   UNL     1      46.308   3.903  13.588  0.00  0.00    +0.000 A 
ATOM      4  N   UNL     1      45.255   4.112  12.778  0.00  0.00    +0.000 NA
ATOM      5  C   UNL     1      45.092   5.354  12.276  0.00  0.00    +0.000 A 
ATOM      6  C   UNL     1      45.969   6.396  12.584  0.00  0.00    +0.000 A 
ENDROOT
BRANCH   1  10
ATOM      7  C   UNL     1      49.910   7.856  11.413  0.00  0.00    +0.000 C 
ATOM      8  C   UNL     1      50.050   8.151  12.910  0.00  0.00    +0.000 C 
ATOM      9  C   UNL     1      49.389   7.045  13.779  0.00  0.00    +0.000 C 
ATOM     10  N   UNL     1      47.930   7.195  13.785  0.00  0.00    +0.000 N 
ATOM     11  C   UNL     1      47.502   8.518  14.255  0.00  0.00    +0.000 C 
ATOM     12  C   UNL     1      48.146   9.628  13.404  0.00  0.00    +0.000 C 
ATOM     13  O   UNL     1      49.570   9.474  13.195  0.00  0.00    +0.000 OA
BRANCH   8  14
ATOM     14  O   UNL     1      51.443   8.139  13.249  0.00  0.00    +0.000 OA
ATOM     15  H   UNL     1      51.823   7.291  12.972  0.00  0.00    +0.000 HD
ENDBRANCH   8  14
BRANCH  12  16
ATOM     16  C   UNL     1      47.395   9.865  12.089  0.00  0.00    +0.000 C 
BRANCH  16  17
ATOM     17  O   UNL     1      45.997  10.015  12.336  0.00  0.00    +0.000 OA
ATOM     18  H   UNL     1      45.545   9.389  11.737  0.00  0.00    +0.000 HD
ENDBRANCH  16  17
ENDBRANCH  12  16
ENDBRANCH   1  10
BRANCH   5  19
ATOM     19  C   UNL     1      43.910   5.597  11.357  0.00  0.00    +0.000 C 
BRANCH  19  20
ATOM     20  C   UNL     1      43.624   4.381  10.471  0.00  0.00    +0.000 C 
BRANCH  20  21
ATOM     21  N   UNL     1      44.033   4.595   9.084  0.00  0.00    +0.000 N 
ATOM     22  C   UNL     1      44.993   3.720   8.580  0.00  0.00    +0.000 A 
ATOM     23  C   UNL     1      45.025   2.362   8.901  0.00  0.00    +0.000 A 
ATOM     24  C   UNL     1      46.000   1.534   8.347  0.00  0.00    +0.000 A 
ATOM     25  C   UNL     1      46.902   2.083   7.458  0.00  0.00    +0.000 A 
ATOM     26  F   UNL     1      47.846   1.322   6.892  0.00  0.00    +0.000 F 
ATOM     27  C   UNL     1      46.803   3.430   7.164  0.00  0.00    +0.000 A 
ATOM     28  N   UNL     1      45.876   4.259   7.711  0.00  0.00    +0.000 NA
ATOM     29  H   UNL     1      44.351   5.535   8.851  0.00  0.00    +0.000 HD
ENDBRANCH  20  21
ENDBRANCH  19  20
ENDBRANCH   5  19
TORSDOF 7
ENDMDL
MODEL 3
REMARK VINA RESULT:    -7.598      5.197      7.961
REMARK INTER + INTRA:         -11.020
REMARK INTER:                  -9.895
REMARK INTRA:                  -1.125
REMARK UNBOUND:                -0.757
REMARK  Name = 
REMARK  8 active torsions:
REMARK  status: ('A' for Active; 'I' for Inactive)
REMARK    1  A    between atoms: C_1  and  C_2
REMARK    2  A    between atoms: C_2  and  O_3
REMARK    3  A    between atoms: N_5  and  C_6
REMARK    4  A    between atoms: C_10  and  C_11
REMARK    5  A    between atoms: C_11  and  C_12
REMARK    6  A    between atoms: C_12  and  N_13
REMARK    7  A    between atoms: C_23  and  C_24
REMARK    8  A    between atoms: C_24  and  O_25
REMARK                            x       y       z     vdW  Elec       q    Type
REMARK                         _______ _______ _______ _____ _____    ______ ____
ROOT
ATOM      1  C   UNL     1      46.583   6.036  12.709  0.00  0.00    +0.000 A 
ATOM      2  C   UNL     1      47.233   5.071  13.474  0.00  0.00    +0.000 A 
ATOM      3  C   UNL     1      46.696   3.796  13.575  0.00  0.00    +0.000 A 
ATOM      4  N   UNL     1      45.566   3.411  12.956  0.00  0.00    +0.000 NA
ATOM      5  C   UNL     1      44.928   4.327  12.197  0.00  0.00    +0.000 A 
ATOM      6  C   UNL     1      45.405   5.632  12.058  0.00  0.00    +0.000 A 
ENDROOT
BRANCH   1  10
ATOM      7  C   UNL     1      49.119   7.925  14.940  0.00  0.00    +0.000 C 
ATOM      8  C   UNL     1      48.304   8.901  14.086  0.00  0.00    +0.000 C 
ATOM      9  C   UNL     1      46.919   8.310  13.700  0.00  0.00    +0.000 C 
ATOM     10  N   UNL     1      47.060   7.326  12.620  0.00  0.00    +0.000 N 
ATOM     11  C   UNL     1      47.710   7.887  11.429  0.00  0.00    +0.000 C 
ATOM     12  C   UNL     1      49.085   8.477  11.792  0.00  0.00    +0.000 C 
ATOM     13  O   UNL     1      49.082   9.333  12.959  0.00  0.00    +0.000 OA
BRANCH   8  14
ATOM     14  O   UNL     1      48.028  10.071  14.867  0.00  0.00    +0.000 OA
ATOM     15  H   UNL     1      48.862  10.407  15.231  0.00  0.00    +0.000 HD
ENDBRANCH   8  14
BRANCH  12  16
ATOM     16  C   UNL     1      50.178   7.405  11.870  0.00  0.00    +0.000 C 
BRANCH  16  17
ATOM     17  O   UNL     1      51.415   7.985  12.283  0.00  0.00    +0.000 OA
ATOM     18  H   UNL     1      52.114   7.526  11.778  0.00  0.00    +0.000 HD
ENDBRANCH  16  17
ENDBRANCH  12  16
ENDBRANCH   1  10
BRANCH   5  19
ATOM     19  C   UNL     1      43.657   3.899  11.489  0.00  0.00    +0.000 C 
BRANCH  19  20
ATOM     20  C   UNL     1      43.935   3.441  10.054  0.00  0.00    +0.000 C 
BRANCH  20  21
ATOM     21  N   UNL     1      45.022   2.467   9.983  0.00  0.00    +0.000 N 
ATOM     22  C   UNL     1      45.750   2.438   8.795  0.00  0.00    +0.000 A 
ATOM     23  C   UNL     1      46.069   3.589   8.072  0.00  0.00    +0.000 A 
ATOM     24  C   UNL     1      46.818   3.494   6.900  0.00  0.00    +0.000 A 
ATOM     25  C   UNL     1      47.258   2.249   6.498  0.00  0.00    +0.000 A 
ATOM     26  F   UNL     1      47.991   2.115   5.387  0.00  0.00    +0.000 F 
ATOM     27  C   UNL     1      46.927   1.152   7.270  0.00  0.00    +0.000 A 
ATOM     28  N   UNL     1      46.178   1.219   8.403  0.00  0.00    +0.000 NA
ATOM     29  H   UNL     1      44.772   1.501  10.190  0.00  0.00    +0.000 HD
ENDBRANCH  20  21
ENDBRANCH  19  20
ENDBRANCH   5  19
TORSDOF 7
ENDMDL
MODEL 4
REMARK VINA RESULT:    -7.517      5.176      7.706
REMARK INTER + INTRA:         -10.910
REMARK INTER:                  -9.886
REMARK INTRA:                  -1.024
REMARK UNBOUND:                -0.757
REMARK  Name = 
REMARK  8 active torsions:
REMARK  status: ('A' for Active; 'I' for Inactive)
REMARK    1  A    between atoms: C_1  and  C_2
REMARK    2  A    between atoms: C_2  and  O_3
REMARK    3  A    between atoms: N_5  and  C_6
REMARK    4  A    between atoms: C_10  and  C_11
REMARK    5  A    between atoms: C_11  and  C_12
REMARK    6  A    between atoms: C_12  and  N_13
REMARK    7  A    between atoms: C_23  and  C_24
REMARK    8  A    between atoms: C_24  and  O_25
REMARK                            x       y       z     vdW  Elec       q    Type
REMARK                         _______ _______ _______ _____ _____    ______ ____
ROOT
ATOM      1  C   UNL     1      46.564   6.566  12.806  0.00  0.00    +0.000 A 
ATOM      2  C   UNL     1      45.953   7.602  12.105  0.00  0.00    +0.000 A 
ATOM      3  C   UNL     1      44.650   7.452  11.652  0.00  0.00    +0.000 A 
ATOM      4  N   UNL     1      43.909   6.350  11.863  0.00  0.00    +0.000 NA
ATOM      5  C   UNL     1      44.478   5.339  12.554  0.00  0.00    +0.000 A 
ATOM      6  C   UNL     1      45.788   5.416  13.030  0.00  0.00    +0.000 A 
ENDROOT
BRANCH   1  10
ATOM      7  C   UNL     1      49.330   9.104  11.863  0.00  0.00    +0.000 C 
ATOM      8  C   UNL     1      49.929   7.853  12.516  0.00  0.00    +0.000 C 
ATOM      9  C   UNL     1      49.019   6.609  12.319  0.00  0.00    +0.000 C 
ATOM     10  N   UNL     1      47.872   6.658  13.232  0.00  0.00    +0.000 N 
ATOM     11  C   UNL     1      48.276   6.759  14.640  0.00  0.00    +0.000 C 
ATOM     12  C   UNL     1      49.179   7.988  14.854  0.00  0.00    +0.000 C 
ATOM     13  O   UNL     1      50.249   8.124  13.889  0.00  0.00    +0.000 OA
BRANCH   8  14
ATOM     14  O   UNL     1      51.166   7.544  11.860  0.00  0.00    +0.000 OA
ATOM     15  H   UNL     1      51.884   8.012  12.313  0.00  0.00    +0.000 HD
ENDBRANCH   8  14
BRANCH  12  16
ATOM     16  C   UNL     1      48.374   9.284  15.005  0.00  0.00    +0.000 C 
BRANCH  16  17
ATOM     17  O   UNL     1      47.515   9.206  16.143  0.00  0.00    +0.000 OA
ATOM     18  H   UNL     1      47.521  10.093  16.550  0.00  0.00    +0.000 HD
ENDBRANCH  16  17
ENDBRANCH  12  16
ENDBRANCH   1  10
BRANCH   5  19
ATOM     19  C   UNL     1      43.647   4.095  12.802  0.00  0.00    +0.000 C 
BRANCH  19  20
ATOM     20  C   UNL     1      43.365   3.335  11.503  0.00  0.00    +0.000 C 
BRANCH  20  21
ATOM     21  N   UNL     1      44.507   2.530  11.073  0.00  0.00    +0.000 N 
ATOM     22  C   UNL     1      45.040   2.831   9.821  0.00  0.00    +0.000 A 
ATOM     23  C   UNL     1      45.144   4.136   9.336  0.00  0.00    +0.000 A 
ATOM     24  C   UNL     1      45.707   4.375   8.082  0.00  0.00    +0.000 A 
ATOM     25  C   UNL     1      46.182   3.299   7.359  0.00  0.00    +0.000 A 
ATOM     26  F   UNL     1      46.742   3.484   6.158  0.00  0.00    +0.000 F 
ATOM     27  C   UNL     1      46.070   2.035   7.906  0.00  0.00    +0.000 A 
ATOM     28  N   UNL     1      45.504   1.778   9.114  0.00  0.00    +0.000 NA
ATOM     29  H   UNL     1      44.375   1.519  11.092  0.00  0.00    +0.000 HD
ENDBRANCH  20  21
ENDBRANCH  19  20
ENDBRANCH   5  19
TORSDOF 7
ENDMDL
MODEL 5
REMARK VINA RESULT:    -7.430      5.502      7.959
REMARK INTER + INTRA:         -10.793
REMARK INTER:                  -9.715
REMARK INTRA:                  -1.078
REMARK UNBOUND:                -0.757
REMARK  Name = 
REMARK  8 active torsions:
REMARK  status: ('A' for Active; 'I' for Inactive)
REMARK    1  A    between atoms: C_1  and  C_2
REMARK    2  A    between atoms: C_2  and  O_3
REMARK    3  A    between atoms: N_5  and  C_6
REMARK    4  A    between atoms: C_10  and  C_11
REMARK    5  A    between atoms: C_11  and  C_12
REMARK    6  A    between atoms: C_12  and  N_13
REMARK    7  A    between atoms: C_23  and  C_24
REMARK    8  A    between atoms: C_24  and  O_25
REMARK                            x       y       z     vdW  Elec       q    Type
REMARK                         _______ _______ _______ _____ _____    ______ ____
ROOT
ATOM      1  C   UNL     1      46.055   6.904  12.601  0.00  0.00    +0.000 A 
ATOM      2  C   UNL     1      44.929   7.564  12.117  0.00  0.00    +0.000 A 
ATOM      3  C   UNL     1      43.941   6.847  11.458  0.00  0.00    +0.000 A 
ATOM      4  N   UNL     1      43.989   5.518  11.259  0.00  0.00    +0.000 NA
ATOM      5  C   UNL     1      45.067   4.857  11.734  0.00  0.00    +0.000 A 
ATOM      6  C   UNL     1      46.103   5.515  12.398  0.00  0.00    +0.000 A 
ENDROOT
BRANCH   1  10
ATOM      7  C   UNL     1      49.659   7.644  11.399  0.00  0.00    +0.000 C 
ATOM      8  C   UNL     1      49.531   7.845  12.913  0.00  0.00    +0.000 C 
ATOM      9  C   UNL     1      48.385   6.984  13.512  0.00  0.00    +0.000 C 
ATOM     10  N   UNL     1      47.079   7.587  13.222  0.00  0.00    +0.000 N 
ATOM     11  C   UNL     1      46.974   8.966  13.713  0.00  0.00    +0.000 C 
ATOM     12  C   UNL     1      48.102   9.835  13.128  0.00  0.00    +0.000 C 
ATOM     13  O   UNL     1      49.420   9.245  13.213  0.00  0.00    +0.000 OA
BRANCH   8  14
ATOM     14  O   UNL     1      50.736   7.386  13.537  0.00  0.00    +0.000 OA
ATOM     15  H   UNL     1      51.493   7.811  13.106  0.00  0.00    +0.000 HD
ENDBRANCH   8  14
BRANCH  12  16
ATOM     16  C   UNL     1      47.784  10.328  11.712  0.00  0.00    +0.000 C 
BRANCH  16  17
ATOM     17  O   UNL     1      48.881  11.075  11.187  0.00  0.00    +0.000 OA
ATOM     18  H   UNL     1      48.731  12.003  11.451  0.00  0.00    +0.000 HD
ENDBRANCH  16  17
ENDBRANCH  12  16
ENDBRANCH   1  10
BRANCH   5  19
ATOM     19  C   UNL     1      45.126   3.356  11.521  0.00  0.00    +0.000 C 
BRANCH  19  20
ATOM     20  C   UNL     1      44.021   2.875  10.577  0.00  0.00    +0.000 C 
BRANCH  20  21
ATOM     21  N   UNL     1      44.143   3.450   9.239  0.00  0.00    +0.000 N 
ATOM     22  C   UNL     1      45.229   3.020   8.477  0.00  0.00    +0.000 A 
ATOM     23  C   UNL     1      45.693   1.703   8.495  0.00  0.00    +0.000 A 
ATOM     24  C   UNL     1      46.772   1.331   7.694  0.00  0.00    +0.000 A 
ATOM     25  C   UNL     1      47.340   2.282   6.869  0.00  0.00    +0.000 A 
ATOM     26  F   UNL     1      48.367   1.964   6.075  0.00  0.00    +0.000 F 
ATOM     27  C   UNL     1      46.818   3.562   6.882  0.00  0.00    +0.000 A 
ATOM     28  N   UNL     1      45.783   3.952   7.672  0.00  0.00    +0.000 NA
ATOM     29  H   UNL     1      44.142   4.467   9.187  0.00  0.00    +0.000 HD
ENDBRANCH  20  21
ENDBRANCH  19  20
ENDBRANCH   5  19
TORSDOF 7
ENDMDL
MODEL 6
REMARK VINA RESULT:    -7.250      1.403      2.105
REMARK INTER + INTRA:         -10.550
REMARK INTER:                  -9.607
REMARK INTRA:                  -0.942
REMARK UNBOUND:                -0.757
REMARK  Name = 
REMARK  8 active torsions:
REMARK  status: ('A' for Active; 'I' for Inactive)
REMARK    1  A    between atoms: C_1  and  C_2
REMARK    2  A    between atoms: C_2  and  O_3
REMARK    3  A    between atoms: N_5  and  C_6
REMARK    4  A    between atoms: C_10  and  C_11
REMARK    5  A    between atoms: C_11  and  C_12
REMARK    6  A    between atoms: C_12  and  N_13
REMARK    7  A    between atoms: C_23  and  C_24
REMARK    8  A    between atoms: C_24  and  O_25
REMARK                            x       y       z     vdW  Elec       q    Type
REMARK                         _______ _______ _______ _____ _____    ______ ____
ROOT
ATOM      1  C   UNL     1      46.754   5.108  13.400  0.00  0.00    +0.000 A 
ATOM      2  C   UNL     1      47.712   6.118  13.358  0.00  0.00    +0.000 A 
ATOM      3  C   UNL     1      48.449   6.414  14.495  0.00  0.00    +0.000 A 
ATOM      4  N   UNL     1      48.312   5.765  15.664  0.00  0.00    +0.000 NA
ATOM      5  C   UNL     1      47.399   4.772  15.722  0.00  0.00    +0.000 A 
ATOM      6  C   UNL     1      46.614   4.426  14.621  0.00  0.00    +0.000 A 
ENDROOT
BRANCH   1  10
ATOM      7  C   UNL     1      42.914   4.725  13.105  0.00  0.00    +0.000 C 
ATOM      8  C   UNL     1      43.625   4.100  11.899  0.00  0.00    +0.000 C 
ATOM      9  C   UNL     1      45.072   3.655  12.251  0.00  0.00    +0.000 C 
ATOM     10  N   UNL     1      45.970   4.814  12.305  0.00  0.00    +0.000 N 
ATOM     11  C   UNL     1      45.976   5.580  11.054  0.00  0.00    +0.000 C 
ATOM     12  C   UNL     1      44.550   6.031  10.689  0.00  0.00    +0.000 C 
ATOM     13  O   UNL     1      43.551   4.987  10.773  0.00  0.00    +0.000 OA
BRANCH   8  14
ATOM     14  O   UNL     1      42.925   2.905  11.526  0.00  0.00    +0.000 OA
ATOM     15  H   UNL     1      42.958   2.280  12.267  0.00  0.00    +0.000 HD
ENDBRANCH   8  14
BRANCH  12  16
ATOM     16  C   UNL     1      44.126   7.294  11.447  0.00  0.00    +0.000 C 
BRANCH  16  17
ATOM     17  O   UNL     1      42.813   7.693  11.053  0.00  0.00    +0.000 OA
ATOM     18  H   UNL     1      42.365   7.998  11.865  0.00  0.00    +0.000 HD
ENDBRANCH  16  17
ENDBRANCH  12  16
ENDBRANCH   1  10
BRANCH   5  19
ATOM     19  C   UNL     1      47.242   4.030  17.035  0.00  0.00    +0.000 C 
BRANCH  19  20
ATOM     20  C   UNL     1      48.429   3.100  17.305  0.00  0.00    +0.000 C 
BRANCH  20  21
ATOM     21  N   UNL     1      49.706   3.810  17.284  0.00  0.00    +0.000 N 
ATOM     22  C   UNL     1      50.839   3.056  17.586  0.00  0.00    +0.000 A 
ATOM     23  C   UNL     1      51.001   1.732  17.172  0.00  0.00    +0.000 A 
ATOM     24  C   UNL     1      52.168   1.037  17.489  0.00  0.00    +0.000 A 
ATOM     25  C   UNL     1      53.158   1.697  18.188  0.00  0.00    +0.000 A 
ATOM     26  F   UNL     1      54.298   1.073  18.501  0.00  0.00    +0.000 F 
ATOM     27  C   UNL     1      52.945   3.014  18.550  0.00  0.00    +0.000 A 
ATOM     28  N   UNL     1      51.806   3.702  18.271  0.00  0.00    +0.000 NA
ATOM     29  H   UNL     1      49.761   4.650  17.858  0.00  0.00    +0.000 HD
ENDBRANCH  20  21
ENDBRANCH  19  20
ENDBRANCH   5  19
TORSDOF 7
ENDMDL
MODEL 7
REMARK VINA RESULT:    -7.097      2.381      3.115
REMARK INTER + INTRA:         -10.343
REMARK INTER:                  -9.306
REMARK INTRA:                  -1.037
REMARK UNBOUND:                -0.757
REMARK  Name = 
REMARK  8 active torsions:
REMARK  status: ('A' for Active; 'I' for Inactive)
REMARK    1  A    between atoms: C_1  and  C_2
REMARK    2  A    between atoms: C_2  and  O_3
REMARK    3  A    between atoms: N_5  and  C_6
REMARK    4  A    between atoms: C_10  and  C_11
REMARK    5  A    between atoms: C_11  and  C_12
REMARK    6  A    between atoms: C_12  and  N_13
REMARK    7  A    between atoms: C_23  and  C_24
REMARK    8  A    between atoms: C_24  and  O_25
REMARK                            x       y       z     vdW  Elec       q    Type
REMARK                         _______ _______ _______ _____ _____    ______ ____
ROOT
ATOM      1  C   UNL     1      46.332   5.836  12.748  0.00  0.00    +0.000 A 
ATOM      2  C   UNL     1      46.179   4.760  13.617  0.00  0.00    +0.000 A 
ATOM      3  C   UNL     1      47.063   4.598  14.674  0.00  0.00    +0.000 A 
ATOM      4  N   UNL     1      48.078   5.441  14.935  0.00  0.00    +0.000 NA
ATOM      5  C   UNL     1      48.234   6.500  14.112  0.00  0.00    +0.000 A 
ATOM      6  C   UNL     1      47.389   6.720  13.023  0.00  0.00    +0.000 A 
ENDROOT
BRANCH   1  10
ATOM      7  C   UNL     1      44.779   3.223  10.352  0.00  0.00    +0.000 C 
ATOM      8  C   UNL     1      44.724   4.629   9.744  0.00  0.00    +0.000 C 
ATOM      9  C   UNL     1      45.845   5.544  10.310  0.00  0.00    +0.000 C 
ATOM     10  N   UNL     1      45.503   6.007  11.660  0.00  0.00    +0.000 N 
ATOM     11  C   UNL     1      44.216   6.712  11.704  0.00  0.00    +0.000 C 
ATOM     12  C   UNL     1      43.092   5.819  11.147  0.00  0.00    +0.000 C 
ATOM     13  O   UNL     1      43.404   5.174   9.890  0.00  0.00    +0.000 OA
BRANCH   8  14
ATOM     14  O   UNL     1      44.973   4.528   8.336  0.00  0.00    +0.000 OA
ATOM     15  H   UNL     1      45.819   4.075   8.200  0.00  0.00    +0.000 HD
ENDBRANCH   8  14
BRANCH  12  16
ATOM     16  C   UNL     1      42.569   4.823  12.189  0.00  0.00    +0.000 C 
BRANCH  16  17
ATOM     17  O   UNL     1      42.629   5.393  13.496  0.00  0.00    +0.000 OA
ATOM     18  H   UNL     1      42.337   6.321  13.402  0.00  0.00    +0.000 HD
ENDBRANCH  16  17
ENDBRANCH  12  16
ENDBRANCH   1  10
BRANCH   5  19
ATOM     19  C   UNL     1      49.372   7.460  14.403  0.00  0.00    +0.000 C 
BRANCH  19  20
ATOM     20  C   UNL     1      50.099   7.098  15.701  0.00  0.00    +0.000 C 
BRANCH  20  21
ATOM     21  N   UNL     1      49.366   7.535  16.888  0.00  0.00    +0.000 N 
ATOM     22  C   UNL     1      49.199   6.587  17.896  0.00  0.00    +0.000 A 
ATOM     23  C   UNL     1      50.186   5.660  18.237  0.00  0.00    +0.000 A 
ATOM     24  C   UNL     1      49.965   4.750  19.270  0.00  0.00    +0.000 A 
ATOM     25  C   UNL     1      48.770   4.812  19.958  0.00  0.00    +0.000 A 
ATOM     26  F   UNL     1      48.522   3.967  20.964  0.00  0.00    +0.000 F 
ATOM     27  C   UNL     1      47.843   5.767  19.586  0.00  0.00    +0.000 A 
ATOM     28  N   UNL     1      48.029   6.648  18.567  0.00  0.00    +0.000 NA
ATOM     29  H   UNL     1      48.447   7.942  16.722  0.00  0.00    +0.000 HD
ENDBRANCH  20  21
ENDBRANCH  19  20
ENDBRANCH   5  19
TORSDOF 7
ENDMDL
MODEL 8
REMARK VINA RESULT:    -7.048      4.183      8.083
REMARK INTER + INTRA:         -10.278
REMARK INTER:                  -9.274
REMARK INTRA:                  -1.004
REMARK UNBOUND:                -0.757
REMARK  Name = 
REMARK  8 active torsions:
REMARK  status: ('A' for Active; 'I' for Inactive)
REMARK    1  A    between atoms: C_1  and  C_2
REMARK    2  A    between atoms: C_2  and  O_3
REMARK    3  A    between atoms: N_5  and  C_6
REMARK    4  A    between atoms: C_10  and  C_11
REMARK    5  A    between atoms: C_11  and  C_12
REMARK    6  A    between atoms: C_12  and  N_13
REMARK    7  A    between atoms: C_23  and  C_24
REMARK    8  A    between atoms: C_24  and  O_25
REMARK                            x       y       z     vdW  Elec       q    Type
REMARK                         _______ _______ _______ _____ _____    ______ ____
ROOT
ATOM      1  C   UNL     1      48.794   6.241  15.621  0.00  0.00    +0.000 A 
ATOM      2  C   UNL     1      49.942   7.024  15.525  0.00  0.00    +0.000 A 
ATOM      3  C   UNL     1      50.235   7.672  14.335  0.00  0.00    +0.000 A 
ATOM      4  N   UNL     1      49.459   7.609  13.239  0.00  0.00    +0.000 NA
ATOM      5  C   UNL     1      48.333   6.867  13.315  0.00  0.00    +0.000 A 
ATOM      6  C   UNL     1      47.980   6.179  14.477  0.00  0.00    +0.000 A 
ENDROOT
BRANCH   1  10
ATOM      7  C   UNL     1      48.374   2.439  16.207  0.00  0.00    +0.000 C 
ATOM      8  C   UNL     1      47.754   3.245  17.354  0.00  0.00    +0.000 C 
ATOM      9  C   UNL     1      47.323   4.665  16.892  0.00  0.00    +0.000 C 
ATOM     10  N   UNL     1      48.491   5.545  16.772  0.00  0.00    +0.000 N 
ATOM     11  C   UNL     1      49.256   5.640  18.021  0.00  0.00    +0.000 C 
ATOM     12  C   UNL     1      49.692   4.241  18.494  0.00  0.00    +0.000 C 
ATOM     13  O   UNL     1      48.640   3.248  18.484  0.00  0.00    +0.000 OA
BRANCH   8  14
ATOM     14  O   UNL     1      46.552   2.588  17.776  0.00  0.00    +0.000 OA
ATOM     15  H   UNL     1      45.798   3.168  17.592  0.00  0.00    +0.000 HD
ENDBRANCH   8  14
BRANCH  12  16
ATOM     16  C   UNL     1      50.953   3.749  17.772  0.00  0.00    +0.000 C 
BRANCH  16  17
ATOM     17  O   UNL     1      51.267   2.416  18.176  0.00  0.00    +0.000 OA
ATOM     18  H   UNL     1      51.963   2.494  18.857  0.00  0.00    +0.000 HD
ENDBRANCH  16  17
ENDBRANCH  12  16
ENDBRANCH   1  10
BRANCH   5  19
ATOM     19  C   UNL     1      47.448   6.796  12.086  0.00  0.00    +0.000 C 
BRANCH  19  20
ATOM     20  C   UNL     1      46.065   7.399  12.349  0.00  0.00    +0.000 C 
BRANCH  20  21
ATOM     21  N   UNL     1      45.075   6.968  11.364  0.00  0.00    +0.000 N 
ATOM     22  C   UNL     1      44.546   5.690  11.537  0.00  0.00    +0.000 A 
ATOM     23  C   UNL     1      44.263   5.150  12.793  0.00  0.00    +0.000 A 
ATOM     24  C   UNL     1      43.716   3.872  12.898  0.00  0.00    +0.000 A 
ATOM     25  C   UNL     1      43.435   3.178  11.738  0.00  0.00    +0.000 A 
ATOM     26  F   UNL     1      42.896   1.955  11.793  0.00  0.00    +0.000 F 
ATOM     27  C   UNL     1      43.717   3.778  10.526  0.00  0.00    +0.000 A 
ATOM     28  N   UNL     1      44.273   5.012  10.401  0.00  0.00    +0.000 NA
ATOM     29  H   UNL     1      45.357   7.031  10.388  0.00  0.00    +0.000 HD
ENDBRANCH  20  21
ENDBRANCH  19  20
ENDBRANCH   5  19
TORSDOF 7
ENDMDL
MODEL 9
REMARK VINA RESULT:    -7.014      1.810      2.594
REMARK INTER + INTRA:         -10.231
REMARK INTER:                  -9.296
REMARK INTRA:                  -0.935
REMARK UNBOUND:                -0.757
REMARK  Name = 
REMARK  8 active torsions:
REMARK  status: ('A' for Active; 'I' for Inactive)
REMARK    1  A    between atoms: C_1  and  C_2
REMARK    2  A    between atoms: C_2  and  O_3
REMARK    3  A    between atoms: N_5  and  C_6
REMARK    4  A    between atoms: C_10  and  C_11
REMARK    5  A    between atoms: C_11  and  C_12
REMARK    6  A    between atoms: C_12  and  N_13
REMARK    7  A    between atoms: C_23  and  C_24
REMARK    8  A    between atoms: C_24  and  O_25
REMARK                            x       y       z     vdW  Elec       q    Type
REMARK                         _______ _______ _______ _____ _____    ______ ____
ROOT
ATOM      1  C   UNL     1      46.232   6.475  12.599  0.00  0.00    +0.000 A 
ATOM      2  C   UNL     1      45.772   7.789  12.603  0.00  0.00    +0.000 A 
ATOM      3  C   UNL     1      46.443   8.750  13.346  0.00  0.00    +0.000 A 
ATOM      4  N   UNL     1      47.547   8.497  14.071  0.00  0.00    +0.000 NA
ATOM      5  C   UNL     1      48.018   7.232  14.068  0.00  0.00    +0.000 A 
ATOM      6  C   UNL     1      47.388   6.212  13.352  0.00  0.00    +0.000 A 
ENDROOT
BRANCH   1  10
ATOM      7  C   UNL     1      43.335   4.164  13.716  0.00  0.00    +0.000 C 
ATOM      8  C   UNL     1      44.031   3.611  12.467  0.00  0.00    +0.000 C 
ATOM      9  C   UNL     1      45.506   4.091  12.371  0.00  0.00    +0.000 C 
ATOM     10  N   UNL     1      45.567   5.482  11.910  0.00  0.00    +0.000 N 
ATOM     11  C   UNL     1      44.896   5.679  10.620  0.00  0.00    +0.000 C 
ATOM     12  C   UNL     1      43.431   5.209  10.697  0.00  0.00    +0.000 C 
ATOM     13  O   UNL     1      43.249   3.907  11.300  0.00  0.00    +0.000 OA
BRANCH   8  14
ATOM     14  O   UNL     1      44.088   2.182  12.572  0.00  0.00    +0.000 OA
ATOM     15  H   UNL     1      43.971   1.800  11.688  0.00  0.00    +0.000 HD
ENDBRANCH   8  14
BRANCH  12  16
ATOM     16  C   UNL     1      42.513   6.265  11.323  0.00  0.00    +0.000 C 
BRANCH  16  17
ATOM     17  O   UNL     1      42.884   7.571  10.882  0.00  0.00    +0.000 OA
ATOM     18  H   UNL     1      43.514   7.914  11.545  0.00  0.00    +0.000 HD
ENDBRANCH  16  17
ENDBRANCH  12  16
ENDBRANCH   1  10
BRANCH   5  19
ATOM     19  C   UNL     1      49.266   6.939  14.877  0.00  0.00    +0.000 C 
BRANCH  19  20
ATOM     20  C   UNL     1      48.971   6.903  16.379  0.00  0.00    +0.000 C 
BRANCH  20  21
ATOM     21  N   UNL     1      48.259   5.690  16.776  0.00  0.00    +0.000 N 
ATOM     22  C   UNL     1      49.035   4.544  16.944  0.00  0.00    +0.000 A 
ATOM     23  C   UNL     1      50.316   4.570  17.499  0.00  0.00    +0.000 A 
ATOM     24  C   UNL     1      51.034   3.385  17.660  0.00  0.00    +0.000 A 
ATOM     25  C   UNL     1      50.436   2.198  17.289  0.00  0.00    +0.000 A 
ATOM     26  F   UNL     1      51.083   1.037  17.439  0.00  0.00    +0.000 F 
ATOM     27  C   UNL     1      49.156   2.238  16.767  0.00  0.00    +0.000 A 
ATOM     28  N   UNL     1      48.449   3.383  16.580  0.00  0.00    +0.000 NA
ATOM     29  H   UNL     1      47.473   5.419  16.187  0.00  0.00    +0.000 HD
ENDBRANCH  20  21
ENDBRANCH  19  20
ENDBRANCH   5  19
TORSDOF 7
ENDMDL
