MODEL 1
REMARK VINA RESULT:    -8.522      0.000      0.000
REMARK INTER + INTRA:         -12.761
REMARK INTER:                 -12.009
REMARK INTRA:                  -0.753
REMARK UNBOUND:                -0.753
REMARK  Name = 
REMARK  8 active torsions:
REMARK  status: ('A' for Active; 'I' for Inactive)
REMARK    1  A    between atoms: C_1  and  C_2
REMARK    2  A    between atoms: C_2  and  N_3
REMARK    3  A    between atoms: C_2  and  C_25
REMARK    4  A    between atoms: N_3  and  C_4
REMARK    5  A    between atoms: C_4  and  C_5
REMARK    6  A    between atoms: C_8  and  C_9
REMARK    7  A    between atoms: C_9  and  N_10
REMARK    8  A    between atoms: C_11  and  C_13
REMARK                            x       y       z     vdW  Elec       q    Type
REMARK                         _______ _______ _______ _____ _____    ______ ____
ROOT
ATOM      1  C   UNL     1      45.359   4.408  12.380  0.00  0.00    +0.000 A 
ATOM      2  C   UNL     1      45.710   5.587  11.727  0.00  0.00    +0.000 A 
ATOM      3  C   UNL     1      46.744   6.365  12.246  0.00  0.00    +0.000 A 
ATOM      4  C   UNL     1      47.409   5.953  13.402  0.00  0.00    +0.000 A 
ATOM      5  C   UNL     1      46.967   4.784  14.007  0.00  0.00    +0.000 A 
ATOM      6  N   UNL     1      45.978   4.005  13.520  0.00  0.00    +0.000 NA
ENDROOT
BRANCH   1   7
ATOM      7  C   UNL     1      44.313   3.479  11.783  0.00  0.00    +0.000 C 
BRANCH   7   8
ATOM      8  N   UNL     1      44.867   2.536  10.807  0.00  0.00    +0.000 NA
ATOM      9  H   UNL     1      44.575   1.593  11.062  0.00  0.00    +0.000 HD
BRANCH   8  11
ATOM     10  C   UNL     1      43.966   4.243   9.193  0.00  0.00    +0.000 C 
ATOM     11  C   UNL     1      44.428   2.798   9.423  0.00  0.00    +0.000 C 
BRANCH  11  12
ATOM     12  C   UNL     1      45.542   2.444   8.436  0.00  0.00    +0.000 A 
ATOM     13  C   UNL     1      46.094   3.418   7.600  0.00  0.00    +0.000 A 
ATOM     14  C   UNL     1      47.136   3.070   6.746  0.00  0.00    +0.000 A 
ATOM     15  C   UNL     1      47.601   1.761   6.741  0.00  0.00    +0.000 A 
ATOM     16  C   UNL     1      46.996   0.851   7.591  0.00  0.00    +0.000 A 
ATOM     17  N   UNL     1      45.986   1.160   8.436  0.00  0.00    +0.000 NA
ENDBRANCH  11  12
ENDBRANCH   8  11
ENDBRANCH   7   8
ENDBRANCH   1   7
BRANCH   4  18
ATOM     18  C   UNL     1      48.518   6.757  14.008  0.00  0.00    +0.000 C 
BRANCH  18  19
ATOM     19  N   UNL     1      48.344   6.876  15.432  0.00  0.00    +0.000 N 
ATOM     20  C   UNL     1      49.394   6.726  16.299  0.00  0.00    +0.000 C 
ATOM     21  O   UNL     1      50.542   6.545  15.902  0.00  0.00    +0.000 OA
ATOM     22  H   UNL     1      47.394   6.804  15.787  0.00  0.00    +0.000 HD
BRANCH  20  23
ATOM     23  C   UNL     1      49.085   6.855  17.729  0.00  0.00    +0.000 A 
ATOM     24  C   UNL     1      48.935   8.118  18.286  0.00  0.00    +0.000 A 
ATOM     25  S   UNL     1      48.519   8.091  19.940  0.00  0.00    +0.000 S 
ATOM     26  C   UNL     1      48.578   6.392  19.984  0.00  0.00    +0.000 A 
ATOM     27  N   UNL     1      48.337   5.712  21.139  0.00  0.00    +0.000 NA
ATOM     28  C   UNL     1      48.446   4.430  21.036  0.00  0.00    +0.000 A 
ATOM     29  N   UNL     1      48.771   3.764  19.884  0.00  0.00    +0.000 N 
ATOM     30  C   UNL     1      48.993   4.405  18.689  0.00  0.00    +0.000 A 
ATOM     31  O   UNL     1      49.235   3.778  17.663  0.00  0.00    +0.000 OA
ATOM     32  C   UNL     1      48.893   5.851  18.750  0.00  0.00    +0.000 A 
ATOM     33  H   UNL     1      48.831   2.756  19.866  0.00  0.00    +0.000 HD
ENDBRANCH  20  23
ENDBRANCH  18  19
ENDBRANCH   4  18
TORSDOF 7
ENDMDL
MODEL 2
REMARK VINA RESULT:    -8.058      1.445      2.213
REMARK INTER + INTRA:         -12.108
REMARK INTER:                 -11.212
REMARK INTRA:                  -0.896
REMARK UNBOUND:                -0.753
REMARK  Name = 
REMARK  8 active torsions:
REMARK  status: ('A' for Active; 'I' for Inactive)
REMARK    1  A    between atoms: C_1  and  C_2
REMARK    2  A    between atoms: C_2  and  N_3
REMARK    3  A    between atoms: C_2  and  C_25
REMARK    4  A    between atoms: N_3  and  C_4
REMARK    5  A    between atoms: C_4  and  C_5
REMARK    6  A    between atoms: C_8  and  C_9
REMARK    7  A    between atoms: C_9  and  N_10
REMARK    8  A    between atoms: C_11  and  C_13
REMARK                            x       y       z     vdW  Elec       q    Type
REMARK                         _______ _______ _______ _____ _____    ______ ____
ROOT
ATOM      1  C   UNL     1      45.273   4.540  12.311  0.00  0.00    +0.000 A 
ATOM      2  C   UNL     1      45.640   5.755  11.738  0.00  0.00    +0.000 A 
ATOM      3  C   UNL     1      46.653   6.506  12.334  0.00  0.00    +0.000 A 
ATOM      4  C   UNL     1      47.281   6.030  13.486  0.00  0.00    +0.000 A 
ATOM      5  C   UNL     1      46.826   4.828  14.009  0.00  0.00    +0.000 A 
ATOM      6  N   UNL     1      45.856   4.075  13.446  0.00  0.00    +0.000 NA
ENDROOT
BRANCH   1   7
ATOM      7  C   UNL     1      44.252   3.644  11.628  0.00  0.00    +0.000 C 
BRANCH   7   8
ATOM      8  N   UNL     1      44.856   2.670  10.715  0.00  0.00    +0.000 NA
ATOM      9  H   UNL     1      44.532   1.737  10.971  0.00  0.00    +0.000 HD
BRANCH   8  11
ATOM     10  C   UNL     1      44.154   4.363   8.993  0.00  0.00    +0.000 C 
ATOM     11  C   UNL     1      44.519   2.905   9.299  0.00  0.00    +0.000 C 
BRANCH  11  12
ATOM     12  C   UNL     1      45.670   2.456   8.396  0.00  0.00    +0.000 A 
ATOM     13  C   UNL     1      46.040   1.112   8.321  0.00  0.00    +0.000 A 
ATOM     14  C   UNL     1      47.063   0.734   7.456  0.00  0.00    +0.000 A 
ATOM     15  C   UNL     1      47.694   1.704   6.689  0.00  0.00    +0.000 A 
ATOM     16  C   UNL     1      47.278   3.018   6.825  0.00  0.00    +0.000 A 
ATOM     17  N   UNL     1      46.285   3.415   7.653  0.00  0.00    +0.000 NA
ENDBRANCH  11  12
ENDBRANCH   8  11
ENDBRANCH   7   8
ENDBRANCH   1   7
BRANCH   4  18
ATOM     18  C   UNL     1      48.367   6.801  14.173  0.00  0.00    +0.000 C 
BRANCH  18  19
ATOM     19  N   UNL     1      48.233   6.707  15.603  0.00  0.00    +0.000 N 
ATOM     20  C   UNL     1      49.301   6.400  16.406  0.00  0.00    +0.000 C 
ATOM     21  O   UNL     1      50.432   6.250  15.951  0.00  0.00    +0.000 OA
ATOM     22  H   UNL     1      47.292   6.607  15.972  0.00  0.00    +0.000 HD
BRANCH  20  23
ATOM     23  C   UNL     1      49.033   6.319  17.847  0.00  0.00    +0.000 A 
ATOM     24  C   UNL     1      49.388   5.174  18.547  0.00  0.00    +0.000 A 
ATOM     25  S   UNL     1      49.063   5.266  20.219  0.00  0.00    +0.000 S 
ATOM     26  C   UNL     1      48.386   6.818  20.058  0.00  0.00    +0.000 A 
ATOM     27  N   UNL     1      47.881   7.477  21.137  0.00  0.00    +0.000 NA
ATOM     28  C   UNL     1      47.371   8.631  20.868  0.00  0.00    +0.000 A 
ATOM     29  N   UNL     1      47.322   9.190  19.617  0.00  0.00    +0.000 N 
ATOM     30  C   UNL     1      47.845   8.576  18.505  0.00  0.00    +0.000 A 
ATOM     31  O   UNL     1      47.829   9.122  17.407  0.00  0.00    +0.000 OA
ATOM     32  C   UNL     1      48.423   7.268  18.751  0.00  0.00    +0.000 A 
ATOM     33  H   UNL     1      46.917  10.103  19.472  0.00  0.00    +0.000 HD
ENDBRANCH  20  23
ENDBRANCH  18  19
ENDBRANCH   4  18
TORSDOF 7
ENDMDL
MODEL 3
REMARK VINA RESULT:    -7.559      3.330      9.061
REMARK INTER + INTRA:         -11.406
REMARK INTER:                 -10.039
REMARK INTRA:                  -1.367
REMARK UNBOUND:                -0.753
REMARK  Name = 
REMARK  8 active torsions:
REMARK  status: ('A' for Active; 'I' for Inactive)
REMARK    1  A    between atoms: C_1  and  C_2
REMARK    2  A    between atoms: C_2  and  N_3
REMARK    3  A    between atoms: C_2  and  C_25
REMARK    4  A    between atoms: N_3  and  C_4
REMARK    5  A    between atoms: C_4  and  C_5
REMARK    6  A    between atoms: C_8  and  C_9
REMARK    7  A    between atoms: C_9  and  N_10
REMARK    8  A    between atoms: C_11  and  C_13
REMARK                            x       y       z     vdW  Elec       q    Type
REMARK                         _______ _______ _______ _____ _____    ______ ____
ROOT
ATOM      1  C   UNL     1      49.026   7.715  16.005  0.00  0.00    +0.000 A 
ATOM      2  C   UNL     1      48.326   8.852  15.610  0.00  0.00    +0.000 A 
ATOM      3  C   UNL     1      47.781   8.900  14.327  0.00  0.00    +0.000 A 
ATOM      4  C   UNL     1      47.942   7.814  13.465  0.00  0.00    +0.000 A 
ATOM      5  C   UNL     1      48.686   6.738  13.930  0.00  0.00    +0.000 A 
ATOM      6  N   UNL     1      49.214   6.660  15.171  0.00  0.00    +0.000 NA
ENDROOT
BRANCH   1   7
ATOM      7  C   UNL     1      49.538   7.582  17.430  0.00  0.00    +0.000 C 
BRANCH   7   8
ATOM      8  N   UNL     1      48.468   7.390  18.413  0.00  0.00    +0.000 NA
ATOM      9  H   UNL     1      47.576   7.344  17.920  0.00  0.00    +0.000 HD
BRANCH   8  11
ATOM     10  C   UNL     1      47.595   6.042  20.350  0.00  0.00    +0.000 C 
ATOM     11  C   UNL     1      48.618   6.159  19.212  0.00  0.00    +0.000 C 
BRANCH  11  12
ATOM     12  C   UNL     1      48.535   4.926  18.310  0.00  0.00    +0.000 A 
ATOM     13  C   UNL     1      49.604   4.032  18.220  0.00  0.00    +0.000 A 
ATOM     14  C   UNL     1      49.477   2.898  17.424  0.00  0.00    +0.000 A 
ATOM     15  C   UNL     1      48.291   2.682  16.734  0.00  0.00    +0.000 A 
ATOM     16  C   UNL     1      47.280   3.619  16.866  0.00  0.00    +0.000 A 
ATOM     17  N   UNL     1      47.372   4.728  17.636  0.00  0.00    +0.000 NA
ENDBRANCH  11  12
ENDBRANCH   8  11
ENDBRANCH   7   8
ENDBRANCH   1   7
BRANCH   4  18
ATOM     18  C   UNL     1      47.387   7.817  12.074  0.00  0.00    +0.000 C 
BRANCH  18  19
ATOM     19  N   UNL     1      46.730   6.569  11.783  0.00  0.00    +0.000 N 
ATOM     20  C   UNL     1      45.364   6.467  11.754  0.00  0.00    +0.000 C 
ATOM     21  O   UNL     1      44.637   7.445  11.912  0.00  0.00    +0.000 OA
ATOM     22  H   UNL     1      47.287   5.724  11.869  0.00  0.00    +0.000 HD
BRANCH  20  23
ATOM     23  C   UNL     1      44.814   5.137  11.461  0.00  0.00    +0.000 A 
ATOM     24  C   UNL     1      44.071   4.475  12.428  0.00  0.00    +0.000 A 
ATOM     25  S   UNL     1      43.456   2.972  11.907  0.00  0.00    +0.000 S 
ATOM     26  C   UNL     1      44.207   3.127  10.389  0.00  0.00    +0.000 A 
ATOM     27  N   UNL     1      44.096   2.149   9.450  0.00  0.00    +0.000 NA
ATOM     28  C   UNL     1      44.741   2.383   8.356  0.00  0.00    +0.000 A 
ATOM     29  N   UNL     1      45.486   3.508   8.115  0.00  0.00    +0.000 N 
ATOM     30  C   UNL     1      45.601   4.534   9.021  0.00  0.00    +0.000 A 
ATOM     31  O   UNL     1      46.236   5.551   8.758  0.00  0.00    +0.000 OA
ATOM     32  C   UNL     1      44.903   4.317  10.274  0.00  0.00    +0.000 A 
ATOM     33  H   UNL     1      45.960   3.637   7.233  0.00  0.00    +0.000 HD
ENDBRANCH  20  23
ENDBRANCH  18  19
ENDBRANCH   4  18
TORSDOF 7
ENDMDL
MODEL 4
REMARK VINA RESULT:    -7.464      2.160      2.518
REMARK INTER + INTRA:         -11.271
REMARK INTER:                 -10.359
REMARK INTRA:                  -0.912
REMARK UNBOUND:                -0.753
REMARK  Name = 
REMARK  8 active torsions:
REMARK  status: ('A' for Active; 'I' for Inactive)
REMARK    1  A    between atoms: C_1  and  C_2
REMARK    2  A    between atoms: C_2  and  N_3
REMARK    3  A    between atoms: C_2  and  C_25
REMARK    4  A    between atoms: N_3  and  C_4
REMARK    5  A    between atoms: C_4  and  C_5
REMARK    6  A    between atoms: C_8  and  C_9
REMARK    7  A    between atoms: C_9  and  N_10
REMARK    8  A    between atoms: C_11  and  C_13
REMARK                            x       y       z     vdW  Elec       q    Type
REMARK                         _______ _______ _______ _____ _____    ______ ____
ROOT
ATOM      1  C   UNL     1      44.608   5.157  11.050  0.00  0.00    +0.000 A 
ATOM      2  C   UNL     1      44.514   5.120  12.439  0.00  0.00    +0.000 A 
ATOM      3  C   UNL     1      45.397   5.887  13.197  0.00  0.00    +0.000 A 
ATOM      4  C   UNL     1      46.352   6.679  12.558  0.00  0.00    +0.000 A 
ATOM      5  C   UNL     1      46.397   6.626  11.172  0.00  0.00    +0.000 A 
ATOM      6  N   UNL     1      45.548   5.901  10.412  0.00  0.00    +0.000 NA
ENDROOT
BRANCH   1   7
ATOM      7  C   UNL     1      43.593   4.421  10.190  0.00  0.00    +0.000 C 
BRANCH   7   8
ATOM      8  N   UNL     1      44.153   3.926   8.929  0.00  0.00    +0.000 NA
ATOM      9  H   UNL     1      44.700   4.672   8.500  0.00  0.00    +0.000 HD
BRANCH   8  11
ATOM     10  C   UNL     1      44.252   1.436   9.273  0.00  0.00    +0.000 C 
ATOM     11  C   UNL     1      45.026   2.749   9.096  0.00  0.00    +0.000 C 
BRANCH  11  12
ATOM     12  C   UNL     1      45.990   2.629   7.914  0.00  0.00    +0.000 A 
ATOM     13  C   UNL     1      46.737   1.466   7.713  0.00  0.00    +0.000 A 
ATOM     14  C   UNL     1      47.570   1.376   6.602  0.00  0.00    +0.000 A 
ATOM     15  C   UNL     1      47.642   2.446   5.720  0.00  0.00    +0.000 A 
ATOM     16  C   UNL     1      46.878   3.568   5.991  0.00  0.00    +0.000 A 
ATOM     17  N   UNL     1      46.057   3.684   7.059  0.00  0.00    +0.000 NA
ENDBRANCH  11  12
ENDBRANCH   8  11
ENDBRANCH   7   8
ENDBRANCH   1   7
BRANCH   4  18
ATOM     18  C   UNL     1      47.332   7.514  13.324  0.00  0.00    +0.000 C 
BRANCH  18  19
ATOM     19  N   UNL     1      48.025   6.719  14.304  0.00  0.00    +0.000 N 
ATOM     20  C   UNL     1      48.621   7.287  15.399  0.00  0.00    +0.000 C 
ATOM     21  O   UNL     1      48.540   8.491  15.630  0.00  0.00    +0.000 OA
ATOM     22  H   UNL     1      48.291   5.778  14.028  0.00  0.00    +0.000 HD
BRANCH  20  23
ATOM     23  C   UNL     1      49.309   6.372  16.317  0.00  0.00    +0.000 A 
ATOM     24  C   UNL     1      50.517   6.752  16.886  0.00  0.00    +0.000 A 
ATOM     25  S   UNL     1      51.153   5.602  17.973  0.00  0.00    +0.000 S 
ATOM     26  C   UNL     1      49.865   4.530  17.680  0.00  0.00    +0.000 A 
ATOM     27  N   UNL     1      49.810   3.317  18.294  0.00  0.00    +0.000 NA
ATOM     28  C   UNL     1      48.795   2.593  17.958  0.00  0.00    +0.000 A 
ATOM     29  N   UNL     1      47.828   2.973  17.064  0.00  0.00    +0.000 N 
ATOM     30  C   UNL     1      47.826   4.199  16.444  0.00  0.00    +0.000 A 
ATOM     31  O   UNL     1      46.921   4.530  15.685  0.00  0.00    +0.000 OA
ATOM     32  C   UNL     1      48.952   5.050  16.780  0.00  0.00    +0.000 A 
ATOM     33  H   UNL     1      47.052   2.364  16.849  0.00  0.00    +0.000 HD
ENDBRANCH  20  23
ENDBRANCH  18  19
ENDBRANCH   4  18
TORSDOF 7
ENDMDL
MODEL 5
REMARK VINA RESULT:    -7.145      3.520      8.652
REMARK INTER + INTRA:         -10.821
REMARK INTER:                  -9.387
REMARK INTRA:                  -1.434
REMARK UNBOUND:                -0.753
REMARK  Name = 
REMARK  8 active torsions:
REMARK  status: ('A' for Active; 'I' for Inactive)
REMARK    1  A    between atoms: C_1  and  C_2
REMARK    2  A    between atoms: C_2  and  N_3
REMARK    3  A    between atoms: C_2  and  C_25
REMARK    4  A    between atoms: N_3  and  C_4
REMARK    5  A    between atoms: C_4  and  C_5
REMARK    6  A    between atoms: C_8  and  C_9
REMARK    7  A    between atoms: C_9  and  N_10
REMARK    8  A    between atoms: C_11  and  C_13
REMARK                            x       y       z     vdW  Elec       q    Type
REMARK                         _______ _______ _______ _____ _____    ______ ____
ROOT
ATOM      1  C   UNL     1      48.659   7.696  16.375  0.00  0.00    +0.000 A 
ATOM      2  C   UNL     1      48.978   6.611  15.561  0.00  0.00    +0.000 A 
ATOM      3  C   UNL     1      48.852   6.742  14.179  0.00  0.00    +0.000 A 
ATOM      4  C   UNL     1      48.414   7.950  13.634  0.00  0.00    +0.000 A 
ATOM      5  C   UNL     1      48.083   8.965  14.522  0.00  0.00    +0.000 A 
ATOM      6  N   UNL     1      48.207   8.870  15.863  0.00  0.00    +0.000 NA
ENDROOT
BRANCH   1   7
ATOM      7  C   UNL     1      48.889   7.627  17.876  0.00  0.00    +0.000 C 
BRANCH   7   8
ATOM      8  N   UNL     1      48.076   6.604  18.540  0.00  0.00    +0.000 NA
ATOM      9  H   UNL     1      47.514   6.126  17.835  0.00  0.00    +0.000 HD
BRANCH   8  11
ATOM     10  C   UNL     1      48.276   5.195  20.614  0.00  0.00    +0.000 C 
ATOM     11  C   UNL     1      48.874   5.593  19.258  0.00  0.00    +0.000 C 
BRANCH  11  12
ATOM     12  C   UNL     1      49.065   4.349  18.388  0.00  0.00    +0.000 A 
ATOM     13  C   UNL     1      47.978   3.753  17.743  0.00  0.00    +0.000 A 
ATOM     14  C   UNL     1      48.195   2.649  16.924  0.00  0.00    +0.000 A 
ATOM     15  C   UNL     1      49.487   2.163  16.769  0.00  0.00    +0.000 A 
ATOM     16  C   UNL     1      50.511   2.801  17.449  0.00  0.00    +0.000 A 
ATOM     17  N   UNL     1      50.332   3.878  18.248  0.00  0.00    +0.000 NA
ENDBRANCH  11  12
ENDBRANCH   8  11
ENDBRANCH   7   8
ENDBRANCH   1   7
BRANCH   4  18
ATOM     18  C   UNL     1      48.249   8.141  12.157  0.00  0.00    +0.000 C 
BRANCH  18  19
ATOM     19  N   UNL     1      47.561   7.021  11.571  0.00  0.00    +0.000 N 
ATOM     20  C   UNL     1      46.200   7.016  11.415  0.00  0.00    +0.000 C 
ATOM     21  O   UNL     1      45.509   7.988  11.711  0.00  0.00    +0.000 OA
ATOM     22  H   UNL     1      48.068   6.142  11.526  0.00  0.00    +0.000 HD
BRANCH  20  23
ATOM     23  C   UNL     1      45.615   5.809  10.818  0.00  0.00    +0.000 A 
ATOM     24  C   UNL     1      45.797   5.557   9.465  0.00  0.00    +0.000 A 
ATOM     25  S   UNL     1      45.106   4.087   8.944  0.00  0.00    +0.000 S 
ATOM     26  C   UNL     1      44.492   3.762  10.497  0.00  0.00    +0.000 A 
ATOM     27  N   UNL     1      43.761   2.639  10.739  0.00  0.00    +0.000 NA
ATOM     28  C   UNL     1      43.331   2.534  11.952  0.00  0.00    +0.000 A 
ATOM     29  N   UNL     1      43.567   3.448  12.946  0.00  0.00    +0.000 N 
ATOM     30  C   UNL     1      44.323   4.579  12.755  0.00  0.00    +0.000 A 
ATOM     31  O   UNL     1      44.557   5.354  13.676  0.00  0.00    +0.000 OA
ATOM     32  C   UNL     1      44.823   4.752  11.404  0.00  0.00    +0.000 A 
ATOM     33  H   UNL     1      43.210   3.303  13.880  0.00  0.00    +0.000 HD
ENDBRANCH  20  23
ENDBRANCH  18  19
ENDBRANCH   4  18
TORSDOF 7
ENDMDL
MODEL 6
REMARK VINA RESULT:    -6.961      1.842      2.045
REMARK INTER + INTRA:         -10.563
REMARK INTER:                  -9.249
REMARK INTRA:                  -1.314
REMARK UNBOUND:                -0.753
REMARK  Name = 
REMARK  8 active torsions:
REMARK  status: ('A' for Active; 'I' for Inactive)
REMARK    1  A    between atoms: C_1  and  C_2
REMARK    2  A    between atoms: C_2  and  N_3
REMARK    3  A    between atoms: C_2  and  C_25
REMARK    4  A    between atoms: N_3  and  C_4
REMARK    5  A    between atoms: C_4  and  C_5
REMARK    6  A    between atoms: C_8  and  C_9
REMARK    7  A    between atoms: C_9  and  N_10
REMARK    8  A    between atoms: C_11  and  C_13
REMARK                            x       y       z     vdW  Elec       q    Type
REMARK                         _______ _______ _______ _____ _____    ______ ____
ROOT
ATOM      1  C   UNL     1      46.061   5.197  13.229  0.00  0.00    +0.000 A 
ATOM      2  C   UNL     1      46.433   6.134  12.268  0.00  0.00    +0.000 A 
ATOM      3  C   UNL     1      47.609   6.861  12.451  0.00  0.00    +0.000 A 
ATOM      4  C   UNL     1      48.392   6.637  13.585  0.00  0.00    +0.000 A 
ATOM      5  C   UNL     1      47.925   5.711  14.507  0.00  0.00    +0.000 A 
ATOM      6  N   UNL     1      46.797   4.985  14.350  0.00  0.00    +0.000 NA
ENDROOT
BRANCH   1   7
ATOM      7  C   UNL     1      44.846   4.309  13.008  0.00  0.00    +0.000 C 
BRANCH   7   8
ATOM      8  N   UNL     1      45.125   3.147  12.160  0.00  0.00    +0.000 NA
ATOM      9  H   UNL     1      45.037   2.302  12.725  0.00  0.00    +0.000 HD
BRANCH   8  11
ATOM     10  C   UNL     1      43.085   4.070  11.013  0.00  0.00    +0.000 C 
ATOM     11  C   UNL     1      44.213   3.029  11.007  0.00  0.00    +0.000 C 
BRANCH  11  12
ATOM     12  C   UNL     1      44.997   3.121   9.696  0.00  0.00    +0.000 A 
ATOM     13  C   UNL     1      45.294   4.360   9.124  0.00  0.00    +0.000 A 
ATOM     14  C   UNL     1      46.048   4.406   7.955  0.00  0.00    +0.000 A 
ATOM     15  C   UNL     1      46.485   3.219   7.382  0.00  0.00    +0.000 A 
ATOM     16  C   UNL     1      46.142   2.030   8.003  0.00  0.00    +0.000 A 
ATOM     17  N   UNL     1      45.416   1.952   9.141  0.00  0.00    +0.000 NA
ENDBRANCH  11  12
ENDBRANCH   8  11
ENDBRANCH   7   8
ENDBRANCH   1   7
BRANCH   4  18
ATOM     18  C   UNL     1      49.658   7.397  13.837  0.00  0.00    +0.000 C 
BRANCH  18  19
ATOM     19  N   UNL     1      49.983   7.397  15.239  0.00  0.00    +0.000 N 
ATOM     20  C   UNL     1      51.277   7.510  15.677  0.00  0.00    +0.000 C 
ATOM     21  O   UNL     1      52.212   7.677  14.898  0.00  0.00    +0.000 OA
ATOM     22  H   UNL     1      49.274   7.045  15.876  0.00  0.00    +0.000 HD
BRANCH  20  23
ATOM     23  C   UNL     1      51.480   7.482  17.131  0.00  0.00    +0.000 A 
ATOM     24  C   UNL     1      52.050   8.578  17.764  0.00  0.00    +0.000 A 
ATOM     25  S   UNL     1      52.160   8.408  19.457  0.00  0.00    +0.000 S 
ATOM     26  C   UNL     1      51.499   6.842  19.399  0.00  0.00    +0.000 A 
ATOM     27  N   UNL     1      51.337   6.108  20.534  0.00  0.00    +0.000 NA
ATOM     28  C   UNL     1      50.855   4.926  20.341  0.00  0.00    +0.000 A 
ATOM     29  N   UNL     1      50.517   4.411  19.116  0.00  0.00    +0.000 N 
ATOM     30  C   UNL     1      50.635   5.126  17.949  0.00  0.00    +0.000 A 
ATOM     31  O   UNL     1      50.279   4.656  16.873  0.00  0.00    +0.000 OA
ATOM     32  C   UNL     1      51.183   6.460  18.108  0.00  0.00    +0.000 A 
ATOM     33  H   UNL     1      50.134   3.481  19.032  0.00  0.00    +0.000 HD
ENDBRANCH  20  23
ENDBRANCH  18  19
ENDBRANCH   4  18
TORSDOF 7
ENDMDL
MODEL 7
REMARK VINA RESULT:    -6.629      5.204      8.596
REMARK INTER + INTRA:         -10.095
REMARK INTER:                  -9.049
REMARK INTRA:                  -1.046
REMARK UNBOUND:                -0.753
REMARK  Name = 
REMARK  8 active torsions:
REMARK  status: ('A' for Active; 'I' for Inactive)
REMARK    1  A    between atoms: C_1  and  C_2
REMARK    2  A    between atoms: C_2  and  N_3
REMARK    3  A    between atoms: C_2  and  C_25
REMARK    4  A    between atoms: N_3  and  C_4
REMARK    5  A    between atoms: C_4  and  C_5
REMARK    6  A    between atoms: C_8  and  C_9
REMARK    7  A    between atoms: C_9  and  N_10
REMARK    8  A    between atoms: C_11  and  C_13
REMARK                            x       y       z     vdW  Elec       q    Type
REMARK                         _______ _______ _______ _____ _____    ______ ____
ROOT
ATOM      1  C   UNL     1      50.853   8.521  12.093  0.00  0.00    +0.000 A 
ATOM      2  C   UNL     1      50.090   7.584  11.401  0.00  0.00    +0.000 A 
ATOM      3  C   UNL     1      48.725   7.491  11.671  0.00  0.00    +0.000 A 
ATOM      4  C   UNL     1      48.148   8.336  12.620  0.00  0.00    +0.000 A 
ATOM      5  C   UNL     1      48.991   9.214  13.287  0.00  0.00    +0.000 A 
ATOM      6  N   UNL     1      50.313   9.333  13.038  0.00  0.00    +0.000 NA
ENDROOT
BRANCH   1   7
ATOM      7  C   UNL     1      52.319   8.726  11.746  0.00  0.00    +0.000 C 
BRANCH   7   8
ATOM      8  N   UNL     1      53.038   7.472  11.505  0.00  0.00    +0.000 NA
ATOM      9  H   UNL     1      52.375   6.777  11.161  0.00  0.00    +0.000 HD
BRANCH   8  11
ATOM     10  C   UNL     1      55.504   7.213  11.080  0.00  0.00    +0.000 C 
ATOM     11  C   UNL     1      54.128   7.599  10.520  0.00  0.00    +0.000 C 
BRANCH  11  12
ATOM     12  C   UNL     1      53.821   6.764   9.275  0.00  0.00    +0.000 A 
ATOM     13  C   UNL     1      52.664   6.995   8.526  0.00  0.00    +0.000 A 
ATOM     14  C   UNL     1      52.439   6.246   7.375  0.00  0.00    +0.000 A 
ATOM     15  C   UNL     1      53.368   5.285   6.998  0.00  0.00    +0.000 A 
ATOM     16  C   UNL     1      54.485   5.109   7.798  0.00  0.00    +0.000 A 
ATOM     17  N   UNL     1      54.734   5.823   8.919  0.00  0.00    +0.000 NA
ENDBRANCH  11  12
ENDBRANCH   8  11
ENDBRANCH   7   8
ENDBRANCH   1   7
BRANCH   4  18
ATOM     18  C   UNL     1      46.689   8.271  12.957  0.00  0.00    +0.000 C 
BRANCH  18  19
ATOM     19  N   UNL     1      46.159   6.961  12.681  0.00  0.00    +0.000 N 
ATOM     20  C   UNL     1      45.120   6.777  11.806  0.00  0.00    +0.000 C 
ATOM     21  O   UNL     1      44.633   7.709  11.171  0.00  0.00    +0.000 OA
ATOM     22  H   UNL     1      46.386   6.224  13.342  0.00  0.00    +0.000 HD
BRANCH  20  23
ATOM     23  C   UNL     1      44.659   5.395  11.621  0.00  0.00    +0.000 A 
ATOM     24  C   UNL     1      43.952   4.767  12.637  0.00  0.00    +0.000 A 
ATOM     25  S   UNL     1      43.440   3.190  12.240  0.00  0.00    +0.000 S 
ATOM     26  C   UNL     1      44.191   3.270  10.716  0.00  0.00    +0.000 A 
ATOM     27  N   UNL     1      44.151   2.213   9.859  0.00  0.00    +0.000 NA
ATOM     28  C   UNL     1      44.788   2.399   8.752  0.00  0.00    +0.000 A 
ATOM     29  N   UNL     1      45.461   3.546   8.422  0.00  0.00    +0.000 N 
ATOM     30  C   UNL     1      45.503   4.648   9.241  0.00  0.00    +0.000 A 
ATOM     31  O   UNL     1      46.073   5.678   8.898  0.00  0.00    +0.000 OA
ATOM     32  C   UNL     1      44.810   4.489  10.506  0.00  0.00    +0.000 A 
ATOM     33  H   UNL     1      45.933   3.634   7.533  0.00  0.00    +0.000 HD
ENDBRANCH  20  23
ENDBRANCH  18  19
ENDBRANCH   4  18
TORSDOF 7
ENDMDL
MODEL 8
REMARK VINA RESULT:    -6.376      5.006      6.250
REMARK INTER + INTRA:          -9.737
REMARK INTER:                  -8.616
REMARK INTRA:                  -1.121
REMARK UNBOUND:                -0.753
REMARK  Name = 
REMARK  8 active torsions:
REMARK  status: ('A' for Active; 'I' for Inactive)
REMARK    1  A    between atoms: C_1  and  C_2
REMARK    2  A    between atoms: C_2  and  N_3
REMARK    3  A    between atoms: C_2  and  C_25
REMARK    4  A    between atoms: N_3  and  C_4
REMARK    5  A    between atoms: C_4  and  C_5
REMARK    6  A    between atoms: C_8  and  C_9
REMARK    7  A    between atoms: C_9  and  N_10
REMARK    8  A    between atoms: C_11  and  C_13
REMARK                            x       y       z     vdW  Elec       q    Type
REMARK                         _______ _______ _______ _____ _____    ______ ____
ROOT
ATOM      1  C   UNL     1      45.714   6.614  12.574  0.00  0.00    +0.000 A 
ATOM      2  C   UNL     1      46.959   6.333  12.016  0.00  0.00    +0.000 A 
ATOM      3  C   UNL     1      47.852   7.380  11.795  0.00  0.00    +0.000 A 
ATOM      4  C   UNL     1      47.490   8.684  12.137  0.00  0.00    +0.000 A 
ATOM      5  C   UNL     1      46.216   8.876  12.653  0.00  0.00    +0.000 A 
ATOM      6  N   UNL     1      45.335   7.880  12.889  0.00  0.00    +0.000 NA
ENDROOT
BRANCH   1   7
ATOM      7  C   UNL     1      44.758   5.487  12.931  0.00  0.00    +0.000 C 
BRANCH   7   8
ATOM      8  N   UNL     1      45.095   4.216  12.283  0.00  0.00    +0.000 NA
ATOM      9  H   UNL     1      45.142   3.488  12.996  0.00  0.00    +0.000 HD
BRANCH   8  11
ATOM     10  C   UNL     1      43.015   4.839  11.013  0.00  0.00    +0.000 C 
ATOM     11  C   UNL     1      44.116   3.800  11.261  0.00  0.00    +0.000 C 
BRANCH  11  12
ATOM     12  C   UNL     1      44.826   3.470   9.947  0.00  0.00    +0.000 A 
ATOM     13  C   UNL     1      45.317   4.486   9.124  0.00  0.00    +0.000 A 
ATOM     14  C   UNL     1      45.997   4.148   7.957  0.00  0.00    +0.000 A 
ATOM     15  C   UNL     1      46.167   2.808   7.636  0.00  0.00    +0.000 A 
ATOM     16  C   UNL     1      45.643   1.858   8.497  0.00  0.00    +0.000 A 
ATOM     17  N   UNL     1      44.983   2.155   9.639  0.00  0.00    +0.000 NA
ENDBRANCH  11  12
ENDBRANCH   8  11
ENDBRANCH   7   8
ENDBRANCH   1   7
BRANCH   4  18
ATOM     18  C   UNL     1      48.407   9.847  11.911  0.00  0.00    +0.000 C 
BRANCH  18  19
ATOM     19  N   UNL     1      49.687   9.402  11.425  0.00  0.00    +0.000 N 
ATOM     20  C   UNL     1      50.828  10.132  11.632  0.00  0.00    +0.000 C 
ATOM     21  O   UNL     1      50.824  11.168  12.292  0.00  0.00    +0.000 OA
ATOM     22  H   UNL     1      49.683   8.685  10.705  0.00  0.00    +0.000 HD
BRANCH  20  23
ATOM     23  C   UNL     1      52.069   9.579  11.074  0.00  0.00    +0.000 A 
ATOM     24  C   UNL     1      52.410   9.854   9.757  0.00  0.00    +0.000 A 
ATOM     25  S   UNL     1      53.907   9.187   9.286  0.00  0.00    +0.000 S 
ATOM     26  C   UNL     1      54.127   8.461  10.808  0.00  0.00    +0.000 A 
ATOM     27  N   UNL     1      55.227   7.705  11.071  0.00  0.00    +0.000 NA
ATOM     28  C   UNL     1      55.251   7.189  12.255  0.00  0.00    +0.000 A 
ATOM     29  N   UNL     1      54.274   7.363  13.201  0.00  0.00    +0.000 N 
ATOM     30  C   UNL     1      53.162   8.142  12.991  0.00  0.00    +0.000 A 
ATOM     31  O   UNL     1      52.330   8.318  13.874  0.00  0.00    +0.000 OA
ATOM     32  C   UNL     1      53.081   8.738  11.671  0.00  0.00    +0.000 A 
ATOM     33  H   UNL     1      54.356   6.940  14.114  0.00  0.00    +0.000 HD
ENDBRANCH  20  23
ENDBRANCH  18  19
ENDBRANCH   4  18
TORSDOF 7
ENDMDL
MODEL 9
REMARK VINA RESULT:    -6.227      2.584      3.554
REMARK INTER + INTRA:          -9.528
REMARK INTER:                  -8.459
REMARK INTRA:                  -1.069
REMARK UNBOUND:                -0.753
REMARK  Name = 
REMARK  8 active torsions:
REMARK  status: ('A' for Active; 'I' for Inactive)
REMARK    1  A    between atoms: C_1  and  C_2
REMARK    2  A    between atoms: C_2  and  N_3
REMARK    3  A    between atoms: C_2  and  C_25
REMARK    4  A    between atoms: N_3  and  C_4
REMARK    5  A    between atoms: C_4  and  C_5
REMARK    6  A    between atoms: C_8  and  C_9
REMARK    7  A    between atoms: C_9  and  N_10
REMARK    8  A    between atoms: C_11  and  C_13
REMARK                            x       y       z     vdW  Elec       q    Type
REMARK                         _______ _______ _______ _____ _____    ______ ____
ROOT
ATOM      1  C   UNL     1      46.369   8.144  12.300  0.00  0.00    +0.000 A 
ATOM      2  C   UNL     1      47.307   7.698  11.371  0.00  0.00    +0.000 A 
ATOM      3  C   UNL     1      48.663   7.813  11.672  0.00  0.00    +0.000 A 
ATOM      4  C   UNL     1      49.059   8.367  12.890  0.00  0.00    +0.000 A 
ATOM      5  C   UNL     1      48.057   8.819  13.738  0.00  0.00    +0.000 A 
ATOM      6  N   UNL     1      46.736   8.709  13.479  0.00  0.00    +0.000 NA
ENDROOT
BRANCH   1   7
ATOM      7  C   UNL     1      44.883   7.934  12.055  0.00  0.00    +0.000 C 
BRANCH   7   8
ATOM      8  N   UNL     1      44.602   6.895  11.060  0.00  0.00    +0.000 NA
ATOM      9  H   UNL     1      45.207   7.044  10.253  0.00  0.00    +0.000 HD
BRANCH   8  11
ATOM     10  C   UNL     1      43.760   5.057  12.557  0.00  0.00    +0.000 C 
ATOM     11  C   UNL     1      44.828   5.526  11.560  0.00  0.00    +0.000 C 
BRANCH  11  12
ATOM     12  C   UNL     1      44.918   4.540  10.393  0.00  0.00    +0.000 A 
ATOM     13  C   UNL     1      45.548   4.900   9.199  0.00  0.00    +0.000 A 
ATOM     14  C   UNL     1      45.650   3.963   8.175  0.00  0.00    +0.000 A 
ATOM     15  C   UNL     1      45.120   2.693   8.362  0.00  0.00    +0.000 A 
ATOM     16  C   UNL     1      44.503   2.415   9.570  0.00  0.00    +0.000 A 
ATOM     17  N   UNL     1      44.392   3.302  10.585  0.00  0.00    +0.000 NA
ENDBRANCH  11  12
ENDBRANCH   8  11
ENDBRANCH   7   8
ENDBRANCH   1   7
BRANCH   4  18
ATOM     18  C   UNL     1      50.502   8.525  13.259  0.00  0.00    +0.000 C 
BRANCH  18  19
ATOM     19  N   UNL     1      50.898   7.524  14.215  0.00  0.00    +0.000 N 
ATOM     20  C   UNL     1      51.687   7.832  15.292  0.00  0.00    +0.000 C 
ATOM     21  O   UNL     1      52.044   8.984  15.526  0.00  0.00    +0.000 OA
ATOM     22  H   UNL     1      50.806   6.553  13.930  0.00  0.00    +0.000 HD
BRANCH  20  23
ATOM     23  C   UNL     1      52.034   6.721  16.187  0.00  0.00    +0.000 A 
ATOM     24  C   UNL     1      53.369   6.432  16.435  0.00  0.00    +0.000 A 
ATOM     25  S   UNL     1      53.598   5.154  17.540  0.00  0.00    +0.000 S 
ATOM     26  C   UNL     1      51.922   4.904  17.685  0.00  0.00    +0.000 A 
ATOM     27  N   UNL     1      51.427   3.918  18.481  0.00  0.00    +0.000 NA
ATOM     28  C   UNL     1      50.140   3.820  18.473  0.00  0.00    +0.000 A 
ATOM     29  N   UNL     1      49.301   4.621  17.742  0.00  0.00    +0.000 N 
ATOM     30  C   UNL     1      49.754   5.647  16.949  0.00  0.00    +0.000 A 
ATOM     31  O   UNL     1      48.976   6.378  16.344  0.00  0.00    +0.000 OA
ATOM     32  C   UNL     1      51.196   5.795  16.914  0.00  0.00    +0.000 A 
ATOM     33  H   UNL     1      48.299   4.500  17.786  0.00  0.00    +0.000 HD
ENDBRANCH  20  23
ENDBRANCH  18  19
ENDBRANCH   4  18
TORSDOF 7
ENDMDL
