MODEL 1
REMARK VINA RESULT:    -8.552      0.000      0.000
REMARK INTER + INTRA:         -12.523
REMARK INTER:                 -11.552
REMARK INTRA:                  -0.971
REMARK UNBOUND:                -0.971
REMARK  Name = 
REMARK  7 active torsions:
REMARK  status: ('A' for Active; 'I' for Inactive)
REMARK    1  A    between atoms: C_1  and  O_2
REMARK    2  A    between atoms: O_2  and  C_3
REMARK    3  A    between atoms: C_5  and  N_6
REMARK    4  A    between atoms: N_6  and  C_7
REMARK    5  A    between atoms: C_7  and  C_8
REMARK    6  A    between atoms: C_12  and  C_13
REMARK    7  A    between atoms: C_22  and  C_23
REMARK                            x       y       z     vdW  Elec       q    Type
REMARK                         _______ _______ _______ _____ _____    ______ ____
ROOT
ATOM      1  N   UNL     1      43.763   6.641  12.547  0.00  0.00    +0.000 N 
ATOM      2  H   UNL     1      43.286   7.144  13.285  0.00  0.00    +0.000 HD
ENDROOT
BRANCH   1   5
ATOM      3  C   UNL     1      47.423   6.934  12.216  0.00  0.00    +0.000 A 
ATOM      4  C   UNL     1      46.066   7.160  12.012  0.00  0.00    +0.000 A 
ATOM      5  C   UNL     1      45.113   6.439  12.731  0.00  0.00    +0.000 A 
ATOM      6  N   UNL     1      45.475   5.517  13.642  0.00  0.00    +0.000 NA
ATOM      7  C   UNL     1      46.818   5.306  13.820  0.00  0.00    +0.000 A 
ATOM      8  C   UNL     1      47.814   5.974  13.128  0.00  0.00    +0.000 A 
BRANCH   7   9
ATOM      9  C   UNL     1      47.221   4.295  14.853  0.00  0.00    +0.000 C 
ATOM     10  N   UNL     1      47.272   4.752  16.142  0.00  0.00    +0.000 N 
ATOM     11  O   UNL     1      47.497   3.136  14.573  0.00  0.00    +0.000 OA
ATOM     12  H   UNL     1      47.061   5.722  16.342  0.00  0.00    +0.000 HD
ATOM     13  H   UNL     1      47.565   4.123  16.876  0.00  0.00    +0.000 HD
ENDBRANCH   7   9
BRANCH   3  15
ATOM     14  C   UNL     1      49.708   7.536  12.167  0.00  0.00    +0.000 C 
ATOM     15  O   UNL     1      48.427   7.575  11.544  0.00  0.00    +0.000 OA
ENDBRANCH   3  15
ENDBRANCH   1   5
BRANCH   1  16
ATOM     16  C   UNL     1      43.034   6.135  11.405  0.00  0.00    +0.000 C 
BRANCH  16  17
ATOM     17  C   UNL     1      43.447   4.743  11.035  0.00  0.00    +0.000 A 
ATOM     18  C   UNL     1      42.953   3.640  11.717  0.00  0.00    +0.000 A 
ATOM     19  N   UNL     1      43.260   2.366  11.403  0.00  0.00    +0.000 NA
ATOM     20  C   UNL     1      44.106   2.182  10.359  0.00  0.00    +0.000 A 
ATOM     21  C   UNL     1      44.666   3.200   9.583  0.00  0.00    +0.000 A 
ATOM     22  C   UNL     1      44.312   4.505   9.959  0.00  0.00    +0.000 A 
BRANCH  21  23
ATOM     23  C   UNL     1      45.569   2.926   8.442  0.00  0.00    +0.000 A 
ATOM     24  C   UNL     1      45.904   3.927   7.510  0.00  0.00    +0.000 A 
ATOM     25  C   UNL     1      46.739   3.660   6.420  0.00  0.00    +0.000 A 
ATOM     26  C   UNL     1      47.269   2.386   6.249  0.00  0.00    +0.000 A 
ATOM     27 CL   UNL     1      48.288   2.052   4.904  0.00  0.00    +0.000 Cl
ATOM     28  C   UNL     1      46.974   1.380   7.161  0.00  0.00    +0.000 A 
ATOM     29  C   UNL     1      46.130   1.649   8.243  0.00  0.00    +0.000 A 
ENDBRANCH  21  23
ENDBRANCH  16  17
ENDBRANCH   1  16
TORSDOF 6
ENDMDL
MODEL 2
REMARK VINA RESULT:    -7.801      1.129      2.698
REMARK INTER + INTRA:         -11.508
REMARK INTER:                 -10.795
REMARK INTRA:                  -0.713
REMARK UNBOUND:                -0.971
REMARK  Name = 
REMARK  7 active torsions:
REMARK  status: ('A' for Active; 'I' for Inactive)
REMARK    1  A    between atoms: C_1  and  O_2
REMARK    2  A    between atoms: O_2  and  C_3
REMARK    3  A    between atoms: C_5  and  N_6
REMARK    4  A    between atoms: N_6  and  C_7
REMARK    5  A    between atoms: C_7  and  C_8
REMARK    6  A    between atoms: C_12  and  C_13
REMARK    7  A    between atoms: C_22  and  C_23
REMARK                            x       y       z     vdW  Elec       q    Type
REMARK                         _______ _______ _______ _____ _____    ______ ____
ROOT
ATOM      1  N   UNL     1      43.757   6.583  12.613  0.00  0.00    +0.000 N 
ATOM      2  H   UNL     1      43.280   7.119  13.327  0.00  0.00    +0.000 HD
ENDROOT
BRANCH   1   5
ATOM      3  C   UNL     1      46.801   4.872  13.796  0.00  0.00    +0.000 A 
ATOM      4  C   UNL     1      45.458   5.141  13.557  0.00  0.00    +0.000 A 
ATOM      5  C   UNL     1      45.079   6.291  12.863  0.00  0.00    +0.000 A 
ATOM      6  N   UNL     1      45.996   7.162  12.402  0.00  0.00    +0.000 NA
ATOM      7  C   UNL     1      47.313   6.879  12.658  0.00  0.00    +0.000 A 
ATOM      8  C   UNL     1      47.754   5.767  13.354  0.00  0.00    +0.000 A 
BRANCH   7   9
ATOM      9  C   UNL     1      48.335   7.839  12.123  0.00  0.00    +0.000 C 
ATOM     10  N   UNL     1      48.093   9.163  12.368  0.00  0.00    +0.000 N 
ATOM     11  O   UNL     1      49.321   7.474  11.496  0.00  0.00    +0.000 OA
ATOM     12  H   UNL     1      47.257   9.438  12.869  0.00  0.00    +0.000 HD
ATOM     13  H   UNL     1      48.732   9.856  12.007  0.00  0.00    +0.000 HD
ENDBRANCH   7   9
BRANCH   3  15
ATOM     14  C   UNL     1      47.436   3.971  15.887  0.00  0.00    +0.000 C 
ATOM     15  O   UNL     1      47.264   3.784  14.484  0.00  0.00    +0.000 OA
ENDBRANCH   3  15
ENDBRANCH   1   5
BRANCH   1  16
ATOM     16  C   UNL     1      43.052   6.124  11.437  0.00  0.00    +0.000 C 
BRANCH  16  17
ATOM     17  C   UNL     1      43.428   4.724  11.056  0.00  0.00    +0.000 A 
ATOM     18  C   UNL     1      42.910   3.630  11.733  0.00  0.00    +0.000 A 
ATOM     19  N   UNL     1      43.184   2.351  11.409  0.00  0.00    +0.000 NA
ATOM     20  C   UNL     1      44.020   2.152  10.359  0.00  0.00    +0.000 A 
ATOM     21  C   UNL     1      44.601   3.161   9.586  0.00  0.00    +0.000 A 
ATOM     22  C   UNL     1      44.281   4.472   9.973  0.00  0.00    +0.000 A 
BRANCH  21  23
ATOM     23  C   UNL     1      45.490   2.873   8.439  0.00  0.00    +0.000 A 
ATOM     24  C   UNL     1      46.106   1.616   8.280  0.00  0.00    +0.000 A 
ATOM     25  C   UNL     1      46.964   1.353   7.207  0.00  0.00    +0.000 A 
ATOM     26  C   UNL     1      47.213   2.341   6.261  0.00  0.00    +0.000 A 
ATOM     27 CL   UNL     1      48.276   2.024   4.948  0.00  0.00    +0.000 Cl
ATOM     28  C   UNL     1      46.607   3.586   6.377  0.00  0.00    +0.000 A 
ATOM     29  C   UNL     1      45.759   3.848   7.458  0.00  0.00    +0.000 A 
ENDBRANCH  21  23
ENDBRANCH  16  17
ENDBRANCH   1  16
TORSDOF 6
ENDMDL
MODEL 3
REMARK VINA RESULT:    -7.738      1.924      2.546
REMARK INTER + INTRA:         -11.423
REMARK INTER:                 -10.693
REMARK INTRA:                  -0.730
REMARK UNBOUND:                -0.971
REMARK  Name = 
REMARK  7 active torsions:
REMARK  status: ('A' for Active; 'I' for Inactive)
REMARK    1  A    between atoms: C_1  and  O_2
REMARK    2  A    between atoms: O_2  and  C_3
REMARK    3  A    between atoms: C_5  and  N_6
REMARK    4  A    between atoms: N_6  and  C_7
REMARK    5  A    between atoms: C_7  and  C_8
REMARK    6  A    between atoms: C_12  and  C_13
REMARK    7  A    between atoms: C_22  and  C_23
REMARK                            x       y       z     vdW  Elec       q    Type
REMARK                         _______ _______ _______ _____ _____    ______ ____
ROOT
ATOM      1  N   UNL     1      46.283   5.671  13.169  0.00  0.00    +0.000 N 
ATOM      2  H   UNL     1      46.717   6.002  12.316  0.00  0.00    +0.000 HD
ENDROOT
BRANCH   1   5
ATOM      3  C   UNL     1      48.907   6.452  15.638  0.00  0.00    +0.000 A 
ATOM      4  C   UNL     1      48.092   6.551  14.515  0.00  0.00    +0.000 A 
ATOM      5  C   UNL     1      47.102   5.598  14.273  0.00  0.00    +0.000 A 
ATOM      6  N   UNL     1      46.903   4.569  15.116  0.00  0.00    +0.000 NA
ATOM      7  C   UNL     1      47.724   4.487  16.211  0.00  0.00    +0.000 A 
ATOM      8  C   UNL     1      48.734   5.388  16.501  0.00  0.00    +0.000 A 
BRANCH   7   9
ATOM      9  C   UNL     1      47.484   3.352  17.163  0.00  0.00    +0.000 C 
ATOM     10  N   UNL     1      48.606   2.763  17.680  0.00  0.00    +0.000 N 
ATOM     11  O   UNL     1      46.362   2.962  17.459  0.00  0.00    +0.000 OA
ATOM     12  H   UNL     1      49.522   3.091  17.400  0.00  0.00    +0.000 HD
ATOM     13  H   UNL     1      48.506   1.976  18.304  0.00  0.00    +0.000 HD
ENDBRANCH   7   9
BRANCH   3  15
ATOM     14  C   UNL     1      51.122   6.728  16.416  0.00  0.00    +0.000 C 
ATOM     15  O   UNL     1      49.915   7.323  15.946  0.00  0.00    +0.000 OA
ENDBRANCH   3  15
ENDBRANCH   1   5
BRANCH   1  16
ATOM     16  C   UNL     1      44.873   5.350  13.205  0.00  0.00    +0.000 C 
BRANCH  16  17
ATOM     17  C   UNL     1      44.511   4.262  12.240  0.00  0.00    +0.000 A 
ATOM     18  C   UNL     1      43.430   3.424  12.471  0.00  0.00    +0.000 A 
ATOM     19  N   UNL     1      43.037   2.456  11.619  0.00  0.00    +0.000 NA
ATOM     20  C   UNL     1      43.762   2.312  10.482  0.00  0.00    +0.000 A 
ATOM     21  C   UNL     1      44.863   3.092  10.121  0.00  0.00    +0.000 A 
ATOM     22  C   UNL     1      45.227   4.082  11.048  0.00  0.00    +0.000 A 
BRANCH  21  23
ATOM     23  C   UNL     1      45.598   2.893   8.852  0.00  0.00    +0.000 A 
ATOM     24  C   UNL     1      46.059   1.623   8.458  0.00  0.00    +0.000 A 
ATOM     25  C   UNL     1      46.773   1.440   7.268  0.00  0.00    +0.000 A 
ATOM     26  C   UNL     1      47.029   2.528   6.441  0.00  0.00    +0.000 A 
ATOM     27 CL   UNL     1      47.915   2.310   4.984  0.00  0.00    +0.000 Cl
ATOM     28  C   UNL     1      46.572   3.792   6.790  0.00  0.00    +0.000 A 
ATOM     29  C   UNL     1      45.868   3.971   7.986  0.00  0.00    +0.000 A 
ENDBRANCH  21  23
ENDBRANCH  16  17
ENDBRANCH   1  16
TORSDOF 6
ENDMDL
MODEL 4
REMARK VINA RESULT:    -7.559      1.899      3.232
REMARK INTER + INTRA:         -11.182
REMARK INTER:                 -10.311
REMARK INTRA:                  -0.871
REMARK UNBOUND:                -0.971
REMARK  Name = 
REMARK  7 active torsions:
REMARK  status: ('A' for Active; 'I' for Inactive)
REMARK    1  A    between atoms: C_1  and  O_2
REMARK    2  A    between atoms: O_2  and  C_3
REMARK    3  A    between atoms: C_5  and  N_6
REMARK    4  A    between atoms: N_6  and  C_7
REMARK    5  A    between atoms: C_7  and  C_8
REMARK    6  A    between atoms: C_12  and  C_13
REMARK    7  A    between atoms: C_22  and  C_23
REMARK                            x       y       z     vdW  Elec       q    Type
REMARK                         _______ _______ _______ _____ _____    ______ ____
ROOT
ATOM      1  N   UNL     1      46.116   5.669  13.361  0.00  0.00    +0.000 N 
ATOM      2  H   UNL     1      46.750   4.972  13.729  0.00  0.00    +0.000 HD
ENDROOT
BRANCH   1   5
ATOM      3  C   UNL     1      48.636   8.206  12.461  0.00  0.00    +0.000 A 
ATOM      4  C   UNL     1      48.079   7.003  12.882  0.00  0.00    +0.000 A 
ATOM      5  C   UNL     1      46.694   6.849  12.946  0.00  0.00    +0.000 A 
ATOM      6  N   UNL     1      45.863   7.849  12.599  0.00  0.00    +0.000 NA
ATOM      7  C   UNL     1      46.435   9.028  12.197  0.00  0.00    +0.000 A 
ATOM      8  C   UNL     1      47.799   9.252  12.126  0.00  0.00    +0.000 A 
BRANCH   7   9
ATOM      9  C   UNL     1      45.508  10.133  11.787  0.00  0.00    +0.000 C 
ATOM     10  N   UNL     1      44.333  10.212  12.484  0.00  0.00    +0.000 N 
ATOM     11  O   UNL     1      45.769  10.915  10.882  0.00  0.00    +0.000 OA
ATOM     12  H   UNL     1      44.132   9.538  13.213  0.00  0.00    +0.000 HD
ATOM     13  H   UNL     1      43.657  10.920  12.233  0.00  0.00    +0.000 HD
ENDBRANCH   7   9
BRANCH   3  15
ATOM     14  C   UNL     1      50.672   7.786  11.337  0.00  0.00    +0.000 C 
ATOM     15  O   UNL     1      49.979   8.456  12.386  0.00  0.00    +0.000 OA
ENDBRANCH   3  15
ENDBRANCH   1   5
BRANCH   1  16
ATOM     16  C   UNL     1      44.701   5.397  13.245  0.00  0.00    +0.000 C 
BRANCH  16  17
ATOM     17  C   UNL     1      44.412   4.267  12.304  0.00  0.00    +0.000 A 
ATOM     18  C   UNL     1      43.396   3.357  12.560  0.00  0.00    +0.000 A 
ATOM     19  N   UNL     1      43.070   2.346  11.730  0.00  0.00    +0.000 NA
ATOM     20  C   UNL     1      43.796   2.233  10.590  0.00  0.00    +0.000 A 
ATOM     21  C   UNL     1      44.835   3.084  10.205  0.00  0.00    +0.000 A 
ATOM     22  C   UNL     1      45.131   4.116  11.110  0.00  0.00    +0.000 A 
BRANCH  21  23
ATOM     23  C   UNL     1      45.574   2.915   8.935  0.00  0.00    +0.000 A 
ATOM     24  C   UNL     1      46.024   1.651   8.506  0.00  0.00    +0.000 A 
ATOM     25  C   UNL     1      46.742   1.496   7.315  0.00  0.00    +0.000 A 
ATOM     26  C   UNL     1      47.012   2.604   6.520  0.00  0.00    +0.000 A 
ATOM     27 CL   UNL     1      47.903   2.419   5.062  0.00  0.00    +0.000 Cl
ATOM     28  C   UNL     1      46.565   3.862   6.904  0.00  0.00    +0.000 A 
ATOM     29  C   UNL     1      45.858   4.014   8.101  0.00  0.00    +0.000 A 
ENDBRANCH  21  23
ENDBRANCH  16  17
ENDBRANCH   1  16
TORSDOF 6
ENDMDL
MODEL 5
REMARK VINA RESULT:    -7.036      2.037      2.391
REMARK INTER + INTRA:         -10.475
REMARK INTER:                  -9.648
REMARK INTRA:                  -0.827
REMARK UNBOUND:                -0.971
REMARK  Name = 
REMARK  7 active torsions:
REMARK  status: ('A' for Active; 'I' for Inactive)
REMARK    1  A    between atoms: C_1  and  O_2
REMARK    2  A    between atoms: O_2  and  C_3
REMARK    3  A    between atoms: C_5  and  N_6
REMARK    4  A    between atoms: N_6  and  C_7
REMARK    5  A    between atoms: C_7  and  C_8
REMARK    6  A    between atoms: C_12  and  C_13
REMARK    7  A    between atoms: C_22  and  C_23
REMARK                            x       y       z     vdW  Elec       q    Type
REMARK                         _______ _______ _______ _____ _____    ______ ____
ROOT
ATOM      1  N   UNL     1      46.035   6.065  13.638  0.00  0.00    +0.000 N 
ATOM      2  H   UNL     1      46.127   5.311  14.307  0.00  0.00    +0.000 HD
ENDROOT
BRANCH   1   5
ATOM      3  C   UNL     1      48.328   8.656  12.364  0.00  0.00    +0.000 A 
ATOM      4  C   UNL     1      47.197   7.859  12.500  0.00  0.00    +0.000 A 
ATOM      5  C   UNL     1      47.142   6.870  13.482  0.00  0.00    +0.000 A 
ATOM      6  N   UNL     1      48.172   6.664  14.324  0.00  0.00    +0.000 NA
ATOM      7  C   UNL     1      49.280   7.456  14.164  0.00  0.00    +0.000 A 
ATOM      8  C   UNL     1      49.405   8.443  13.202  0.00  0.00    +0.000 A 
BRANCH   7   9
ATOM      9  C   UNL     1      50.417   7.242  15.120  0.00  0.00    +0.000 C 
ATOM     10  N   UNL     1      51.452   8.131  15.020  0.00  0.00    +0.000 N 
ATOM     11  O   UNL     1      50.433   6.329  15.934  0.00  0.00    +0.000 OA
ATOM     12  H   UNL     1      51.422   8.863  14.321  0.00  0.00    +0.000 HD
ATOM     13  H   UNL     1      52.257   8.019  15.618  0.00  0.00    +0.000 HD
ENDBRANCH   7   9
BRANCH   3  15
ATOM     14  C   UNL     1      47.589  10.740  11.529  0.00  0.00    +0.000 C 
ATOM     15  O   UNL     1      48.481   9.634  11.419  0.00  0.00    +0.000 OA
ENDBRANCH   3  15
ENDBRANCH   1   5
BRANCH   1  16
ATOM     16  C   UNL     1      44.821   6.232  12.871  0.00  0.00    +0.000 C 
BRANCH  16  17
ATOM     17  C   UNL     1      44.486   5.018  12.059  0.00  0.00    +0.000 A 
ATOM     18  C   UNL     1      43.424   4.194  12.399  0.00  0.00    +0.000 A 
ATOM     19  N   UNL     1      43.056   3.112  11.684  0.00  0.00    +0.000 NA
ATOM     20  C   UNL     1      43.788   2.835  10.575  0.00  0.00    +0.000 A 
ATOM     21  C   UNL     1      44.872   3.586  10.114  0.00  0.00    +0.000 A 
ATOM     22  C   UNL     1      45.210   4.698  10.902  0.00  0.00    +0.000 A 
BRANCH  21  23
ATOM     23  C   UNL     1      45.615   3.239   8.883  0.00  0.00    +0.000 A 
ATOM     24  C   UNL     1      46.023   4.225   7.964  0.00  0.00    +0.000 A 
ATOM     25  C   UNL     1      46.705   3.891   6.788  0.00  0.00    +0.000 A 
ATOM     26  C   UNL     1      47.006   2.562   6.516  0.00  0.00    +0.000 A 
ATOM     27 CL   UNL     1      47.835   2.148   5.067  0.00  0.00    +0.000 Cl
ATOM     28  C   UNL     1      46.635   1.566   7.410  0.00  0.00    +0.000 A 
ATOM     29  C   UNL     1      45.943   1.903   8.578  0.00  0.00    +0.000 A 
ENDBRANCH  21  23
ENDBRANCH  16  17
ENDBRANCH   1  16
TORSDOF 6
ENDMDL
MODEL 6
REMARK VINA RESULT:    -6.914      2.868      4.834
REMARK INTER + INTRA:         -10.310
REMARK INTER:                  -9.380
REMARK INTRA:                  -0.930
REMARK UNBOUND:                -0.971
REMARK  Name = 
REMARK  7 active torsions:
REMARK  status: ('A' for Active; 'I' for Inactive)
REMARK    1  A    between atoms: C_1  and  O_2
REMARK    2  A    between atoms: O_2  and  C_3
REMARK    3  A    between atoms: C_5  and  N_6
REMARK    4  A    between atoms: N_6  and  C_7
REMARK    5  A    between atoms: C_7  and  C_8
REMARK    6  A    between atoms: C_12  and  C_13
REMARK    7  A    between atoms: C_22  and  C_23
REMARK                            x       y       z     vdW  Elec       q    Type
REMARK                         _______ _______ _______ _____ _____    ______ ____
ROOT
ATOM      1  N   UNL     1      49.061   7.368  13.935  0.00  0.00    +0.000 N 
ATOM      2  H   UNL     1      49.793   6.931  13.389  0.00  0.00    +0.000 HD
ENDROOT
BRANCH   1   5
ATOM      3  C   UNL     1      48.628   6.861  17.561  0.00  0.00    +0.000 A 
ATOM      4  C   UNL     1      48.915   7.479  16.349  0.00  0.00    +0.000 A 
ATOM      5  C   UNL     1      48.782   6.781  15.149  0.00  0.00    +0.000 A 
ATOM      6  N   UNL     1      48.368   5.500  15.128  0.00  0.00    +0.000 NA
ATOM      7  C   UNL     1      48.100   4.909  16.336  0.00  0.00    +0.000 A 
ATOM      8  C   UNL     1      48.227   5.539  17.561  0.00  0.00    +0.000 A 
BRANCH   7   9
ATOM      9  C   UNL     1      47.616   3.489  16.309  0.00  0.00    +0.000 C 
ATOM     10  N   UNL     1      46.913   3.081  17.410  0.00  0.00    +0.000 N 
ATOM     11  O   UNL     1      47.837   2.732  15.374  0.00  0.00    +0.000 OA
ATOM     12  H   UNL     1      46.764   3.721  18.180  0.00  0.00    +0.000 HD
ATOM     13  H   UNL     1      46.586   2.127  17.460  0.00  0.00    +0.000 HD
ENDBRANCH   7   9
BRANCH   3  15
ATOM     14  C   UNL     1      47.811   7.034  19.772  0.00  0.00    +0.000 C 
ATOM     15  O   UNL     1      48.749   7.457  18.786  0.00  0.00    +0.000 OA
ENDBRANCH   3  15
ENDBRANCH   1   5
BRANCH   1  16
ATOM     16  C   UNL     1      48.401   8.566  13.464  0.00  0.00    +0.000 C 
BRANCH  16  17
ATOM     17  C   UNL     1      47.108   8.269  12.767  0.00  0.00    +0.000 A 
ATOM     18  C   UNL     1      46.111   9.227  12.658  0.00  0.00    +0.000 A 
ATOM     19  N   UNL     1      44.947   9.026  12.010  0.00  0.00    +0.000 NA
ATOM     20  C   UNL     1      44.764   7.806  11.445  0.00  0.00    +0.000 A 
ATOM     21  C   UNL     1      45.688   6.757  11.470  0.00  0.00    +0.000 A 
ATOM     22  C   UNL     1      46.880   7.025  12.162  0.00  0.00    +0.000 A 
BRANCH  21  23
ATOM     23  C   UNL     1      45.432   5.456  10.815  0.00  0.00    +0.000 A 
ATOM     24  C   UNL     1      45.662   5.265   9.439  0.00  0.00    +0.000 A 
ATOM     25  C   UNL     1      45.398   4.040   8.816  0.00  0.00    +0.000 A 
ATOM     26  C   UNL     1      44.911   2.974   9.564  0.00  0.00    +0.000 A 
ATOM     27 CL   UNL     1      44.575   1.471   8.800  0.00  0.00    +0.000 Cl
ATOM     28  C   UNL     1      44.691   3.122  10.928  0.00  0.00    +0.000 A 
ATOM     29  C   UNL     1      44.946   4.352  11.543  0.00  0.00    +0.000 A 
ENDBRANCH  21  23
ENDBRANCH  16  17
ENDBRANCH   1  16
TORSDOF 6
ENDMDL
MODEL 7
REMARK VINA RESULT:    -6.237      3.959      6.594
REMARK INTER + INTRA:          -9.396
REMARK INTER:                  -8.491
REMARK INTRA:                  -0.906
REMARK UNBOUND:                -0.971
REMARK  Name = 
REMARK  7 active torsions:
REMARK  status: ('A' for Active; 'I' for Inactive)
REMARK    1  A    between atoms: C_1  and  O_2
REMARK    2  A    between atoms: O_2  and  C_3
REMARK    3  A    between atoms: C_5  and  N_6
REMARK    4  A    between atoms: N_6  and  C_7
REMARK    5  A    between atoms: C_7  and  C_8
REMARK    6  A    between atoms: C_12  and  C_13
REMARK    7  A    between atoms: C_22  and  C_23
REMARK                            x       y       z     vdW  Elec       q    Type
REMARK                         _______ _______ _______ _____ _____    ______ ____
ROOT
ATOM      1  N   UNL     1      49.994   6.970  16.271  0.00  0.00    +0.000 N 
ATOM      2  H   UNL     1      50.882   6.884  15.793  0.00  0.00    +0.000 HD
ENDROOT
BRANCH   1   5
ATOM      3  C   UNL     1      48.673   5.081  19.149  0.00  0.00    +0.000 A 
ATOM      4  C   UNL     1      48.997   6.149  18.320  0.00  0.00    +0.000 A 
ATOM      5  C   UNL     1      49.659   5.930  17.111  0.00  0.00    +0.000 A 
ATOM      6  N   UNL     1      49.992   4.689  16.712  0.00  0.00    +0.000 NA
ATOM      7  C   UNL     1      49.670   3.654  17.550  0.00  0.00    +0.000 A 
ATOM      8  C   UNL     1      49.031   3.802  18.768  0.00  0.00    +0.000 A 
BRANCH   7   9
ATOM      9  C   UNL     1      50.021   2.269  17.092  0.00  0.00    +0.000 C 
ATOM     10  N   UNL     1      50.949   1.609  17.852  0.00  0.00    +0.000 N 
ATOM     11  O   UNL     1      49.524   1.754  16.099  0.00  0.00    +0.000 OA
ATOM     12  H   UNL     1      51.361   2.067  18.655  0.00  0.00    +0.000 HD
ATOM     13  H   UNL     1      51.245   0.684  17.575  0.00  0.00    +0.000 HD
ENDBRANCH   7   9
BRANCH   3  15
ATOM     14  C   UNL     1      47.506   6.486  20.649  0.00  0.00    +0.000 C 
ATOM     15  O   UNL     1      48.046   5.199  20.359  0.00  0.00    +0.000 OA
ENDBRANCH   3  15
ENDBRANCH   1   5
BRANCH   1  16
ATOM     16  C   UNL     1      49.171   8.147  16.101  0.00  0.00    +0.000 C 
BRANCH  16  17
ATOM     17  C   UNL     1      48.566   8.227  14.732  0.00  0.00    +0.000 A 
ATOM     18  C   UNL     1      48.788   9.322  13.910  0.00  0.00    +0.000 A 
ATOM     19  N   UNL     1      48.300   9.429  12.658  0.00  0.00    +0.000 NA
ATOM     20  C   UNL     1      47.549   8.394  12.204  0.00  0.00    +0.000 A 
ATOM     21  C   UNL     1      47.258   7.231  12.922  0.00  0.00    +0.000 A 
ATOM     22  C   UNL     1      47.791   7.178  14.220  0.00  0.00    +0.000 A 
BRANCH  21  23
ATOM     23  C   UNL     1      46.447   6.130  12.357  0.00  0.00    +0.000 A 
ATOM     24  C   UNL     1      46.103   5.000  13.124  0.00  0.00    +0.000 A 
ATOM     25  C   UNL     1      45.355   3.949  12.581  0.00  0.00    +0.000 A 
ATOM     26  C   UNL     1      44.924   4.015  11.261  0.00  0.00    +0.000 A 
ATOM     27 CL   UNL     1      44.014   2.720  10.588  0.00  0.00    +0.000 Cl
ATOM     28  C   UNL     1      45.230   5.124  10.483  0.00  0.00    +0.000 A 
ATOM     29  C   UNL     1      45.988   6.167  11.026  0.00  0.00    +0.000 A 
ENDBRANCH  21  23
ENDBRANCH  16  17
ENDBRANCH   1  16
TORSDOF 6
ENDMDL
MODEL 8
REMARK VINA RESULT:    -6.204      4.761      6.730
REMARK INTER + INTRA:          -9.351
REMARK INTER:                  -8.555
REMARK INTRA:                  -0.796
REMARK UNBOUND:                -0.971
REMARK  Name = 
REMARK  7 active torsions:
REMARK  status: ('A' for Active; 'I' for Inactive)
REMARK    1  A    between atoms: C_1  and  O_2
REMARK    2  A    between atoms: O_2  and  C_3
REMARK    3  A    between atoms: C_5  and  N_6
REMARK    4  A    between atoms: N_6  and  C_7
REMARK    5  A    between atoms: C_7  and  C_8
REMARK    6  A    between atoms: C_12  and  C_13
REMARK    7  A    between atoms: C_22  and  C_23
REMARK                            x       y       z     vdW  Elec       q    Type
REMARK                         _______ _______ _______ _____ _____    ______ ____
ROOT
ATOM      1  N   UNL     1      46.779   3.649  15.600  0.00  0.00    +0.000 N 
ATOM      2  H   UNL     1      45.815   3.517  15.877  0.00  0.00    +0.000 HD
ENDROOT
BRANCH   1   5
ATOM      3  C   UNL     1      48.415   4.699  18.733  0.00  0.00    +0.000 A 
ATOM      4  C   UNL     1      47.477   4.608  17.712  0.00  0.00    +0.000 A 
ATOM      5  C   UNL     1      47.691   3.757  16.627  0.00  0.00    +0.000 A 
ATOM      6  N   UNL     1      48.801   3.000  16.542  0.00  0.00    +0.000 NA
ATOM      7  C   UNL     1      49.715   3.114  17.557  0.00  0.00    +0.000 A 
ATOM      8  C   UNL     1      49.572   3.949  18.651  0.00  0.00    +0.000 A 
BRANCH   7   9
ATOM      9  C   UNL     1      50.940   2.251  17.473  0.00  0.00    +0.000 C 
ATOM     10  N   UNL     1      52.092   2.805  17.960  0.00  0.00    +0.000 N 
ATOM     11  O   UNL     1      50.925   1.124  16.994  0.00  0.00    +0.000 OA
ATOM     12  H   UNL     1      52.081   3.748  18.330  0.00  0.00    +0.000 HD
ATOM     13  H   UNL     1      52.953   2.281  17.904  0.00  0.00    +0.000 HD
ENDBRANCH   7   9
BRANCH   3  15
ATOM     14  C   UNL     1      47.517   6.693  19.629  0.00  0.00    +0.000 C 
ATOM     15  O   UNL     1      48.301   5.519  19.822  0.00  0.00    +0.000 OA
ENDBRANCH   3  15
ENDBRANCH   1   5
BRANCH   1  16
ATOM     16  C   UNL     1      47.153   3.671  14.203  0.00  0.00    +0.000 C 
BRANCH  16  17
ATOM     17  C   UNL     1      46.673   4.906  13.503  0.00  0.00    +0.000 A 
ATOM     18  C   UNL     1      45.325   5.115  13.251  0.00  0.00    +0.000 A 
ATOM     19  N   UNL     1      44.836   6.223  12.660  0.00  0.00    +0.000 NA
ATOM     20  C   UNL     1      45.737   7.170  12.297  0.00  0.00    +0.000 A 
ATOM     21  C   UNL     1      47.118   7.092  12.501  0.00  0.00    +0.000 A 
ATOM     22  C   UNL     1      47.568   5.914  13.118  0.00  0.00    +0.000 A 
BRANCH  21  23
ATOM     23  C   UNL     1      48.043   8.174  12.097  0.00  0.00    +0.000 A 
ATOM     24  C   UNL     1      49.388   7.910  11.771  0.00  0.00    +0.000 A 
ATOM     25  C   UNL     1      50.268   8.937  11.411  0.00  0.00    +0.000 A 
ATOM     26  C   UNL     1      49.814  10.250  11.357  0.00  0.00    +0.000 A 
ATOM     27 CL   UNL     1      50.895  11.516  10.926  0.00  0.00    +0.000 Cl
ATOM     28  C   UNL     1      48.489  10.543  11.655  0.00  0.00    +0.000 A 
ATOM     29  C   UNL     1      47.616   9.514  12.025  0.00  0.00    +0.000 A 
ENDBRANCH  21  23
ENDBRANCH  16  17
ENDBRANCH   1  16
TORSDOF 6
ENDMDL
MODEL 9
REMARK VINA RESULT:    -6.170      4.427      8.181
REMARK INTER + INTRA:          -9.306
REMARK INTER:                  -8.597
REMARK INTRA:                  -0.709
REMARK UNBOUND:                -0.971
REMARK  Name = 
REMARK  7 active torsions:
REMARK  status: ('A' for Active; 'I' for Inactive)
REMARK    1  A    between atoms: C_1  and  O_2
REMARK    2  A    between atoms: O_2  and  C_3
REMARK    3  A    between atoms: C_5  and  N_6
REMARK    4  A    between atoms: N_6  and  C_7
REMARK    5  A    between atoms: C_7  and  C_8
REMARK    6  A    between atoms: C_12  and  C_13
REMARK    7  A    between atoms: C_22  and  C_23
REMARK                            x       y       z     vdW  Elec       q    Type
REMARK                         _______ _______ _______ _____ _____    ______ ____
ROOT
ATOM      1  N   UNL     1      46.577   6.888  11.851  0.00  0.00    +0.000 N 
ATOM      2  H   UNL     1      46.003   7.586  12.306  0.00  0.00    +0.000 HD
ENDROOT
BRANCH   1   5
ATOM      3  C   UNL     1      45.333   4.645   9.202  0.00  0.00    +0.000 A 
ATOM      4  C   UNL     1      46.031   5.670   9.831  0.00  0.00    +0.000 A 
ATOM      5  C   UNL     1      45.898   5.879  11.204  0.00  0.00    +0.000 A 
ATOM      6  N   UNL     1      45.102   5.096  11.955  0.00  0.00    +0.000 NA
ATOM      7  C   UNL     1      44.417   4.099  11.312  0.00  0.00    +0.000 A 
ATOM      8  C   UNL     1      44.491   3.848   9.953  0.00  0.00    +0.000 A 
BRANCH   7   9
ATOM      9  C   UNL     1      43.549   3.211  12.155  0.00  0.00    +0.000 C 
ATOM     10  N   UNL     1      43.429   3.573  13.470  0.00  0.00    +0.000 N 
ATOM     11  O   UNL     1      42.986   2.220  11.711  0.00  0.00    +0.000 OA
ATOM     12  H   UNL     1      43.925   4.385  13.817  0.00  0.00    +0.000 HD
ATOM     13  H   UNL     1      42.880   2.997  14.091  0.00  0.00    +0.000 HD
ENDBRANCH   7   9
BRANCH   3  15
ATOM     14  C   UNL     1      46.496   3.600   7.430  0.00  0.00    +0.000 C 
ATOM     15  O   UNL     1      45.383   4.379   7.862  0.00  0.00    +0.000 OA
ENDBRANCH   3  15
ENDBRANCH   1   5
BRANCH   1  16
ATOM     16  C   UNL     1      48.019   6.996  11.857  0.00  0.00    +0.000 C 
BRANCH  16  17
ATOM     17  C   UNL     1      48.545   7.562  13.141  0.00  0.00    +0.000 A 
ATOM     18  C   UNL     1      49.079   8.840  13.199  0.00  0.00    +0.000 A 
ATOM     19  N   UNL     1      49.531   9.413  14.333  0.00  0.00    +0.000 NA
ATOM     20  C   UNL     1      49.449   8.671  15.466  0.00  0.00    +0.000 A 
ATOM     21  C   UNL     1      48.924   7.379  15.550  0.00  0.00    +0.000 A 
ATOM     22  C   UNL     1      48.473   6.835  14.337  0.00  0.00    +0.000 A 
BRANCH  21  23
ATOM     23  C   UNL     1      48.847   6.632  16.825  0.00  0.00    +0.000 A 
ATOM     24  C   UNL     1      48.250   7.191  17.971  0.00  0.00    +0.000 A 
ATOM     25  C   UNL     1      48.198   6.492  19.183  0.00  0.00    +0.000 A 
ATOM     26  C   UNL     1      48.731   5.211  19.267  0.00  0.00    +0.000 A 
ATOM     27 CL   UNL     1      48.679   4.354  20.756  0.00  0.00    +0.000 Cl
ATOM     28  C   UNL     1      49.311   4.623  18.150  0.00  0.00    +0.000 A 
ATOM     29  C   UNL     1      49.370   5.330  16.944  0.00  0.00    +0.000 A 
ENDBRANCH  21  23
ENDBRANCH  16  17
ENDBRANCH   1  16
TORSDOF 6
ENDMDL
