MODEL 1
REMARK VINA RESULT:    -8.599      0.000      0.000
REMARK INTER + INTRA:         -12.567
REMARK INTER:                 -11.615
REMARK INTRA:                  -0.952
REMARK UNBOUND:                -0.952
REMARK  Name = 
REMARK  6 active torsions:
REMARK  status: ('A' for Active; 'I' for Inactive)
REMARK    1  A    between atoms: C_2  and  C_3
REMARK    2  A    between atoms: N_7  and  C_8
REMARK    3  A    between atoms: C_8  and  C_9
REMARK    4  A    between atoms: C_9  and  C_12
REMARK    5  A    between atoms: C_16  and  O_17
REMARK    6  A    between atoms: O_17  and  C_18
REMARK                            x       y       z     vdW  Elec       q    Type
REMARK                         _______ _______ _______ _____ _____    ______ ____
ROOT
ATOM      1  C   UNL     1      43.717   4.654  12.450  0.00  0.00    +0.000 C 
ATOM      2  F   UNL     1      42.775   5.516  12.931  0.00  0.00    +0.000 F 
ATOM      3  F   UNL     1      43.538   3.494  13.149  0.00  0.00    +0.000 F 
ENDROOT
BRANCH   1   4
ATOM      4  C   UNL     1      45.127   5.199  12.599  0.00  0.00    +0.000 A 
ATOM      5  C   UNL     1      45.608   6.188  11.731  0.00  0.00    +0.000 A 
ATOM      6  C   UNL     1      46.877   6.738  11.921  0.00  0.00    +0.000 A 
ATOM      7  C   UNL     1      47.686   6.308  12.978  0.00  0.00    +0.000 A 
ATOM      8  C   UNL     1      47.224   5.317  13.838  0.00  0.00    +0.000 A 
ATOM      9  C   UNL     1      45.951   4.769  13.651  0.00  0.00    +0.000 A 
BRANCH   8  10
ATOM     10  O   UNL     1      47.901   4.841  14.932  0.00  0.00    +0.000 OA
BRANCH  10  11
ATOM     11  C   UNL     1      47.181   4.129  15.964  0.00  0.00    +0.000 C 
ATOM     12  C   UNL     1      47.193   4.712  17.394  0.00  0.00    +0.000 C 
ATOM     13  N   UNL     1      47.525   3.378  17.935  0.00  0.00    +0.000 NA
ATOM     14  C   UNL     1      47.964   2.953  16.593  0.00  0.00    +0.000 C 
ATOM     15  H   UNL     1      46.721   2.859  18.286  0.00  0.00    +0.000 HD
ENDBRANCH  10  11
ENDBRANCH   8  10
ENDBRANCH   1   4
BRANCH   1  16
ATOM     16  C   UNL     1      43.425   4.381  10.952  0.00  0.00    +0.000 C 
BRANCH  16  21
ATOM     17  C   UNL     1      46.635   2.438   7.436  0.00  0.00    +0.000 A 
ATOM     18  C   UNL     1      46.255   3.744   7.708  0.00  0.00    +0.000 A 
ATOM     19  C   UNL     1      45.336   3.987   8.734  0.00  0.00    +0.000 A 
ATOM     20  C   UNL     1      44.813   2.925   9.465  0.00  0.00    +0.000 A 
ATOM     21  N   UNL     1      43.894   3.087  10.466  0.00  0.00    +0.000 N 
ATOM     22  N   UNL     1      45.184   1.657   9.209  0.00  0.00    +0.000 NA
ATOM     23  C   UNL     1      46.079   1.435   8.210  0.00  0.00    +0.000 A 
ATOM     24  H   UNL     1      43.606   2.232  10.933  0.00  0.00    +0.000 HD
BRANCH  17  26
ATOM     25  N   UNL     1      48.323   1.879   5.555  0.00  0.00    +0.000 NA
ATOM     26  C   UNL     1      47.564   2.136   6.395  0.00  0.00    +0.000 C 
ENDBRANCH  17  26
ENDBRANCH  16  21
ENDBRANCH   1  16
TORSDOF 6
ENDMDL
MODEL 2
REMARK VINA RESULT:    -7.458      1.738      1.900
REMARK INTER + INTRA:         -11.026
REMARK INTER:                 -10.192
REMARK INTRA:                  -0.833
REMARK UNBOUND:                -0.952
REMARK  Name = 
REMARK  6 active torsions:
REMARK  status: ('A' for Active; 'I' for Inactive)
REMARK    1  A    between atoms: C_2  and  C_3
REMARK    2  A    between atoms: N_7  and  C_8
REMARK    3  A    between atoms: C_8  and  C_9
REMARK    4  A    between atoms: C_9  and  C_12
REMARK    5  A    between atoms: C_16  and  O_17
REMARK    6  A    between atoms: O_17  and  C_18
REMARK                            x       y       z     vdW  Elec       q    Type
REMARK                         _______ _______ _______ _____ _____    ______ ____
ROOT
ATOM      1  C   UNL     1      44.162   4.802  12.458  0.00  0.00    +0.000 C 
ATOM      2  F   UNL     1      43.202   5.543  13.086  0.00  0.00    +0.000 F 
ATOM      3  F   UNL     1      44.203   3.615  13.133  0.00  0.00    +0.000 F 
ENDROOT
BRANCH   1   4
ATOM      4  C   UNL     1      45.511   5.499  12.445  0.00  0.00    +0.000 A 
ATOM      5  C   UNL     1      45.893   6.300  11.360  0.00  0.00    +0.000 A 
ATOM      6  C   UNL     1      47.101   6.998  11.389  0.00  0.00    +0.000 A 
ATOM      7  C   UNL     1      47.949   6.905  12.498  0.00  0.00    +0.000 A 
ATOM      8  C   UNL     1      47.587   6.101  13.574  0.00  0.00    +0.000 A 
ATOM      9  C   UNL     1      46.374   5.406  13.549  0.00  0.00    +0.000 A 
BRANCH   8  10
ATOM     10  O   UNL     1      48.308   5.959  14.733  0.00  0.00    +0.000 OA
BRANCH  10  11
ATOM     11  C   UNL     1      49.251   6.984  15.120  0.00  0.00    +0.000 C 
ATOM     12  C   UNL     1      50.376   6.602  16.106  0.00  0.00    +0.000 C 
ATOM     13  N   UNL     1      50.083   7.807  16.907  0.00  0.00    +0.000 NA
ATOM     14  C   UNL     1      48.760   7.903  16.262  0.00  0.00    +0.000 C 
ATOM     15  H   UNL     1      50.693   8.598  16.709  0.00  0.00    +0.000 HD
ENDBRANCH  10  11
ENDBRANCH   8  10
ENDBRANCH   1   4
BRANCH   1  16
ATOM     16  C   UNL     1      43.707   4.529  11.001  0.00  0.00    +0.000 C 
BRANCH  16  21
ATOM     17  C   UNL     1      46.687   2.493   7.339  0.00  0.00    +0.000 A 
ATOM     18  C   UNL     1      46.384   3.811   7.646  0.00  0.00    +0.000 A 
ATOM     19  C   UNL     1      45.515   4.081   8.708  0.00  0.00    +0.000 A 
ATOM     20  C   UNL     1      44.966   3.033   9.441  0.00  0.00    +0.000 A 
ATOM     21  N   UNL     1      44.092   3.222  10.478  0.00  0.00    +0.000 N 
ATOM     22  N   UNL     1      45.263   1.753   9.152  0.00  0.00    +0.000 NA
ATOM     23  C   UNL     1      46.109   1.505   8.117  0.00  0.00    +0.000 A 
ATOM     24  H   UNL     1      43.779   2.374  10.941  0.00  0.00    +0.000 HD
BRANCH  17  26
ATOM     25  N   UNL     1      48.273   1.909   5.379  0.00  0.00    +0.000 NA
ATOM     26  C   UNL     1      47.562   2.163   6.260  0.00  0.00    +0.000 C 
ENDBRANCH  17  26
ENDBRANCH  16  21
ENDBRANCH   1  16
TORSDOF 6
ENDMDL
MODEL 3
REMARK VINA RESULT:    -7.312      2.444      7.817
REMARK INTER + INTRA:         -10.828
REMARK INTER:                 -10.373
REMARK INTRA:                  -0.456
REMARK UNBOUND:                -0.952
REMARK  Name = 
REMARK  6 active torsions:
REMARK  status: ('A' for Active; 'I' for Inactive)
REMARK    1  A    between atoms: C_2  and  C_3
REMARK    2  A    between atoms: N_7  and  C_8
REMARK    3  A    between atoms: C_8  and  C_9
REMARK    4  A    between atoms: C_9  and  C_12
REMARK    5  A    between atoms: C_16  and  O_17
REMARK    6  A    between atoms: O_17  and  C_18
REMARK                            x       y       z     vdW  Elec       q    Type
REMARK                         _______ _______ _______ _____ _____    ______ ____
ROOT
ATOM      1  C   UNL     1      45.131   6.052  11.490  0.00  0.00    +0.000 C 
ATOM      2  F   UNL     1      44.067   6.169  12.336  0.00  0.00    +0.000 F 
ATOM      3  F   UNL     1      45.155   7.216  10.775  0.00  0.00    +0.000 F 
ENDROOT
BRANCH   1   4
ATOM      4  C   UNL     1      45.022   4.832  10.591  0.00  0.00    +0.000 A 
ATOM      5  C   UNL     1      44.259   3.722  10.979  0.00  0.00    +0.000 A 
ATOM      6  C   UNL     1      44.101   2.637  10.116  0.00  0.00    +0.000 A 
ATOM      7  C   UNL     1      44.705   2.640   8.853  0.00  0.00    +0.000 A 
ATOM      8  C   UNL     1      45.475   3.731   8.463  0.00  0.00    +0.000 A 
ATOM      9  C   UNL     1      45.630   4.821   9.325  0.00  0.00    +0.000 A 
BRANCH   8  10
ATOM     10  O   UNL     1      46.081   3.874   7.240  0.00  0.00    +0.000 OA
BRANCH  10  11
ATOM     11  C   UNL     1      46.523   2.702   6.519  0.00  0.00    +0.000 C 
ATOM     12  C   UNL     1      47.756   1.940   7.053  0.00  0.00    +0.000 C 
ATOM     13  N   UNL     1      48.327   1.911   5.692  0.00  0.00    +0.000 NA
ATOM     14  C   UNL     1      47.420   3.005   5.297  0.00  0.00    +0.000 C 
ATOM     15  H   UNL     1      48.162   1.040   5.188  0.00  0.00    +0.000 HD
ENDBRANCH  10  11
ENDBRANCH   8  10
ENDBRANCH   1   4
BRANCH   1  16
ATOM     16  C   UNL     1      46.430   5.958  12.331  0.00  0.00    +0.000 C 
BRANCH  16  21
ATOM     17  C   UNL     1      48.399   4.730  16.920  0.00  0.00    +0.000 A 
ATOM     18  C   UNL     1      48.531   5.870  16.141  0.00  0.00    +0.000 A 
ATOM     19  C   UNL     1      47.882   5.930  14.904  0.00  0.00    +0.000 A 
ATOM     20  C   UNL     1      47.119   4.852  14.466  0.00  0.00    +0.000 A 
ATOM     21  N   UNL     1      46.475   4.832  13.258  0.00  0.00    +0.000 N 
ATOM     22  N   UNL     1      46.982   3.747  15.221  0.00  0.00    +0.000 NA
ATOM     23  C   UNL     1      47.617   3.703  16.423  0.00  0.00    +0.000 A 
ATOM     24  H   UNL     1      45.937   3.992  13.068  0.00  0.00    +0.000 HD
BRANCH  17  26
ATOM     25  N   UNL     1      49.585   4.521  19.211  0.00  0.00    +0.000 NA
ATOM     26  C   UNL     1      49.047   4.617  18.187  0.00  0.00    +0.000 C 
ENDBRANCH  17  26
ENDBRANCH  16  21
ENDBRANCH   1  16
TORSDOF 6
ENDMDL
MODEL 4
REMARK VINA RESULT:    -6.787      3.423      7.783
REMARK INTER + INTRA:         -10.119
REMARK INTER:                  -9.480
REMARK INTRA:                  -0.640
REMARK UNBOUND:                -0.952
REMARK  Name = 
REMARK  6 active torsions:
REMARK  status: ('A' for Active; 'I' for Inactive)
REMARK    1  A    between atoms: C_2  and  C_3
REMARK    2  A    between atoms: N_7  and  C_8
REMARK    3  A    between atoms: C_8  and  C_9
REMARK    4  A    between atoms: C_9  and  C_12
REMARK    5  A    between atoms: C_16  and  O_17
REMARK    6  A    between atoms: O_17  and  C_18
REMARK                            x       y       z     vdW  Elec       q    Type
REMARK                         _______ _______ _______ _____ _____    ______ ____
ROOT
ATOM      1  C   UNL     1      45.156   6.017  11.211  0.00  0.00    +0.000 C 
ATOM      2  F   UNL     1      44.013   6.763  11.195  0.00  0.00    +0.000 F 
ATOM      3  F   UNL     1      46.117   6.816  10.658  0.00  0.00    +0.000 F 
ENDROOT
BRANCH   1   4
ATOM      4  C   UNL     1      45.001   4.707  10.459  0.00  0.00    +0.000 A 
ATOM      5  C   UNL     1      44.354   3.614  11.051  0.00  0.00    +0.000 A 
ATOM      6  C   UNL     1      44.147   2.439  10.327  0.00  0.00    +0.000 A 
ATOM      7  C   UNL     1      44.586   2.334   9.003  0.00  0.00    +0.000 A 
ATOM      8  C   UNL     1      45.241   3.408   8.409  0.00  0.00    +0.000 A 
ATOM      9  C   UNL     1      45.444   4.588   9.132  0.00  0.00    +0.000 A 
BRANCH   8  10
ATOM     10  O   UNL     1      45.680   3.447   7.110  0.00  0.00    +0.000 OA
BRANCH  10  11
ATOM     11  C   UNL     1      47.076   3.209   6.819  0.00  0.00    +0.000 C 
ATOM     12  C   UNL     1      47.469   2.867   5.365  0.00  0.00    +0.000 C 
ATOM     13  N   UNL     1      48.287   1.738   5.852  0.00  0.00    +0.000 NA
ATOM     14  C   UNL     1      47.558   1.774   7.134  0.00  0.00    +0.000 C 
ATOM     15  H   UNL     1      49.280   1.950   5.939  0.00  0.00    +0.000 HD
ENDBRANCH  10  11
ENDBRANCH   8  10
ENDBRANCH   1   4
BRANCH   1  16
ATOM     16  C   UNL     1      45.541   5.725  12.684  0.00  0.00    +0.000 C 
BRANCH  16  21
ATOM     17  C   UNL     1      49.321   8.803  14.321  0.00  0.00    +0.000 A 
ATOM     18  C   UNL     1      47.981   9.053  14.063  0.00  0.00    +0.000 A 
ATOM     19  C   UNL     1      47.169   8.012  13.605  0.00  0.00    +0.000 A 
ATOM     20  C   UNL     1      47.707   6.744  13.409  0.00  0.00    +0.000 A 
ATOM     21  N   UNL     1      46.977   5.685  12.942  0.00  0.00    +0.000 N 
ATOM     22  N   UNL     1      49.004   6.495  13.665  0.00  0.00    +0.000 NA
ATOM     23  C   UNL     1      49.783   7.516  14.111  0.00  0.00    +0.000 A 
ATOM     24  H   UNL     1      47.486   4.809  12.862  0.00  0.00    +0.000 HD
BRANCH  17  26
ATOM     25  N   UNL     1      50.910  10.662  15.168  0.00  0.00    +0.000 NA
ATOM     26  C   UNL     1      50.194   9.833  14.783  0.00  0.00    +0.000 C 
ENDBRANCH  17  26
ENDBRANCH  16  21
ENDBRANCH   1  16
TORSDOF 6
ENDMDL
MODEL 5
REMARK VINA RESULT:    -6.459      2.431      7.786
REMARK INTER + INTRA:          -9.676
REMARK INTER:                  -9.069
REMARK INTRA:                  -0.607
REMARK UNBOUND:                -0.952
REMARK  Name = 
REMARK  6 active torsions:
REMARK  status: ('A' for Active; 'I' for Inactive)
REMARK    1  A    between atoms: C_2  and  C_3
REMARK    2  A    between atoms: N_7  and  C_8
REMARK    3  A    between atoms: C_8  and  C_9
REMARK    4  A    between atoms: C_9  and  C_12
REMARK    5  A    between atoms: C_16  and  O_17
REMARK    6  A    between atoms: O_17  and  C_18
REMARK                            x       y       z     vdW  Elec       q    Type
REMARK                         _______ _______ _______ _____ _____    ______ ____
ROOT
ATOM      1  C   UNL     1      46.370   6.619  12.430  0.00  0.00    +0.000 C 
ATOM      2  F   UNL     1      45.992   7.656  13.233  0.00  0.00    +0.000 F 
ATOM      3  F   UNL     1      46.852   7.200  11.291  0.00  0.00    +0.000 F 
ENDROOT
BRANCH   1   4
ATOM      4  C   UNL     1      45.225   5.664  12.144  0.00  0.00    +0.000 A 
ATOM      5  C   UNL     1      44.094   5.634  12.971  0.00  0.00    +0.000 A 
ATOM      6  C   UNL     1      43.013   4.809  12.658  0.00  0.00    +0.000 A 
ATOM      7  C   UNL     1      43.045   3.997  11.520  0.00  0.00    +0.000 A 
ATOM      8  C   UNL     1      44.168   4.008  10.699  0.00  0.00    +0.000 A 
ATOM      9  C   UNL     1      45.250   4.839  11.008  0.00  0.00    +0.000 A 
BRANCH   8  10
ATOM     10  O   UNL     1      44.306   3.293   9.536  0.00  0.00    +0.000 OA
BRANCH  10  11
ATOM     11  C   UNL     1      45.627   3.017   9.018  0.00  0.00    +0.000 C 
ATOM     12  C   UNL     1      45.925   3.387   7.549  0.00  0.00    +0.000 C 
ATOM     13  N   UNL     1      46.522   2.054   7.334  0.00  0.00    +0.000 NA
ATOM     14  C   UNL     1      45.834   1.560   8.542  0.00  0.00    +0.000 C 
ATOM     15  H   UNL     1      47.539   2.036   7.406  0.00  0.00    +0.000 HD
ENDBRANCH  10  11
ENDBRANCH   8  10
ENDBRANCH   1   4
BRANCH   1  16
ATOM     16  C   UNL     1      47.526   5.849  13.121  0.00  0.00    +0.000 C 
BRANCH  16  21
ATOM     17  C   UNL     1      48.147   4.587  18.067  0.00  0.00    +0.000 A 
ATOM     18  C   UNL     1      48.718   5.589  17.298  0.00  0.00    +0.000 A 
ATOM     19  C   UNL     1      48.371   5.696  15.948  0.00  0.00    +0.000 A 
ATOM     20  C   UNL     1      47.463   4.800  15.391  0.00  0.00    +0.000 A 
ATOM     21  N   UNL     1      47.094   4.830  14.072  0.00  0.00    +0.000 N 
ATOM     22  N   UNL     1      46.900   3.830  16.134  0.00  0.00    +0.000 NA
ATOM     23  C   UNL     1      47.246   3.739  17.446  0.00  0.00    +0.000 A 
ATOM     24  H   UNL     1      46.410   4.132  13.798  0.00  0.00    +0.000 HD
BRANCH  17  26
ATOM     25  N   UNL     1      48.750   4.313  20.569  0.00  0.00    +0.000 NA
ATOM     26  C   UNL     1      48.473   4.431  19.447  0.00  0.00    +0.000 C 
ENDBRANCH  17  26
ENDBRANCH  16  21
ENDBRANCH   1  16
TORSDOF 6
ENDMDL
MODEL 6
REMARK VINA RESULT:    -6.134      2.869      4.319
REMARK INTER + INTRA:          -9.238
REMARK INTER:                  -8.650
REMARK INTRA:                  -0.588
REMARK UNBOUND:                -0.952
REMARK  Name = 
REMARK  6 active torsions:
REMARK  status: ('A' for Active; 'I' for Inactive)
REMARK    1  A    between atoms: C_2  and  C_3
REMARK    2  A    between atoms: N_7  and  C_8
REMARK    3  A    between atoms: C_8  and  C_9
REMARK    4  A    between atoms: C_9  and  C_12
REMARK    5  A    between atoms: C_16  and  O_17
REMARK    6  A    between atoms: O_17  and  C_18
REMARK                            x       y       z     vdW  Elec       q    Type
REMARK                         _______ _______ _______ _____ _____    ______ ____
ROOT
ATOM      1  C   UNL     1      47.771   8.283  13.049  0.00  0.00    +0.000 C 
ATOM      2  F   UNL     1      48.353   7.451  12.136  0.00  0.00    +0.000 F 
ATOM      3  F   UNL     1      48.111   9.546  12.654  0.00  0.00    +0.000 F 
ENDROOT
BRANCH   1   4
ATOM      4  C   UNL     1      48.223   7.987  14.469  0.00  0.00    +0.000 A 
ATOM      5  C   UNL     1      48.159   8.975  15.460  0.00  0.00    +0.000 A 
ATOM      6  C   UNL     1      48.503   8.674  16.779  0.00  0.00    +0.000 A 
ATOM      7  C   UNL     1      48.920   7.385  17.128  0.00  0.00    +0.000 A 
ATOM      8  C   UNL     1      49.000   6.400  16.149  0.00  0.00    +0.000 A 
ATOM      9  C   UNL     1      48.650   6.699  14.828  0.00  0.00    +0.000 A 
BRANCH   8  10
ATOM     10  O   UNL     1      49.351   5.092  16.369  0.00  0.00    +0.000 OA
BRANCH  10  11
ATOM     11  C   UNL     1      48.623   4.309  17.343  0.00  0.00    +0.000 C 
ATOM     12  C   UNL     1      48.163   2.892  16.939  0.00  0.00    +0.000 C 
ATOM     13  N   UNL     1      46.814   3.180  17.465  0.00  0.00    +0.000 NA
ATOM     14  C   UNL     1      47.111   4.624  17.412  0.00  0.00    +0.000 C 
ATOM     15  H   UNL     1      46.651   2.830  18.409  0.00  0.00    +0.000 HD
ENDBRANCH  10  11
ENDBRANCH   8  10
ENDBRANCH   1   4
BRANCH   1  16
ATOM     16  C   UNL     1      46.231   8.130  12.953  0.00  0.00    +0.000 C 
BRANCH  16  21
ATOM     17  C   UNL     1      45.034   3.737  10.563  0.00  0.00    +0.000 A 
ATOM     18  C   UNL     1      45.440   4.968  10.070  0.00  0.00    +0.000 A 
ATOM     19  C   UNL     1      45.690   6.013  10.965  0.00  0.00    +0.000 A 
ATOM     20  C   UNL     1      45.528   5.811  12.332  0.00  0.00    +0.000 A 
ATOM     21  N   UNL     1      45.732   6.794  13.263  0.00  0.00    +0.000 N 
ATOM     22  N   UNL     1      45.141   4.617  12.816  0.00  0.00    +0.000 NA
ATOM     23  C   UNL     1      44.903   3.609  11.935  0.00  0.00    +0.000 A 
ATOM     24  H   UNL     1      45.597   6.510  14.229  0.00  0.00    +0.000 HD
BRANCH  17  26
ATOM     25  N   UNL     1      44.523   1.749   8.987  0.00  0.00    +0.000 NA
ATOM     26  C   UNL     1      44.759   2.641   9.691  0.00  0.00    +0.000 C 
ENDBRANCH  17  26
ENDBRANCH  16  21
ENDBRANCH   1  16
TORSDOF 6
ENDMDL
MODEL 7
REMARK VINA RESULT:    -5.885      2.690      7.729
REMARK INTER + INTRA:          -8.902
REMARK INTER:                  -8.336
REMARK INTRA:                  -0.566
REMARK UNBOUND:                -0.952
REMARK  Name = 
REMARK  6 active torsions:
REMARK  status: ('A' for Active; 'I' for Inactive)
REMARK    1  A    between atoms: C_2  and  C_3
REMARK    2  A    between atoms: N_7  and  C_8
REMARK    3  A    between atoms: C_8  and  C_9
REMARK    4  A    between atoms: C_9  and  C_12
REMARK    5  A    between atoms: C_16  and  O_17
REMARK    6  A    between atoms: O_17  and  C_18
REMARK                            x       y       z     vdW  Elec       q    Type
REMARK                         _______ _______ _______ _____ _____    ______ ____
ROOT
ATOM      1  C   UNL     1      46.669   4.673  13.603  0.00  0.00    +0.000 C 
ATOM      2  F   UNL     1      47.316   5.833  13.290  0.00  0.00    +0.000 F 
ATOM      3  F   UNL     1      47.553   3.674  13.309  0.00  0.00    +0.000 F 
ENDROOT
BRANCH   1   4
ATOM      4  C   UNL     1      45.361   4.519  12.846  0.00  0.00    +0.000 A 
ATOM      5  C   UNL     1      44.199   5.167  13.285  0.00  0.00    +0.000 A 
ATOM      6  C   UNL     1      43.020   5.084  12.542  0.00  0.00    +0.000 A 
ATOM      7  C   UNL     1      42.981   4.349  11.352  0.00  0.00    +0.000 A 
ATOM      8  C   UNL     1      44.125   3.690  10.914  0.00  0.00    +0.000 A 
ATOM      9  C   UNL     1      45.308   3.777  11.655  0.00  0.00    +0.000 A 
BRANCH   8  10
ATOM     10  O   UNL     1      44.229   2.975   9.747  0.00  0.00    +0.000 OA
BRANCH  10  11
ATOM     11  C   UNL     1      45.506   2.879   9.078  0.00  0.00    +0.000 C 
ATOM     12  C   UNL     1      45.630   3.476   7.659  0.00  0.00    +0.000 C 
ATOM     13  N   UNL     1      46.288   2.237   7.196  0.00  0.00    +0.000 NA
ATOM     14  C   UNL     1      45.758   1.526   8.374  0.00  0.00    +0.000 C 
ATOM     15  H   UNL     1      47.306   2.289   7.173  0.00  0.00    +0.000 HD
ENDBRANCH  10  11
ENDBRANCH   8  10
ENDBRANCH   1   4
BRANCH   1  16
ATOM     16  C   UNL     1      46.388   4.653  15.128  0.00  0.00    +0.000 C 
BRANCH  16  21
ATOM     17  C   UNL     1      50.442   2.302  17.244  0.00  0.00    +0.000 A 
ATOM     18  C   UNL     1      49.372   1.806  16.514  0.00  0.00    +0.000 A 
ATOM     19  C   UNL     1      48.385   2.688  16.064  0.00  0.00    +0.000 A 
ATOM     20  C   UNL     1      48.483   4.046  16.352  0.00  0.00    +0.000 A 
ATOM     21  N   UNL     1      47.544   4.963  15.963  0.00  0.00    +0.000 N 
ATOM     22  N   UNL     1      49.523   4.533  17.054  0.00  0.00    +0.000 NA
ATOM     23  C   UNL     1      50.475   3.664  17.484  0.00  0.00    +0.000 A 
ATOM     24  H   UNL     1      47.744   5.925  16.222  0.00  0.00    +0.000 HD
BRANCH  17  26
ATOM     25  N   UNL     1      52.314   0.753  18.136  0.00  0.00    +0.000 NA
ATOM     26  C   UNL     1      51.471   1.442  17.732  0.00  0.00    +0.000 C 
ENDBRANCH  17  26
ENDBRANCH  16  21
ENDBRANCH   1  16
TORSDOF 6
ENDMDL
MODEL 8
REMARK VINA RESULT:    -5.762      3.848      7.069
REMARK INTER + INTRA:          -8.735
REMARK INTER:                  -8.265
REMARK INTRA:                  -0.470
REMARK UNBOUND:                -0.952
REMARK  Name = 
REMARK  6 active torsions:
REMARK  status: ('A' for Active; 'I' for Inactive)
REMARK    1  A    between atoms: C_2  and  C_3
REMARK    2  A    between atoms: N_7  and  C_8
REMARK    3  A    between atoms: C_8  and  C_9
REMARK    4  A    between atoms: C_9  and  C_12
REMARK    5  A    between atoms: C_16  and  O_17
REMARK    6  A    between atoms: O_17  and  C_18
REMARK                            x       y       z     vdW  Elec       q    Type
REMARK                         _______ _______ _______ _____ _____    ______ ____
ROOT
ATOM      1  C   UNL     1      46.508   4.867  13.727  0.00  0.00    +0.000 C 
ATOM      2  F   UNL     1      47.610   4.183  13.303  0.00  0.00    +0.000 F 
ATOM      3  F   UNL     1      46.363   4.537  15.046  0.00  0.00    +0.000 F 
ENDROOT
BRANCH   1   4
ATOM      4  C   UNL     1      45.270   4.527  12.914  0.00  0.00    +0.000 A 
ATOM      5  C   UNL     1      44.054   5.180  13.155  0.00  0.00    +0.000 A 
ATOM      6  C   UNL     1      42.942   4.918  12.354  0.00  0.00    +0.000 A 
ATOM      7  C   UNL     1      43.023   3.997  11.304  0.00  0.00    +0.000 A 
ATOM      8  C   UNL     1      44.222   3.333  11.065  0.00  0.00    +0.000 A 
ATOM      9  C   UNL     1      45.339   3.599  11.863  0.00  0.00    +0.000 A 
BRANCH   8  10
ATOM     10  O   UNL     1      44.443   2.442  10.045  0.00  0.00    +0.000 OA
BRANCH  10  11
ATOM     11  C   UNL     1      44.657   2.932   8.701  0.00  0.00    +0.000 C 
ATOM     12  C   UNL     1      45.976   2.558   7.992  0.00  0.00    +0.000 C 
ATOM     13  N   UNL     1      46.160   3.967   7.590  0.00  0.00    +0.000 NA
ATOM     14  C   UNL     1      45.196   4.379   8.628  0.00  0.00    +0.000 C 
ATOM     15  H   UNL     1      45.852   4.173   6.640  0.00  0.00    +0.000 HD
ENDBRANCH  10  11
ENDBRANCH   8  10
ENDBRANCH   1   4
BRANCH   1  16
ATOM     16  C   UNL     1      46.792   6.387  13.624  0.00  0.00    +0.000 C 
BRANCH  16  21
ATOM     17  C   UNL     1      51.337   8.382  12.280  0.00  0.00    +0.000 A 
ATOM     18  C   UNL     1      50.259   7.961  11.516  0.00  0.00    +0.000 A 
ATOM     19  C   UNL     1      49.132   7.436  12.157  0.00  0.00    +0.000 A 
ATOM     20  C   UNL     1      49.104   7.339  13.545  0.00  0.00    +0.000 A 
ATOM     21  N   UNL     1      48.046   6.815  14.237  0.00  0.00    +0.000 N 
ATOM     22  N   UNL     1      50.145   7.753  14.291  0.00  0.00    +0.000 NA
ATOM     23  C   UNL     1      51.233   8.262  13.655  0.00  0.00    +0.000 A 
ATOM     24  H   UNL     1      48.144   6.819  15.248  0.00  0.00    +0.000 HD
BRANCH  17  26
ATOM     25  N   UNL     1      53.472   9.342  11.177  0.00  0.00    +0.000 NA
ATOM     26  C   UNL     1      52.513   8.918  11.674  0.00  0.00    +0.000 C 
ENDBRANCH  17  26
ENDBRANCH  16  21
ENDBRANCH   1  16
TORSDOF 6
ENDMDL
MODEL 9
REMARK VINA RESULT:    -5.638      3.818      5.929
REMARK INTER + INTRA:          -8.567
REMARK INTER:                  -7.416
REMARK INTRA:                  -1.151
REMARK UNBOUND:                -0.952
REMARK  Name = 
REMARK  6 active torsions:
REMARK  status: ('A' for Active; 'I' for Inactive)
REMARK    1  A    between atoms: C_2  and  C_3
REMARK    2  A    between atoms: N_7  and  C_8
REMARK    3  A    between atoms: C_8  and  C_9
REMARK    4  A    between atoms: C_9  and  C_12
REMARK    5  A    between atoms: C_16  and  O_17
REMARK    6  A    between atoms: O_17  and  C_18
REMARK                            x       y       z     vdW  Elec       q    Type
REMARK                         _______ _______ _______ _____ _____    ______ ____
ROOT
ATOM      1  C   UNL     1      49.016   8.424  15.443  0.00  0.00    +0.000 C 
ATOM      2  F   UNL     1      50.100   9.249  15.530  0.00  0.00    +0.000 F 
ATOM      3  F   UNL     1      48.001   9.209  14.973  0.00  0.00    +0.000 F 
ENDROOT
BRANCH   1   4
ATOM      4  C   UNL     1      48.672   7.783  16.776  0.00  0.00    +0.000 A 
ATOM      5  C   UNL     1      48.115   8.543  17.813  0.00  0.00    +0.000 A 
ATOM      6  C   UNL     1      47.730   7.931  19.008  0.00  0.00    +0.000 A 
ATOM      7  C   UNL     1      47.899   6.554  19.188  0.00  0.00    +0.000 A 
ATOM      8  C   UNL     1      48.464   5.792  18.170  0.00  0.00    +0.000 A 
ATOM      9  C   UNL     1      48.844   6.403  16.971  0.00  0.00    +0.000 A 
BRANCH   8  10
ATOM     10  O   UNL     1      48.643   4.433  18.205  0.00  0.00    +0.000 OA
BRANCH  10  11
ATOM     11  C   UNL     1      49.121   3.743  17.028  0.00  0.00    +0.000 C 
ATOM     12  C   UNL     1      48.200   2.688  16.378  0.00  0.00    +0.000 C 
ATOM     13  N   UNL     1      49.331   1.740  16.315  0.00  0.00    +0.000 NA
ATOM     14  C   UNL     1      50.048   2.541  17.325  0.00  0.00    +0.000 C 
ATOM     15  H   UNL     1      49.799   1.709  15.410  0.00  0.00    +0.000 HD
ENDBRANCH  10  11
ENDBRANCH   8  10
ENDBRANCH   1   4
BRANCH   1  16
ATOM     16  C   UNL     1      49.313   7.318  14.398  0.00  0.00    +0.000 C 
BRANCH  16  21
ATOM     17  C   UNL     1      45.377   4.640  12.454  0.00  0.00    +0.000 A 
ATOM     18  C   UNL     1      46.164   4.429  13.576  0.00  0.00    +0.000 A 
ATOM     19  C   UNL     1      47.195   5.328  13.865  0.00  0.00    +0.000 A 
ATOM     20  C   UNL     1      47.423   6.417  13.029  0.00  0.00    +0.000 A 
ATOM     21  N   UNL     1      48.428   7.323  13.238  0.00  0.00    +0.000 N 
ATOM     22  N   UNL     1      46.658   6.630  11.943  0.00  0.00    +0.000 NA
ATOM     23  C   UNL     1      45.658   5.749  11.675  0.00  0.00    +0.000 A 
ATOM     24  H   UNL     1      48.474   8.082  12.564  0.00  0.00    +0.000 HD
BRANCH  17  26
ATOM     25  N   UNL     1      43.451   3.022  11.844  0.00  0.00    +0.000 NA
ATOM     26  C   UNL     1      44.317   3.748  12.111  0.00  0.00    +0.000 C 
ENDBRANCH  17  26
ENDBRANCH  16  21
ENDBRANCH   1  16
TORSDOF 6
ENDMDL
