MODEL 1
REMARK VINA RESULT:    -8.218      0.000      0.000
REMARK INTER + INTRA:         -11.543
REMARK INTER:                 -10.620
REMARK INTRA:                  -0.923
REMARK UNBOUND:                -0.923
REMARK  Name = 
REMARK  5 active torsions:
REMARK  status: ('A' for Active; 'I' for Inactive)
REMARK    1  A    between atoms: C_2  and  C_3
REMARK    2  A    between atoms: C_6  and  N_7
REMARK    3  A    between atoms: N_7  and  C_8
REMARK    4  A    between atoms: C_8  and  C_9
REMARK    5  A    between atoms: C_13  and  C_14
REMARK                            x       y       z     vdW  Elec       q    Type
REMARK                         _______ _______ _______ _____ _____    ______ ____
ROOT
ATOM      1  C   UNL     1      43.849   5.019  11.239  0.00  0.00    +0.000 C 
ATOM      2  C   UNL     1      42.518   5.158  11.982  0.00  0.00    +0.000 C 
ATOM      3  C   UNL     1      42.945   6.220  11.029  0.00  0.00    +0.000 C 
ENDROOT
BRANCH   1   4
ATOM      4  C   UNL     1      45.113   5.265  12.060  0.00  0.00    +0.000 A 
ATOM      5  C   UNL     1      45.545   4.352  13.031  0.00  0.00    +0.000 A 
ATOM      6  C   UNL     1      46.800   4.483  13.624  0.00  0.00    +0.000 A 
ATOM      7  C   UNL     1      47.628   5.559  13.293  0.00  0.00    +0.000 A 
ATOM      8  C   UNL     1      47.206   6.552  12.399  0.00  0.00    +0.000 A 
ATOM      9  C   UNL     1      45.943   6.375  11.801  0.00  0.00    +0.000 A 
BRANCH   8  10
ATOM     10  C   UNL     1      48.036   7.739  12.076  0.00  0.00    +0.000 A 
ATOM     11  C   UNL     1      49.385   7.586  11.691  0.00  0.00    +0.000 A 
ATOM     12  C   UNL     1      50.197   8.686  11.393  0.00  0.00    +0.000 A 
ATOM     13  C   UNL     1      49.678   9.974  11.458  0.00  0.00    +0.000 A 
ATOM     14  C   UNL     1      48.348  10.157  11.825  0.00  0.00    +0.000 A 
ATOM     15  C   UNL     1      47.546   9.055  12.132  0.00  0.00    +0.000 A 
ATOM     16  F   UNL     1      46.279   9.300  12.505  0.00  0.00    +0.000 F 
ENDBRANCH   8  10
ENDBRANCH   1   4
BRANCH   1  17
ATOM     17  N   UNL     1      43.936   3.863  10.351  0.00  0.00    +0.000 N 
ATOM     18  H   UNL     1      43.399   3.033  10.575  0.00  0.00    +0.000 HD
BRANCH  17  22
ATOM     19  C   UNL     1      46.636   2.703   7.488  0.00  0.00    +0.000 A 
ATOM     20  C   UNL     1      46.048   1.816   8.366  0.00  0.00    +0.000 A 
ATOM     21  N   UNL     1      45.181   2.210   9.332  0.00  0.00    +0.000 NA
ATOM     22  C   UNL     1      44.909   3.535   9.418  0.00  0.00    +0.000 A 
ATOM     23  C   UNL     1      45.540   4.421   8.545  0.00  0.00    +0.000 A 
ATOM     24  N   UNL     1      46.403   4.034   7.565  0.00  0.00    +0.000 NA
BRANCH  19  26
ATOM     25  N   UNL     1      48.213   1.831   5.625  0.00  0.00    +0.000 NA
ATOM     26  C   UNL     1      47.492   2.238   6.437  0.00  0.00    +0.000 C 
ENDBRANCH  19  26
ENDBRANCH  17  22
ENDBRANCH   1  17
TORSDOF 5
ENDMDL
MODEL 2
REMARK VINA RESULT:    -7.887      2.011      3.766
REMARK INTER + INTRA:         -11.116
REMARK INTER:                 -11.049
REMARK INTRA:                  -0.067
REMARK UNBOUND:                -0.923
REMARK  Name = 
REMARK  5 active torsions:
REMARK  status: ('A' for Active; 'I' for Inactive)
REMARK    1  A    between atoms: C_2  and  C_3
REMARK    2  A    between atoms: C_6  and  N_7
REMARK    3  A    between atoms: N_7  and  C_8
REMARK    4  A    between atoms: C_8  and  C_9
REMARK    5  A    between atoms: C_13  and  C_14
REMARK                            x       y       z     vdW  Elec       q    Type
REMARK                         _______ _______ _______ _____ _____    ______ ____
ROOT
ATOM      1  C   UNL     1      44.046   4.893  11.576  0.00  0.00    +0.000 C 
ATOM      2  C   UNL     1      43.384   3.777  12.387  0.00  0.00    +0.000 C 
ATOM      3  C   UNL     1      42.879   5.172  12.505  0.00  0.00    +0.000 C 
ENDROOT
BRANCH   1   4
ATOM      4  C   UNL     1      45.416   5.362  12.060  0.00  0.00    +0.000 A 
ATOM      5  C   UNL     1      46.139   6.346  11.372  0.00  0.00    +0.000 A 
ATOM      6  C   UNL     1      47.285   6.910  11.930  0.00  0.00    +0.000 A 
ATOM      7  C   UNL     1      47.758   6.467  13.168  0.00  0.00    +0.000 A 
ATOM      8  C   UNL     1      47.128   5.421  13.855  0.00  0.00    +0.000 A 
ATOM      9  C   UNL     1      45.960   4.890  13.272  0.00  0.00    +0.000 A 
BRANCH   8  10
ATOM     10  C   UNL     1      47.642   4.885  15.140  0.00  0.00    +0.000 A 
ATOM     11  C   UNL     1      47.477   3.522  15.464  0.00  0.00    +0.000 A 
ATOM     12  C   UNL     1      47.939   2.989  16.672  0.00  0.00    +0.000 A 
ATOM     13  C   UNL     1      48.594   3.804  17.588  0.00  0.00    +0.000 A 
ATOM     14  C   UNL     1      48.781   5.152  17.294  0.00  0.00    +0.000 A 
ATOM     15  C   UNL     1      48.306   5.679  16.090  0.00  0.00    +0.000 A 
ATOM     16  F   UNL     1      48.494   6.992  15.876  0.00  0.00    +0.000 F 
ENDBRANCH   8  10
ENDBRANCH   1   4
BRANCH   1  17
ATOM     17  N   UNL     1      43.953   4.736  10.127  0.00  0.00    +0.000 N 
ATOM     18  H   UNL     1      43.079   4.965   9.666  0.00  0.00    +0.000 HD
BRANCH  17  22
ATOM     19  C   UNL     1      46.482   2.665   7.650  0.00  0.00    +0.000 A 
ATOM     20  C   UNL     1      46.309   4.031   7.570  0.00  0.00    +0.000 A 
ATOM     21  N   UNL     1      45.445   4.706   8.370  0.00  0.00    +0.000 NA
ATOM     22  C   UNL     1      44.734   3.981   9.267  0.00  0.00    +0.000 A 
ATOM     23  C   UNL     1      44.897   2.596   9.309  0.00  0.00    +0.000 A 
ATOM     24  N   UNL     1      45.768   1.910   8.518  0.00  0.00    +0.000 NA
BRANCH  19  26
ATOM     25  N   UNL     1      48.256   1.431   6.218  0.00  0.00    +0.000 NA
ATOM     26  C   UNL     1      47.454   2.000   6.834  0.00  0.00    +0.000 C 
ENDBRANCH  19  26
ENDBRANCH  17  22
ENDBRANCH   1  17
TORSDOF 5
ENDMDL
MODEL 3
REMARK VINA RESULT:    -7.540      3.593      7.057
REMARK INTER + INTRA:         -10.667
REMARK INTER:                  -9.733
REMARK INTRA:                  -0.934
REMARK UNBOUND:                -0.923
REMARK  Name = 
REMARK  5 active torsions:
REMARK  status: ('A' for Active; 'I' for Inactive)
REMARK    1  A    between atoms: C_2  and  C_3
REMARK    2  A    between atoms: C_6  and  N_7
REMARK    3  A    between atoms: N_7  and  C_8
REMARK    4  A    between atoms: C_8  and  C_9
REMARK    5  A    between atoms: C_13  and  C_14
REMARK                            x       y       z     vdW  Elec       q    Type
REMARK                         _______ _______ _______ _____ _____    ______ ____
ROOT
ATOM      1  C   UNL     1      46.232   7.239  12.433  0.00  0.00    +0.000 C 
ATOM      2  C   UNL     1      46.395   8.626  11.806  0.00  0.00    +0.000 C 
ATOM      3  C   UNL     1      45.542   8.459  13.015  0.00  0.00    +0.000 C 
ENDROOT
BRANCH   1   4
ATOM      4  C   UNL     1      45.337   6.256  11.681  0.00  0.00    +0.000 A 
ATOM      5  C   UNL     1      43.954   6.211  11.900  0.00  0.00    +0.000 A 
ATOM      6  C   UNL     1      43.124   5.460  11.067  0.00  0.00    +0.000 A 
ATOM      7  C   UNL     1      43.669   4.701  10.028  0.00  0.00    +0.000 A 
ATOM      8  C   UNL     1      45.055   4.636   9.824  0.00  0.00    +0.000 A 
ATOM      9  C   UNL     1      45.859   5.425  10.669  0.00  0.00    +0.000 A 
BRANCH   8  10
ATOM     10  C   UNL     1      45.667   3.790   8.770  0.00  0.00    +0.000 A 
ATOM     11  C   UNL     1      46.343   4.380   7.682  0.00  0.00    +0.000 A 
ATOM     12  C   UNL     1      46.920   3.611   6.665  0.00  0.00    +0.000 A 
ATOM     13  C   UNL     1      46.848   2.224   6.715  0.00  0.00    +0.000 A 
ATOM     14  C   UNL     1      46.196   1.611   7.781  0.00  0.00    +0.000 A 
ATOM     15  C   UNL     1      45.612   2.386   8.787  0.00  0.00    +0.000 A 
ATOM     16  F   UNL     1      44.975   1.736   9.774  0.00  0.00    +0.000 F 
ENDBRANCH   8  10
ENDBRANCH   1   4
BRANCH   1  17
ATOM     17  N   UNL     1      47.467   6.646  12.939  0.00  0.00    +0.000 N 
ATOM     18  H   UNL     1      48.262   6.568  12.316  0.00  0.00    +0.000 HD
BRANCH  17  22
ATOM     19  C   UNL     1      47.981   4.420  16.346  0.00  0.00    +0.000 A 
ATOM     20  C   UNL     1      48.585   5.646  16.154  0.00  0.00    +0.000 A 
ATOM     21  N   UNL     1      48.438   6.362  15.011  0.00  0.00    +0.000 NA
ATOM     22  C   UNL     1      47.668   5.822  14.036  0.00  0.00    +0.000 A 
ATOM     23  C   UNL     1      47.095   4.565  14.233  0.00  0.00    +0.000 A 
ATOM     24  N   UNL     1      47.228   3.844  15.381  0.00  0.00    +0.000 NA
BRANCH  19  26
ATOM     25  N   UNL     1      48.261   3.161  18.594  0.00  0.00    +0.000 NA
ATOM     26  C   UNL     1      48.106   3.729  17.595  0.00  0.00    +0.000 C 
ENDBRANCH  19  26
ENDBRANCH  17  22
ENDBRANCH   1  17
TORSDOF 5
ENDMDL
MODEL 4
REMARK VINA RESULT:    -7.087      3.589      7.198
REMARK INTER + INTRA:         -10.081
REMARK INTER:                  -9.304
REMARK INTRA:                  -0.778
REMARK UNBOUND:                -0.923
REMARK  Name = 
REMARK  5 active torsions:
REMARK  status: ('A' for Active; 'I' for Inactive)
REMARK    1  A    between atoms: C_2  and  C_3
REMARK    2  A    between atoms: C_6  and  N_7
REMARK    3  A    between atoms: N_7  and  C_8
REMARK    4  A    between atoms: C_8  and  C_9
REMARK    5  A    between atoms: C_13  and  C_14
REMARK                            x       y       z     vdW  Elec       q    Type
REMARK                         _______ _______ _______ _____ _____    ______ ____
ROOT
ATOM      1  C   UNL     1      45.447   5.586  12.349  0.00  0.00    +0.000 C 
ATOM      2  C   UNL     1      45.029   6.918  11.720  0.00  0.00    +0.000 C 
ATOM      3  C   UNL     1      44.320   6.419  12.931  0.00  0.00    +0.000 C 
ENDROOT
BRANCH   1   4
ATOM      4  C   UNL     1      45.031   4.322  11.600  0.00  0.00    +0.000 A 
ATOM      5  C   UNL     1      43.940   3.549  12.018  0.00  0.00    +0.000 A 
ATOM      6  C   UNL     1      43.445   2.521  11.217  0.00  0.00    +0.000 A 
ATOM      7  C   UNL     1      44.063   2.215  10.002  0.00  0.00    +0.000 A 
ATOM      8  C   UNL     1      45.215   2.893   9.580  0.00  0.00    +0.000 A 
ATOM      9  C   UNL     1      45.673   3.940  10.404  0.00  0.00    +0.000 A 
BRANCH   8  10
ATOM     10  C   UNL     1      45.932   2.548   8.328  0.00  0.00    +0.000 A 
ATOM     11  C   UNL     1      46.356   1.224   8.088  0.00  0.00    +0.000 A 
ATOM     12  C   UNL     1      47.046   0.869   6.923  0.00  0.00    +0.000 A 
ATOM     13  C   UNL     1      47.319   1.829   5.955  0.00  0.00    +0.000 A 
ATOM     14  C   UNL     1      46.904   3.142   6.158  0.00  0.00    +0.000 A 
ATOM     15  C   UNL     1      46.227   3.492   7.329  0.00  0.00    +0.000 A 
ATOM     16  F   UNL     1      45.876   4.780   7.477  0.00  0.00    +0.000 F 
ENDBRANCH   8  10
ENDBRANCH   1   4
BRANCH   1  17
ATOM     17  N   UNL     1      46.818   5.551  12.853  0.00  0.00    +0.000 N 
ATOM     18  H   UNL     1      47.570   5.336  12.208  0.00  0.00    +0.000 HD
BRANCH  17  22
ATOM     19  C   UNL     1      48.246   4.853  16.634  0.00  0.00    +0.000 A 
ATOM     20  C   UNL     1      47.263   4.079  16.051  0.00  0.00    +0.000 A 
ATOM     21  N   UNL     1      46.772   4.336  14.812  0.00  0.00    +0.000 NA
ATOM     22  C   UNL     1      47.279   5.404  14.152  0.00  0.00    +0.000 A 
ATOM     23  C   UNL     1      48.247   6.196  14.773  0.00  0.00    +0.000 A 
ATOM     24  N   UNL     1      48.755   5.941  16.010  0.00  0.00    +0.000 NA
BRANCH  19  26
ATOM     25  N   UNL     1      49.174   4.235  18.974  0.00  0.00    +0.000 NA
ATOM     26  C   UNL     1      48.787   4.507  17.915  0.00  0.00    +0.000 C 
ENDBRANCH  19  26
ENDBRANCH  17  22
ENDBRANCH   1  17
TORSDOF 5
ENDMDL
MODEL 5
REMARK VINA RESULT:    -6.741      4.210      7.793
REMARK INTER + INTRA:          -9.634
REMARK INTER:                  -8.687
REMARK INTRA:                  -0.947
REMARK UNBOUND:                -0.923
REMARK  Name = 
REMARK  5 active torsions:
REMARK  status: ('A' for Active; 'I' for Inactive)
REMARK    1  A    between atoms: C_2  and  C_3
REMARK    2  A    between atoms: C_6  and  N_7
REMARK    3  A    between atoms: N_7  and  C_8
REMARK    4  A    between atoms: C_8  and  C_9
REMARK    5  A    between atoms: C_13  and  C_14
REMARK                            x       y       z     vdW  Elec       q    Type
REMARK                         _______ _______ _______ _____ _____    ______ ____
ROOT
ATOM      1  C   UNL     1      49.080   7.855  12.717  0.00  0.00    +0.000 C 
ATOM      2  C   UNL     1      49.982   7.882  11.481  0.00  0.00    +0.000 C 
ATOM      3  C   UNL     1      49.664   9.152  12.190  0.00  0.00    +0.000 C 
ENDROOT
BRANCH   1   4
ATOM      4  C   UNL     1      47.589   7.638  12.465  0.00  0.00    +0.000 A 
ATOM      5  C   UNL     1      46.633   8.577  12.874  0.00  0.00    +0.000 A 
ATOM      6  C   UNL     1      45.306   8.471  12.459  0.00  0.00    +0.000 A 
ATOM      7  C   UNL     1      44.899   7.394  11.666  0.00  0.00    +0.000 A 
ATOM      8  C   UNL     1      45.794   6.376  11.307  0.00  0.00    +0.000 A 
ATOM      9  C   UNL     1      47.131   6.530  11.724  0.00  0.00    +0.000 A 
BRANCH   8  10
ATOM     10  C   UNL     1      45.378   5.189  10.521  0.00  0.00    +0.000 A 
ATOM     11  C   UNL     1      45.704   5.088   9.152  0.00  0.00    +0.000 A 
ATOM     12  C   UNL     1      45.315   3.988   8.379  0.00  0.00    +0.000 A 
ATOM     13  C   UNL     1      44.598   2.948   8.959  0.00  0.00    +0.000 A 
ATOM     14  C   UNL     1      44.270   3.013  10.310  0.00  0.00    +0.000 A 
ATOM     15  C   UNL     1      44.651   4.121  11.072  0.00  0.00    +0.000 A 
ATOM     16  F   UNL     1      44.281   4.137  12.363  0.00  0.00    +0.000 F 
ENDBRANCH   8  10
ENDBRANCH   1   4
BRANCH   1  17
ATOM     17  N   UNL     1      49.605   7.088  13.844  0.00  0.00    +0.000 N 
ATOM     18  H   UNL     1      50.272   6.347  13.661  0.00  0.00    +0.000 HD
BRANCH  17  22
ATOM     19  C   UNL     1      48.271   6.414  17.664  0.00  0.00    +0.000 A 
ATOM     20  C   UNL     1      48.269   5.440  16.687  0.00  0.00    +0.000 A 
ATOM     21  N   UNL     1      48.681   5.678  15.417  0.00  0.00    +0.000 NA
ATOM     22  C   UNL     1      49.096   6.934  15.124  0.00  0.00    +0.000 A 
ATOM     23  C   UNL     1      49.058   7.916  16.115  0.00  0.00    +0.000 A 
ATOM     24  N   UNL     1      48.657   7.684  17.396  0.00  0.00    +0.000 NA
BRANCH  19  26
ATOM     25  N   UNL     1      47.541   5.834  20.082  0.00  0.00    +0.000 NA
ATOM     26  C   UNL     1      47.894   6.104  19.011  0.00  0.00    +0.000 C 
ENDBRANCH  19  26
ENDBRANCH  17  22
ENDBRANCH   1  17
TORSDOF 5
ENDMDL
MODEL 6
REMARK VINA RESULT:    -6.389      5.765      8.335
REMARK INTER + INTRA:          -9.180
REMARK INTER:                  -8.534
REMARK INTRA:                  -0.645
REMARK UNBOUND:                -0.923
REMARK  Name = 
REMARK  5 active torsions:
REMARK  status: ('A' for Active; 'I' for Inactive)
REMARK    1  A    between atoms: C_2  and  C_3
REMARK    2  A    between atoms: C_6  and  N_7
REMARK    3  A    between atoms: N_7  and  C_8
REMARK    4  A    between atoms: C_8  and  C_9
REMARK    5  A    between atoms: C_13  and  C_14
REMARK                            x       y       z     vdW  Elec       q    Type
REMARK                         _______ _______ _______ _____ _____    ______ ____
ROOT
ATOM      1  C   UNL     1      48.215   4.519  17.006  0.00  0.00    +0.000 C 
ATOM      2  C   UNL     1      47.281   4.774  18.191  0.00  0.00    +0.000 C 
ATOM      3  C   UNL     1      47.206   3.479  17.458  0.00  0.00    +0.000 C 
ENDROOT
BRANCH   1   4
ATOM      4  C   UNL     1      47.884   5.256  15.710  0.00  0.00    +0.000 A 
ATOM      5  C   UNL     1      48.711   6.273  15.214  0.00  0.00    +0.000 A 
ATOM      6  C   UNL     1      48.512   6.793  13.935  0.00  0.00    +0.000 A 
ATOM      7  C   UNL     1      47.452   6.340  13.146  0.00  0.00    +0.000 A 
ATOM      8  C   UNL     1      46.539   5.392  13.630  0.00  0.00    +0.000 A 
ATOM      9  C   UNL     1      46.784   4.872  14.916  0.00  0.00    +0.000 A 
BRANCH   8  10
ATOM     10  C   UNL     1      45.367   4.939  12.841  0.00  0.00    +0.000 A 
ATOM     11  C   UNL     1      44.344   5.846  12.492  0.00  0.00    +0.000 A 
ATOM     12  C   UNL     1      43.220   5.447  11.761  0.00  0.00    +0.000 A 
ATOM     13  C   UNL     1      43.093   4.127  11.344  0.00  0.00    +0.000 A 
ATOM     14  C   UNL     1      44.090   3.209  11.664  0.00  0.00    +0.000 A 
ATOM     15  C   UNL     1      45.204   3.613  12.404  0.00  0.00    +0.000 A 
ATOM     16  F   UNL     1      46.118   2.675  12.703  0.00  0.00    +0.000 F 
ENDBRANCH   8  10
ENDBRANCH   1   4
BRANCH   1  17
ATOM     17  N   UNL     1      49.638   4.515  17.336  0.00  0.00    +0.000 N 
ATOM     18  H   UNL     1      50.155   5.385  17.278  0.00  0.00    +0.000 HD
BRANCH  17  22
ATOM     19  C   UNL     1      52.332   1.447  17.735  0.00  0.00    +0.000 A 
ATOM     20  C   UNL     1      52.633   2.755  18.057  0.00  0.00    +0.000 A 
ATOM     21  N   UNL     1      51.748   3.770  17.891  0.00  0.00    +0.000 NA
ATOM     22  C   UNL     1      50.533   3.457  17.380  0.00  0.00    +0.000 A 
ATOM     23  C   UNL     1      50.259   2.135  17.027  0.00  0.00    +0.000 A 
ATOM     24  N   UNL     1      51.136   1.108  17.200  0.00  0.00    +0.000 NA
BRANCH  19  26
ATOM     25  N   UNL     1      54.010  -0.459  18.249  0.00  0.00    +0.000 NA
ATOM     26  C   UNL     1      53.270   0.395  17.990  0.00  0.00    +0.000 C 
ENDBRANCH  19  26
ENDBRANCH  17  22
ENDBRANCH   1  17
TORSDOF 5
ENDMDL
MODEL 7
REMARK VINA RESULT:    -6.359      3.363      6.005
REMARK INTER + INTRA:          -9.140
REMARK INTER:                  -8.289
REMARK INTRA:                  -0.851
REMARK UNBOUND:                -0.923
REMARK  Name = 
REMARK  5 active torsions:
REMARK  status: ('A' for Active; 'I' for Inactive)
REMARK    1  A    between atoms: C_2  and  C_3
REMARK    2  A    between atoms: C_6  and  N_7
REMARK    3  A    between atoms: N_7  and  C_8
REMARK    4  A    between atoms: C_8  and  C_9
REMARK    5  A    between atoms: C_13  and  C_14
REMARK                            x       y       z     vdW  Elec       q    Type
REMARK                         _______ _______ _______ _____ _____    ______ ____
ROOT
ATOM      1  C   UNL     1      48.015   8.082  12.531  0.00  0.00    +0.000 C 
ATOM      2  C   UNL     1      48.619   9.242  11.737  0.00  0.00    +0.000 C 
ATOM      3  C   UNL     1      49.168   7.869  11.566  0.00  0.00    +0.000 C 
ENDROOT
BRANCH   1   4
ATOM      4  C   UNL     1      48.363   8.022  14.016  0.00  0.00    +0.000 A 
ATOM      5  C   UNL     1      48.329   9.167  14.823  0.00  0.00    +0.000 A 
ATOM      6  C   UNL     1      48.446   9.067  16.209  0.00  0.00    +0.000 A 
ATOM      7  C   UNL     1      48.649   7.823  16.811  0.00  0.00    +0.000 A 
ATOM      8  C   UNL     1      48.785   6.657  16.045  0.00  0.00    +0.000 A 
ATOM      9  C   UNL     1      48.638   6.793  14.650  0.00  0.00    +0.000 A 
BRANCH   8  10
ATOM     10  C   UNL     1      49.063   5.332  16.650  0.00  0.00    +0.000 A 
ATOM     11  C   UNL     1      50.323   5.058  17.224  0.00  0.00    +0.000 A 
ATOM     12  C   UNL     1      50.622   3.814  17.792  0.00  0.00    +0.000 A 
ATOM     13  C   UNL     1      49.661   2.810  17.813  0.00  0.00    +0.000 A 
ATOM     14  C   UNL     1      48.405   3.052  17.263  0.00  0.00    +0.000 A 
ATOM     15  C   UNL     1      48.118   4.292  16.688  0.00  0.00    +0.000 A 
ATOM     16  F   UNL     1      46.898   4.455  16.151  0.00  0.00    +0.000 F 
ENDBRANCH   8  10
ENDBRANCH   1   4
BRANCH   1  17
ATOM     17  N   UNL     1      46.610   7.806  12.241  0.00  0.00    +0.000 N 
ATOM     18  H   UNL     1      45.919   8.516  12.457  0.00  0.00    +0.000 HD
BRANCH  17  22
ATOM     19  C   UNL     1      44.499   4.315  11.815  0.00  0.00    +0.000 A 
ATOM     20  C   UNL     1      44.798   4.864  13.045  0.00  0.00    +0.000 A 
ATOM     21  N   UNL     1      45.525   6.001  13.180  0.00  0.00    +0.000 NA
ATOM     22  C   UNL     1      45.968   6.593  12.045  0.00  0.00    +0.000 A 
ATOM     23  C   UNL     1      45.686   6.005  10.812  0.00  0.00    +0.000 A 
ATOM     24  N   UNL     1      44.947   4.870  10.665  0.00  0.00    +0.000 NA
BRANCH  19  26
ATOM     25  N   UNL     1      43.007   2.210  11.576  0.00  0.00    +0.000 NA
ATOM     26  C   UNL     1      43.669   3.151  11.713  0.00  0.00    +0.000 C 
ENDBRANCH  19  26
ENDBRANCH  17  22
ENDBRANCH   1  17
TORSDOF 5
ENDMDL
MODEL 8
REMARK VINA RESULT:    -5.655      3.923      6.922
REMARK INTER + INTRA:          -8.231
REMARK INTER:                  -7.325
REMARK INTRA:                  -0.906
REMARK UNBOUND:                -0.923
REMARK  Name = 
REMARK  5 active torsions:
REMARK  status: ('A' for Active; 'I' for Inactive)
REMARK    1  A    between atoms: C_2  and  C_3
REMARK    2  A    between atoms: C_6  and  N_7
REMARK    3  A    between atoms: N_7  and  C_8
REMARK    4  A    between atoms: C_8  and  C_9
REMARK    5  A    between atoms: C_13  and  C_14
REMARK                            x       y       z     vdW  Elec       q    Type
REMARK                         _______ _______ _______ _____ _____    ______ ____
ROOT
ATOM      1  C   UNL     1      48.566   7.866  13.640  0.00  0.00    +0.000 C 
ATOM      2  C   UNL     1      48.566   7.996  15.165  0.00  0.00    +0.000 C 
ATOM      3  C   UNL     1      48.969   6.708  14.536  0.00  0.00    +0.000 C 
ENDROOT
BRANCH   1   4
ATOM      4  C   UNL     1      47.198   7.751  12.970  0.00  0.00    +0.000 A 
ATOM      5  C   UNL     1      46.281   8.810  12.990  0.00  0.00    +0.000 A 
ATOM      6  C   UNL     1      45.129   8.771  12.205  0.00  0.00    +0.000 A 
ATOM      7  C   UNL     1      44.847   7.649  11.422  0.00  0.00    +0.000 A 
ATOM      8  C   UNL     1      45.682   6.523  11.437  0.00  0.00    +0.000 A 
ATOM      9  C   UNL     1      46.848   6.607  12.223  0.00  0.00    +0.000 A 
BRANCH   8  10
ATOM     10  C   UNL     1      45.377   5.292  10.666  0.00  0.00    +0.000 A 
ATOM     11  C   UNL     1      45.702   5.208   9.296  0.00  0.00    +0.000 A 
ATOM     12  C   UNL     1      45.415   4.067   8.538  0.00  0.00    +0.000 A 
ATOM     13  C   UNL     1      44.805   2.970   9.134  0.00  0.00    +0.000 A 
ATOM     14  C   UNL     1      44.481   3.018  10.487  0.00  0.00    +0.000 A 
ATOM     15  C   UNL     1      44.759   4.165  11.235  0.00  0.00    +0.000 A 
ATOM     16  F   UNL     1      44.398   4.160  12.528  0.00  0.00    +0.000 F 
ENDBRANCH   8  10
ENDBRANCH   1   4
BRANCH   1  17
ATOM     17  N   UNL     1      49.490   8.759  12.948  0.00  0.00    +0.000 N 
ATOM     18  H   UNL     1      49.182   9.697  12.716  0.00  0.00    +0.000 HD
BRANCH  17  22
ATOM     19  C   UNL     1      52.956   7.763  10.992  0.00  0.00    +0.000 A 
ATOM     20  C   UNL     1      52.938   8.528  12.140  0.00  0.00    +0.000 A 
ATOM     21  N   UNL     1      51.786   8.882  12.764  0.00  0.00    +0.000 NA
ATOM     22  C   UNL     1      50.624   8.460  12.209  0.00  0.00    +0.000 A 
ATOM     23  C   UNL     1      50.661   7.717  11.028  0.00  0.00    +0.000 A 
ATOM     24  N   UNL     1      51.812   7.347  10.401  0.00  0.00    +0.000 NA
BRANCH  19  26
ATOM     25  N   UNL     1      55.180   6.968   9.925  0.00  0.00    +0.000 NA
ATOM     26  C   UNL     1      54.196   7.353  10.404  0.00  0.00    +0.000 C 
ENDBRANCH  19  26
ENDBRANCH  17  22
ENDBRANCH   1  17
TORSDOF 5
ENDMDL
MODEL 9
REMARK VINA RESULT:    -5.649      4.153      6.529
REMARK INTER + INTRA:          -8.223
REMARK INTER:                  -7.448
REMARK INTRA:                  -0.776
REMARK UNBOUND:                -0.923
REMARK  Name = 
REMARK  5 active torsions:
REMARK  status: ('A' for Active; 'I' for Inactive)
REMARK    1  A    between atoms: C_2  and  C_3
REMARK    2  A    between atoms: C_6  and  N_7
REMARK    3  A    between atoms: N_7  and  C_8
REMARK    4  A    between atoms: C_8  and  C_9
REMARK    5  A    between atoms: C_13  and  C_14
REMARK                            x       y       z     vdW  Elec       q    Type
REMARK                         _______ _______ _______ _____ _____    ______ ____
ROOT
ATOM      1  C   UNL     1      48.195   7.657  13.151  0.00  0.00    +0.000 C 
ATOM      2  C   UNL     1      48.317   8.999  12.426  0.00  0.00    +0.000 C 
ATOM      3  C   UNL     1      48.734   7.747  11.735  0.00  0.00    +0.000 C 
ENDROOT
BRANCH   1   4
ATOM      4  C   UNL     1      49.225   7.380  14.245  0.00  0.00    +0.000 A 
ATOM      5  C   UNL     1      50.568   7.750  14.097  0.00  0.00    +0.000 A 
ATOM      6  C   UNL     1      51.450   7.681  15.175  0.00  0.00    +0.000 A 
ATOM      7  C   UNL     1      51.016   7.193  16.410  0.00  0.00    +0.000 A 
ATOM      8  C   UNL     1      49.708   6.720  16.587  0.00  0.00    +0.000 A 
ATOM      9  C   UNL     1      48.839   6.827  15.483  0.00  0.00    +0.000 A 
BRANCH   8  10
ATOM     10  C   UNL     1      49.236   6.137  17.867  0.00  0.00    +0.000 A 
ATOM     11  C   UNL     1      48.538   6.932  18.801  0.00  0.00    +0.000 A 
ATOM     12  C   UNL     1      48.092   6.416  20.023  0.00  0.00    +0.000 A 
ATOM     13  C   UNL     1      48.321   5.082  20.341  0.00  0.00    +0.000 A 
ATOM     14  C   UNL     1      48.998   4.269  19.436  0.00  0.00    +0.000 A 
ATOM     15  C   UNL     1      49.451   4.794  18.223  0.00  0.00    +0.000 A 
ATOM     16  F   UNL     1      50.121   3.967  17.405  0.00  0.00    +0.000 F 
ENDBRANCH   8  10
ENDBRANCH   1   4
BRANCH   1  17
ATOM     17  N   UNL     1      46.832   7.278  13.514  0.00  0.00    +0.000 N 
ATOM     18  H   UNL     1      46.470   7.559  14.418  0.00  0.00    +0.000 HD
BRANCH  17  22
ATOM     19  C   UNL     1      44.449   4.196  12.228  0.00  0.00    +0.000 A 
ATOM     20  C   UNL     1      45.688   3.995  12.803  0.00  0.00    +0.000 A 
ATOM     21  N   UNL     1      46.485   5.020  13.196  0.00  0.00    +0.000 NA
ATOM     22  C   UNL     1      46.023   6.278  12.995  0.00  0.00    +0.000 A 
ATOM     23  C   UNL     1      44.784   6.462  12.379  0.00  0.00    +0.000 A 
ATOM     24  N   UNL     1      43.972   5.440  11.992  0.00  0.00    +0.000 NA
BRANCH  19  26
ATOM     25  N   UNL     1      42.974   2.159  11.603  0.00  0.00    +0.000 NA
ATOM     26  C   UNL     1      43.609   3.085  11.891  0.00  0.00    +0.000 C 
ENDBRANCH  19  26
ENDBRANCH  17  22
ENDBRANCH   1  17
TORSDOF 5
ENDMDL
