MODEL 1
REMARK VINA RESULT:    -7.764      0.000      0.000
REMARK INTER + INTRA:         -11.779
REMARK INTER:                 -10.941
REMARK INTRA:                  -0.837
REMARK UNBOUND:                -0.837
REMARK  Name = 
REMARK  8 active torsions:
REMARK  status: ('A' for Active; 'I' for Inactive)
REMARK    1  A    between atoms: C_1  and  O_2
REMARK    2  A    between atoms: O_2  and  C_3
REMARK    3  A    between atoms: C_5  and  C_6
REMARK    4  A    between atoms: C_11  and  N_12
REMARK    5  A    between atoms: N_12  and  C_13
REMARK    6  A    between atoms: C_13  and  C_14
REMARK    7  A    between atoms: C_17  and  O_18
REMARK    8  A    between atoms: O_18  and  C_19
REMARK                            x       y       z     vdW  Elec       q    Type
REMARK                         _______ _______ _______ _____ _____    ______ ____
ROOT
ATOM      1  N   UNL     1      45.937   3.864  13.255  0.00  0.00    +0.000 N 
ATOM      2  H   UNL     1      45.788   3.166  13.978  0.00  0.00    +0.000 HD
ENDROOT
BRANCH   1   8
ATOM      3  C   UNL     1      47.308   4.753  15.063  0.00  0.00    +0.000 A 
ATOM      4  C   UNL     1      48.252   5.688  15.496  0.00  0.00    +0.000 A 
ATOM      5  C   UNL     1      48.732   6.662  14.609  0.00  0.00    +0.000 A 
ATOM      6  C   UNL     1      48.260   6.638  13.310  0.00  0.00    +0.000 A 
ATOM      7  N   UNL     1      47.362   5.742  12.857  0.00  0.00    +0.000 NA
ATOM      8  C   UNL     1      46.872   4.821  13.722  0.00  0.00    +0.000 A 
BRANCH   5   9
ATOM      9  C   UNL     1      49.718   7.660  15.088  0.00  0.00    +0.000 C 
ATOM     10  N   UNL     1      51.041   7.507  14.766  0.00  0.00    +0.000 N 
ATOM     11  O   UNL     1      49.359   8.627  15.748  0.00  0.00    +0.000 OA
ATOM     12  H   UNL     1      51.432   6.781  14.188  0.00  0.00    +0.000 HD
ATOM     13  H   UNL     1      51.668   8.236  15.095  0.00  0.00    +0.000 HD
ENDBRANCH   5   9
BRANCH   3  15
ATOM     14  C   UNL     1      47.167   3.580  17.173  0.00  0.00    +0.000 C 
ATOM     15  O   UNL     1      46.724   3.786  15.837  0.00  0.00    +0.000 OA
ENDBRANCH   3  15
ENDBRANCH   1   8
BRANCH   1  16
ATOM     16  C   UNL     1      44.770   4.302  12.467  0.00  0.00    +0.000 C 
ATOM     17  C   UNL     1      43.942   5.486  12.940  0.00  0.00    +0.000 C 
ATOM     18  C   UNL     1      43.374   4.113  13.050  0.00  0.00    +0.000 C 
BRANCH  16  19
ATOM     19  C   UNL     1      44.913   4.052  10.969  0.00  0.00    +0.000 A 
ATOM     20  C   UNL     1      45.355   5.063  10.098  0.00  0.00    +0.000 A 
ATOM     21  C   UNL     1      45.552   4.823   8.730  0.00  0.00    +0.000 A 
ATOM     22  C   UNL     1      45.337   3.551   8.209  0.00  0.00    +0.000 A 
ATOM     23  C   UNL     1      44.826   2.555   9.043  0.00  0.00    +0.000 A 
ATOM     24  C   UNL     1      44.614   2.806  10.401  0.00  0.00    +0.000 A 
BRANCH  22  25
ATOM     25  O   UNL     1      45.529   3.172   6.917  0.00  0.00    +0.000 OA
BRANCH  25  26
ATOM     26  C   UNL     1      46.799   2.680   6.515  0.00  0.00    +0.000 C 
ATOM     27  F   UNL     1      47.836   3.130   7.252  0.00  0.00    +0.000 F 
ATOM     28  F   UNL     1      46.785   1.330   6.611  0.00  0.00    +0.000 F 
ATOM     29  F   UNL     1      47.012   3.004   5.222  0.00  0.00    +0.000 F 
ENDBRANCH  25  26
ENDBRANCH  22  25
ENDBRANCH  16  19
ENDBRANCH   1  16
TORSDOF 7
ENDMDL
MODEL 2
REMARK VINA RESULT:    -7.556      4.347      7.021
REMARK INTER + INTRA:         -11.486
REMARK INTER:                 -10.926
REMARK INTRA:                  -0.561
REMARK UNBOUND:                -0.837
REMARK  Name = 
REMARK  8 active torsions:
REMARK  status: ('A' for Active; 'I' for Inactive)
REMARK    1  A    between atoms: C_1  and  O_2
REMARK    2  A    between atoms: O_2  and  C_3
REMARK    3  A    between atoms: C_5  and  C_6
REMARK    4  A    between atoms: C_11  and  N_12
REMARK    5  A    between atoms: N_12  and  C_13
REMARK    6  A    between atoms: C_13  and  C_14
REMARK    7  A    between atoms: C_17  and  O_18
REMARK    8  A    between atoms: O_18  and  C_19
REMARK                            x       y       z     vdW  Elec       q    Type
REMARK                         _______ _______ _______ _____ _____    ______ ____
ROOT
ATOM      1  N   UNL     1      43.609   5.231   9.849  0.00  0.00    +0.000 N 
ATOM      2  H   UNL     1      42.675   5.117   9.466  0.00  0.00    +0.000 HD
ENDROOT
BRANCH   1   8
ATOM      3  C   UNL     1      44.258   2.886   9.709  0.00  0.00    +0.000 A 
ATOM      4  C   UNL     1      45.084   1.908   9.148  0.00  0.00    +0.000 A 
ATOM      5  C   UNL     1      46.076   2.272   8.226  0.00  0.00    +0.000 A 
ATOM      6  C   UNL     1      46.180   3.608   7.887  0.00  0.00    +0.000 A 
ATOM      7  N   UNL     1      45.392   4.574   8.398  0.00  0.00    +0.000 NA
ATOM      8  C   UNL     1      44.455   4.227   9.313  0.00  0.00    +0.000 A 
BRANCH   5   9
ATOM      9  C   UNL     1      46.958   1.225   7.655  0.00  0.00    +0.000 C 
ATOM     10  N   UNL     1      48.056   1.597   6.926  0.00  0.00    +0.000 N 
ATOM     11  O   UNL     1      46.724   0.038   7.846  0.00  0.00    +0.000 OA
ATOM     12  H   UNL     1      48.366   2.540   6.756  0.00  0.00    +0.000 HD
ATOM     13  H   UNL     1      48.642   0.840   6.584  0.00  0.00    +0.000 HD
ENDBRANCH   5   9
BRANCH   3  15
ATOM     14  C   UNL     1      43.617   2.020  11.873  0.00  0.00    +0.000 C 
ATOM     15  O   UNL     1      43.289   2.673  10.653  0.00  0.00    +0.000 OA
ENDBRANCH   3  15
ENDBRANCH   1   8
BRANCH   1  16
ATOM     16  C   UNL     1      43.731   5.613  11.269  0.00  0.00    +0.000 C 
ATOM     17  C   UNL     1      42.673   5.163  12.264  0.00  0.00    +0.000 C 
ATOM     18  C   UNL     1      42.725   6.596  11.857  0.00  0.00    +0.000 C 
BRANCH  16  19
ATOM     19  C   UNL     1      45.174   5.762  11.741  0.00  0.00    +0.000 A 
ATOM     20  C   UNL     1      46.002   6.786  11.250  0.00  0.00    +0.000 A 
ATOM     21  C   UNL     1      47.307   6.971  11.727  0.00  0.00    +0.000 A 
ATOM     22  C   UNL     1      47.804   6.149  12.734  0.00  0.00    +0.000 A 
ATOM     23  C   UNL     1      47.024   5.080  13.180  0.00  0.00    +0.000 A 
ATOM     24  C   UNL     1      45.730   4.890  12.686  0.00  0.00    +0.000 A 
BRANCH  22  25
ATOM     25  O   UNL     1      49.030   6.243  13.315  0.00  0.00    +0.000 OA
BRANCH  25  26
ATOM     26  C   UNL     1      49.314   7.343  14.167  0.00  0.00    +0.000 C 
ATOM     27  F   UNL     1      48.273   7.757  14.919  0.00  0.00    +0.000 F 
ATOM     28  F   UNL     1      50.310   6.984  15.011  0.00  0.00    +0.000 F 
ATOM     29  F   UNL     1      49.752   8.380  13.422  0.00  0.00    +0.000 F 
ENDBRANCH  25  26
ENDBRANCH  22  25
ENDBRANCH  16  19
ENDBRANCH   1  16
TORSDOF 7
ENDMDL
MODEL 3
REMARK VINA RESULT:    -6.633      1.978      2.818
REMARK INTER + INTRA:         -10.185
REMARK INTER:                 -10.671
REMARK INTRA:                   0.487
REMARK UNBOUND:                -0.837
REMARK  Name = 
REMARK  8 active torsions:
REMARK  status: ('A' for Active; 'I' for Inactive)
REMARK    1  A    between atoms: C_1  and  O_2
REMARK    2  A    between atoms: O_2  and  C_3
REMARK    3  A    between atoms: C_5  and  C_6
REMARK    4  A    between atoms: C_11  and  N_12
REMARK    5  A    between atoms: N_12  and  C_13
REMARK    6  A    between atoms: C_13  and  C_14
REMARK    7  A    between atoms: C_17  and  O_18
REMARK    8  A    between atoms: O_18  and  C_19
REMARK                            x       y       z     vdW  Elec       q    Type
REMARK                         _______ _______ _______ _____ _____    ______ ____
ROOT
ATOM      1  N   UNL     1      44.514   6.841  11.548  0.00  0.00    +0.000 N 
ATOM      2  H   UNL     1      44.622   7.385  10.698  0.00  0.00    +0.000 HD
ENDROOT
BRANCH   1   8
ATOM      3  C   UNL     1      46.073   8.136  12.901  0.00  0.00    +0.000 A 
ATOM      4  C   UNL     1      47.245   8.176  13.661  0.00  0.00    +0.000 A 
ATOM      5  C   UNL     1      48.028   7.022  13.804  0.00  0.00    +0.000 A 
ATOM      6  C   UNL     1      47.586   5.864  13.193  0.00  0.00    +0.000 A 
ATOM      7  N   UNL     1      46.455   5.787  12.465  0.00  0.00    +0.000 NA
ATOM      8  C   UNL     1      45.714   6.910  12.300  0.00  0.00    +0.000 A 
BRANCH   5   9
ATOM      9  C   UNL     1      49.280   7.086  14.597  0.00  0.00    +0.000 C 
ATOM     10  N   UNL     1      50.185   8.082  14.345  0.00  0.00    +0.000 N 
ATOM     11  O   UNL     1      49.499   6.272  15.486  0.00  0.00    +0.000 OA
ATOM     12  H   UNL     1      50.078   8.828  13.677  0.00  0.00    +0.000 HD
ATOM     13  H   UNL     1      51.011   8.096  14.938  0.00  0.00    +0.000 HD
ENDBRANCH   5   9
BRANCH   3  15
ATOM     14  C   UNL     1      45.738  10.319  11.918  0.00  0.00    +0.000 C 
ATOM     15  O   UNL     1      45.247   9.197  12.642  0.00  0.00    +0.000 OA
ENDBRANCH   3  15
ENDBRANCH   1   8
BRANCH   1  16
ATOM     16  C   UNL     1      43.774   5.567  11.462  0.00  0.00    +0.000 C 
ATOM     17  C   UNL     1      42.281   5.541  11.748  0.00  0.00    +0.000 C 
ATOM     18  C   UNL     1      43.222   4.947  12.740  0.00  0.00    +0.000 C 
BRANCH  16  19
ATOM     19  C   UNL     1      44.346   4.594  10.435  0.00  0.00    +0.000 A 
ATOM     20  C   UNL     1      45.142   5.043   9.366  0.00  0.00    +0.000 A 
ATOM     21  C   UNL     1      45.726   4.150   8.456  0.00  0.00    +0.000 A 
ATOM     22  C   UNL     1      45.548   2.779   8.615  0.00  0.00    +0.000 A 
ATOM     23  C   UNL     1      44.699   2.320   9.624  0.00  0.00    +0.000 A 
ATOM     24  C   UNL     1      44.106   3.216  10.516  0.00  0.00    +0.000 A 
BRANCH  22  25
ATOM     25  O   UNL     1      46.088   1.805   7.834  0.00  0.00    +0.000 OA
BRANCH  25  26
ATOM     26  C   UNL     1      46.908   2.169   6.734  0.00  0.00    +0.000 C 
ATOM     27  F   UNL     1      46.298   2.935   5.805  0.00  0.00    +0.000 F 
ATOM     28  F   UNL     1      47.970   2.864   7.204  0.00  0.00    +0.000 F 
ATOM     29  F   UNL     1      47.373   1.050   6.138  0.00  0.00    +0.000 F 
ENDBRANCH  25  26
ENDBRANCH  22  25
ENDBRANCH  16  19
ENDBRANCH   1  16
TORSDOF 7
ENDMDL
MODEL 4
REMARK VINA RESULT:    -6.592      3.933      7.152
REMARK INTER + INTRA:         -10.127
REMARK INTER:                  -8.971
REMARK INTRA:                  -1.156
REMARK UNBOUND:                -0.837
REMARK  Name = 
REMARK  8 active torsions:
REMARK  status: ('A' for Active; 'I' for Inactive)
REMARK    1  A    between atoms: C_1  and  O_2
REMARK    2  A    between atoms: O_2  and  C_3
REMARK    3  A    between atoms: C_5  and  C_6
REMARK    4  A    between atoms: C_11  and  N_12
REMARK    5  A    between atoms: N_12  and  C_13
REMARK    6  A    between atoms: C_13  and  C_14
REMARK    7  A    between atoms: C_17  and  O_18
REMARK    8  A    between atoms: O_18  and  C_19
REMARK                            x       y       z     vdW  Elec       q    Type
REMARK                         _______ _______ _______ _____ _____    ______ ____
ROOT
ATOM      1  N   UNL     1      43.727   4.642  10.076  0.00  0.00    +0.000 N 
ATOM      2  H   UNL     1      42.800   4.666   9.661  0.00  0.00    +0.000 HD
ENDROOT
BRANCH   1   8
ATOM      3  C   UNL     1      45.636   4.119   8.653  0.00  0.00    +0.000 A 
ATOM      4  C   UNL     1      46.417   3.155   8.012  0.00  0.00    +0.000 A 
ATOM      5  C   UNL     1      46.075   1.798   8.108  0.00  0.00    +0.000 A 
ATOM      6  C   UNL     1      44.971   1.465   8.870  0.00  0.00    +0.000 A 
ATOM      7  N   UNL     1      44.205   2.368   9.513  0.00  0.00    +0.000 NA
ATOM      8  C   UNL     1      44.515   3.682   9.394  0.00  0.00    +0.000 A 
BRANCH   5   9
ATOM      9  C   UNL     1      46.902   0.788   7.405  0.00  0.00    +0.000 C 
ATOM     10  N   UNL     1      46.695  -0.542   7.656  0.00  0.00    +0.000 N 
ATOM     11  O   UNL     1      47.750   1.131   6.590  0.00  0.00    +0.000 OA
ATOM     12  H   UNL     1      45.993  -0.931   8.265  0.00  0.00    +0.000 HD
ATOM     13  H   UNL     1      47.269  -1.192   7.125  0.00  0.00    +0.000 HD
ENDBRANCH   5   9
BRANCH   3  15
ATOM     14  C   UNL     1      47.008   6.046   9.152  0.00  0.00    +0.000 C 
ATOM     15  O   UNL     1      45.828   5.474   8.599  0.00  0.00    +0.000 OA
ENDBRANCH   3  15
ENDBRANCH   1   8
BRANCH   1  16
ATOM     16  C   UNL     1      43.830   4.769  11.542  0.00  0.00    +0.000 C 
ATOM     17  C   UNL     1      43.399   3.613  12.431  0.00  0.00    +0.000 C 
ATOM     18  C   UNL     1      42.551   4.837  12.368  0.00  0.00    +0.000 C 
BRANCH  16  19
ATOM     19  C   UNL     1      44.976   5.666  12.001  0.00  0.00    +0.000 A 
ATOM     20  C   UNL     1      46.114   5.133  12.632  0.00  0.00    +0.000 A 
ATOM     21  C   UNL     1      47.200   5.942  12.997  0.00  0.00    +0.000 A 
ATOM     22  C   UNL     1      47.181   7.303  12.710  0.00  0.00    +0.000 A 
ATOM     23  C   UNL     1      46.030   7.862  12.154  0.00  0.00    +0.000 A 
ATOM     24  C   UNL     1      44.944   7.053  11.809  0.00  0.00    +0.000 A 
BRANCH  22  25
ATOM     25  O   UNL     1      48.179   8.191  12.970  0.00  0.00    +0.000 OA
BRANCH  25  26
ATOM     26  C   UNL     1      49.044   8.595  11.919  0.00  0.00    +0.000 C 
ATOM     27  F   UNL     1      48.622   9.671  11.224  0.00  0.00    +0.000 F 
ATOM     28  F   UNL     1      50.251   8.899  12.451  0.00  0.00    +0.000 F 
ATOM     29  F   UNL     1      49.214   7.564  11.063  0.00  0.00    +0.000 F 
ENDBRANCH  25  26
ENDBRANCH  22  25
ENDBRANCH  16  19
ENDBRANCH   1  16
TORSDOF 7
ENDMDL
MODEL 5
REMARK VINA RESULT:    -6.574      4.507      7.295
REMARK INTER + INTRA:         -10.102
REMARK INTER:                  -9.398
REMARK INTRA:                  -0.705
REMARK UNBOUND:                -0.837
REMARK  Name = 
REMARK  8 active torsions:
REMARK  status: ('A' for Active; 'I' for Inactive)
REMARK    1  A    between atoms: C_1  and  O_2
REMARK    2  A    between atoms: O_2  and  C_3
REMARK    3  A    between atoms: C_5  and  C_6
REMARK    4  A    between atoms: C_11  and  N_12
REMARK    5  A    between atoms: N_12  and  C_13
REMARK    6  A    between atoms: C_13  and  C_14
REMARK    7  A    between atoms: C_17  and  O_18
REMARK    8  A    between atoms: O_18  and  C_19
REMARK                            x       y       z     vdW  Elec       q    Type
REMARK                         _______ _______ _______ _____ _____    ______ ____
ROOT
ATOM      1  N   UNL     1      43.951   5.595  10.298  0.00  0.00    +0.000 N 
ATOM      2  H   UNL     1      43.023   5.273  10.556  0.00  0.00    +0.000 HD
ENDROOT
BRANCH   1   8
ATOM      3  C   UNL     1      44.260   3.208   9.921  0.00  0.00    +0.000 A 
ATOM      4  C   UNL     1      44.940   2.183   9.258  0.00  0.00    +0.000 A 
ATOM      5  C   UNL     1      45.978   2.492   8.366  0.00  0.00    +0.000 A 
ATOM      6  C   UNL     1      46.273   3.826   8.159  0.00  0.00    +0.000 A 
ATOM      7  N   UNL     1      45.628   4.839   8.771  0.00  0.00    +0.000 NA
ATOM      8  C   UNL     1      44.647   4.540   9.657  0.00  0.00    +0.000 A 
BRANCH   5   9
ATOM      9  C   UNL     1      46.704   1.392   7.685  0.00  0.00    +0.000 C 
ATOM     10  N   UNL     1      47.619   1.693   6.712  0.00  0.00    +0.000 N 
ATOM     11  O   UNL     1      46.507   0.225   7.999  0.00  0.00    +0.000 OA
ATOM     12  H   UNL     1      47.892   2.617   6.417  0.00  0.00    +0.000 HD
ATOM     13  H   UNL     1      48.109   0.903   6.300  0.00  0.00    +0.000 HD
ENDBRANCH   5   9
BRANCH   3  15
ATOM     14  C   UNL     1      43.419   2.085  11.889  0.00  0.00    +0.000 C 
ATOM     15  O   UNL     1      43.267   3.043  10.849  0.00  0.00    +0.000 OA
ENDBRANCH   3  15
ENDBRANCH   1   8
BRANCH   1  16
ATOM     16  C   UNL     1      44.662   6.477  11.243  0.00  0.00    +0.000 C 
ATOM     17  C   UNL     1      44.082   7.840  11.587  0.00  0.00    +0.000 C 
ATOM     18  C   UNL     1      45.293   7.763  10.721  0.00  0.00    +0.000 C 
BRANCH  16  19
ATOM     19  C   UNL     1      45.455   5.723  12.307  0.00  0.00    +0.000 A 
ATOM     20  C   UNL     1      44.815   4.889  13.242  0.00  0.00    +0.000 A 
ATOM     21  C   UNL     1      45.541   4.142  14.180  0.00  0.00    +0.000 A 
ATOM     22  C   UNL     1      46.932   4.190  14.183  0.00  0.00    +0.000 A 
ATOM     23  C   UNL     1      47.580   5.070  13.314  0.00  0.00    +0.000 A 
ATOM     24  C   UNL     1      46.849   5.825  12.394  0.00  0.00    +0.000 A 
BRANCH  22  25
ATOM     25  O   UNL     1      47.756   3.488  15.006  0.00  0.00    +0.000 OA
BRANCH  25  26
ATOM     26  C   UNL     1      47.816   3.824  16.385  0.00  0.00    +0.000 C 
ATOM     27  F   UNL     1      49.051   3.771  16.925  0.00  0.00    +0.000 F 
ATOM     28  F   UNL     1      47.357   5.088  16.537  0.00  0.00    +0.000 F 
ATOM     29  F   UNL     1      47.002   2.999  17.078  0.00  0.00    +0.000 F 
ENDBRANCH  25  26
ENDBRANCH  22  25
ENDBRANCH  16  19
ENDBRANCH   1  16
TORSDOF 7
ENDMDL
MODEL 6
REMARK VINA RESULT:    -6.503      1.533      2.392
REMARK INTER + INTRA:         -10.002
REMARK INTER:                  -9.523
REMARK INTRA:                  -0.479
REMARK UNBOUND:                -0.837
REMARK  Name = 
REMARK  8 active torsions:
REMARK  status: ('A' for Active; 'I' for Inactive)
REMARK    1  A    between atoms: C_1  and  O_2
REMARK    2  A    between atoms: O_2  and  C_3
REMARK    3  A    between atoms: C_5  and  C_6
REMARK    4  A    between atoms: C_11  and  N_12
REMARK    5  A    between atoms: N_12  and  C_13
REMARK    6  A    between atoms: C_13  and  C_14
REMARK    7  A    between atoms: C_17  and  O_18
REMARK    8  A    between atoms: O_18  and  C_19
REMARK                            x       y       z     vdW  Elec       q    Type
REMARK                         _______ _______ _______ _____ _____    ______ ____
ROOT
ATOM      1  N   UNL     1      46.142   3.655  13.551  0.00  0.00    +0.000 N 
ATOM      2  H   UNL     1      45.893   2.714  13.842  0.00  0.00    +0.000 HD
ENDROOT
BRANCH   1   8
ATOM      3  C   UNL     1      47.740   5.333  14.306  0.00  0.00    +0.000 A 
ATOM      4  C   UNL     1      48.380   5.979  15.367  0.00  0.00    +0.000 A 
ATOM      5  C   UNL     1      48.107   5.597  16.688  0.00  0.00    +0.000 A 
ATOM      6  C   UNL     1      47.180   4.591  16.889  0.00  0.00    +0.000 A 
ATOM      7  N   UNL     1      46.536   3.957  15.890  0.00  0.00    +0.000 NA
ATOM      8  C   UNL     1      46.823   4.304  14.612  0.00  0.00    +0.000 A 
BRANCH   5   9
ATOM      9  C   UNL     1      48.809   6.279  17.802  0.00  0.00    +0.000 C 
ATOM     10  N   UNL     1      49.997   5.773  18.258  0.00  0.00    +0.000 N 
ATOM     11  O   UNL     1      48.348   7.298  18.302  0.00  0.00    +0.000 OA
ATOM     12  H   UNL     1      50.487   4.976  17.885  0.00  0.00    +0.000 HD
ATOM     13  H   UNL     1      50.450   6.297  19.003  0.00  0.00    +0.000 HD
ENDBRANCH   5   9
BRANCH   3  15
ATOM     14  C   UNL     1      48.522   6.808  12.558  0.00  0.00    +0.000 C 
ATOM     15  O   UNL     1      47.951   5.574  12.974  0.00  0.00    +0.000 OA
ENDBRANCH   3  15
ENDBRANCH   1   8
BRANCH   1  16
ATOM     16  C   UNL     1      45.168   4.405  12.737  0.00  0.00    +0.000 C 
ATOM     17  C   UNL     1      44.640   5.742  13.233  0.00  0.00    +0.000 C 
ATOM     18  C   UNL     1      43.739   4.556  13.248  0.00  0.00    +0.000 C 
BRANCH  16  19
ATOM     19  C   UNL     1      45.325   4.186  11.235  0.00  0.00    +0.000 A 
ATOM     20  C   UNL     1      45.106   2.924  10.653  0.00  0.00    +0.000 A 
ATOM     21  C   UNL     1      45.184   2.729   9.267  0.00  0.00    +0.000 A 
ATOM     22  C   UNL     1      45.456   3.804   8.426  0.00  0.00    +0.000 A 
ATOM     23  C   UNL     1      45.752   5.046   8.991  0.00  0.00    +0.000 A 
ATOM     24  C   UNL     1      45.689   5.230  10.375  0.00  0.00    +0.000 A 
BRANCH  22  25
ATOM     25  O   UNL     1      45.520   3.764   7.069  0.00  0.00    +0.000 OA
BRANCH  25  26
ATOM     26  C   UNL     1      46.633   3.146   6.441  0.00  0.00    +0.000 C 
ATOM     27  F   UNL     1      47.808   3.316   7.083  0.00  0.00    +0.000 F 
ATOM     28  F   UNL     1      46.398   1.815   6.365  0.00  0.00    +0.000 F 
ATOM     29  F   UNL     1      46.753   3.620   5.182  0.00  0.00    +0.000 F 
ENDBRANCH  25  26
ENDBRANCH  22  25
ENDBRANCH  16  19
ENDBRANCH   1  16
TORSDOF 7
ENDMDL
MODEL 7
REMARK VINA RESULT:    -6.475      2.774      3.989
REMARK INTER + INTRA:          -9.962
REMARK INTER:                  -9.228
REMARK INTRA:                  -0.734
REMARK UNBOUND:                -0.837
REMARK  Name = 
REMARK  8 active torsions:
REMARK  status: ('A' for Active; 'I' for Inactive)
REMARK    1  A    between atoms: C_1  and  O_2
REMARK    2  A    between atoms: O_2  and  C_3
REMARK    3  A    between atoms: C_5  and  C_6
REMARK    4  A    between atoms: C_11  and  N_12
REMARK    5  A    between atoms: N_12  and  C_13
REMARK    6  A    between atoms: C_13  and  C_14
REMARK    7  A    between atoms: C_17  and  O_18
REMARK    8  A    between atoms: O_18  and  C_19
REMARK                            x       y       z     vdW  Elec       q    Type
REMARK                         _______ _______ _______ _____ _____    ______ ____
ROOT
ATOM      1  N   UNL     1      46.935   5.064  15.356  0.00  0.00    +0.000 N 
ATOM      2  H   UNL     1      46.484   5.622  16.075  0.00  0.00    +0.000 HD
ENDROOT
BRANCH   1   8
ATOM      3  C   UNL     1      48.772   4.898  16.949  0.00  0.00    +0.000 A 
ATOM      4  C   UNL     1      49.775   4.123  17.537  0.00  0.00    +0.000 A 
ATOM      5  C   UNL     1      49.972   2.798  17.121  0.00  0.00    +0.000 A 
ATOM      6  C   UNL     1      49.132   2.298  16.144  0.00  0.00    +0.000 A 
ATOM      7  N   UNL     1      48.147   3.014  15.567  0.00  0.00    +0.000 NA
ATOM      8  C   UNL     1      47.976   4.304  15.945  0.00  0.00    +0.000 A 
BRANCH   5   9
ATOM      9  C   UNL     1      51.054   1.995  17.740  0.00  0.00    +0.000 C 
ATOM     10  N   UNL     1      52.015   2.624  18.487  0.00  0.00    +0.000 N 
ATOM     11  O   UNL     1      51.083   0.778  17.607  0.00  0.00    +0.000 OA
ATOM     12  H   UNL     1      52.053   3.607  18.701  0.00  0.00    +0.000 HD
ATOM     13  H   UNL     1      52.715   2.022  18.913  0.00  0.00    +0.000 HD
ENDBRANCH   5   9
BRANCH   3  15
ATOM     14  C   UNL     1      48.065   6.590  18.525  0.00  0.00    +0.000 C 
ATOM     15  O   UNL     1      48.507   6.213  17.226  0.00  0.00    +0.000 OA
ENDBRANCH   3  15
ENDBRANCH   1   8
BRANCH   1  16
ATOM     16  C   UNL     1      47.134   5.678  14.030  0.00  0.00    +0.000 C 
ATOM     17  C   UNL     1      48.496   6.239  13.655  0.00  0.00    +0.000 C 
ATOM     18  C   UNL     1      47.376   7.180  13.941  0.00  0.00    +0.000 C 
BRANCH  16  19
ATOM     19  C   UNL     1      46.259   5.072  12.936  0.00  0.00    +0.000 A 
ATOM     20  C   UNL     1      46.023   5.751  11.728  0.00  0.00    +0.000 A 
ATOM     21  C   UNL     1      45.275   5.174  10.692  0.00  0.00    +0.000 A 
ATOM     22  C   UNL     1      44.770   3.885  10.833  0.00  0.00    +0.000 A 
ATOM     23  C   UNL     1      44.929   3.226  12.053  0.00  0.00    +0.000 A 
ATOM     24  C   UNL     1      45.660   3.815  13.088  0.00  0.00    +0.000 A 
BRANCH  22  25
ATOM     25  O   UNL     1      44.067   3.193   9.896  0.00  0.00    +0.000 OA
BRANCH  25  26
ATOM     26  C   UNL     1      44.766   2.475   8.890  0.00  0.00    +0.000 C 
ATOM     27  F   UNL     1      46.096   2.374   9.091  0.00  0.00    +0.000 F 
ATOM     28  F   UNL     1      44.265   1.219   8.834  0.00  0.00    +0.000 F 
ATOM     29  F   UNL     1      44.550   3.063   7.694  0.00  0.00    +0.000 F 
ENDBRANCH  25  26
ENDBRANCH  22  25
ENDBRANCH  16  19
ENDBRANCH   1  16
TORSDOF 7
ENDMDL
MODEL 8
REMARK VINA RESULT:    -6.051      5.397      8.540
REMARK INTER + INTRA:          -9.365
REMARK INTER:                  -8.090
REMARK INTRA:                  -1.275
REMARK UNBOUND:                -0.837
REMARK  Name = 
REMARK  8 active torsions:
REMARK  status: ('A' for Active; 'I' for Inactive)
REMARK    1  A    between atoms: C_1  and  O_2
REMARK    2  A    between atoms: O_2  and  C_3
REMARK    3  A    between atoms: C_5  and  C_6
REMARK    4  A    between atoms: C_11  and  N_12
REMARK    5  A    between atoms: N_12  and  C_13
REMARK    6  A    between atoms: C_13  and  C_14
REMARK    7  A    between atoms: C_17  and  O_18
REMARK    8  A    between atoms: O_18  and  C_19
REMARK                            x       y       z     vdW  Elec       q    Type
REMARK                         _______ _______ _______ _____ _____    ______ ____
ROOT
ATOM      1  N   UNL     1      48.638   6.570  12.521  0.00  0.00    +0.000 N 
ATOM      2  H   UNL     1      49.054   6.169  11.686  0.00  0.00    +0.000 HD
ENDROOT
BRANCH   1   8
ATOM      3  C   UNL     1      46.751   5.361  13.477  0.00  0.00    +0.000 A 
ATOM      4  C   UNL     1      45.376   5.113  13.490  0.00  0.00    +0.000 A 
ATOM      5  C   UNL     1      44.537   5.767  12.577  0.00  0.00    +0.000 A 
ATOM      6  C   UNL     1      45.115   6.667  11.701  0.00  0.00    +0.000 A 
ATOM      7  N   UNL     1      46.434   6.939  11.672  0.00  0.00    +0.000 NA
ATOM      8  C   UNL     1      47.250   6.283  12.531  0.00  0.00    +0.000 A 
BRANCH   5   9
ATOM      9  C   UNL     1      43.082   5.479  12.590  0.00  0.00    +0.000 C 
ATOM     10  N   UNL     1      42.259   6.137  11.715  0.00  0.00    +0.000 N 
ATOM     11  O   UNL     1      42.616   4.646  13.357  0.00  0.00    +0.000 OA
ATOM     12  H   UNL     1      42.545   6.798  11.011  0.00  0.00    +0.000 HD
ATOM     13  H   UNL     1      41.276   5.879  11.746  0.00  0.00    +0.000 HD
ENDBRANCH   5   9
BRANCH   3  15
ATOM     14  C   UNL     1      47.333   4.349  15.594  0.00  0.00    +0.000 C 
ATOM     15  O   UNL     1      47.683   4.755  14.276  0.00  0.00    +0.000 OA
ENDBRANCH   3  15
ENDBRANCH   1   8
BRANCH   1  16
ATOM     16  C   UNL     1      49.118   7.893  12.963  0.00  0.00    +0.000 C 
ATOM     17  C   UNL     1      48.927   9.104  12.063  0.00  0.00    +0.000 C 
ATOM     18  C   UNL     1      50.293   8.534  12.234  0.00  0.00    +0.000 C 
BRANCH  16  19
ATOM     19  C   UNL     1      49.080   8.085  14.476  0.00  0.00    +0.000 A 
ATOM     20  C   UNL     1      48.298   9.094  15.066  0.00  0.00    +0.000 A 
ATOM     21  C   UNL     1      48.206   9.236  16.458  0.00  0.00    +0.000 A 
ATOM     22  C   UNL     1      48.874   8.346  17.294  0.00  0.00    +0.000 A 
ATOM     23  C   UNL     1      49.715   7.387  16.727  0.00  0.00    +0.000 A 
ATOM     24  C   UNL     1      49.816   7.263  15.339  0.00  0.00    +0.000 A 
BRANCH  22  25
ATOM     25  O   UNL     1      48.838   8.343  18.654  0.00  0.00    +0.000 OA
BRANCH  25  26
ATOM     26  C   UNL     1      47.616   8.059  19.318  0.00  0.00    +0.000 C 
ATOM     27  F   UNL     1      46.726   9.073  19.318  0.00  0.00    +0.000 F 
ATOM     28  F   UNL     1      47.031   7.003  18.706  0.00  0.00    +0.000 F 
ATOM     29  F   UNL     1      47.876   7.709  20.596  0.00  0.00    +0.000 F 
ENDBRANCH  25  26
ENDBRANCH  22  25
ENDBRANCH  16  19
ENDBRANCH   1  16
TORSDOF 7
ENDMDL
MODEL 9
REMARK VINA RESULT:    -5.908      2.394      3.832
REMARK INTER + INTRA:          -9.163
REMARK INTER:                  -8.915
REMARK INTRA:                  -0.248
REMARK UNBOUND:                -0.837
REMARK  Name = 
REMARK  8 active torsions:
REMARK  status: ('A' for Active; 'I' for Inactive)
REMARK    1  A    between atoms: C_1  and  O_2
REMARK    2  A    between atoms: O_2  and  C_3
REMARK    3  A    between atoms: C_5  and  C_6
REMARK    4  A    between atoms: C_11  and  N_12
REMARK    5  A    between atoms: N_12  and  C_13
REMARK    6  A    between atoms: C_13  and  C_14
REMARK    7  A    between atoms: C_17  and  O_18
REMARK    8  A    between atoms: O_18  and  C_19
REMARK                            x       y       z     vdW  Elec       q    Type
REMARK                         _______ _______ _______ _____ _____    ______ ____
ROOT
ATOM      1  N   UNL     1      48.314   6.636  13.263  0.00  0.00    +0.000 N 
ATOM      2  H   UNL     1      48.868   5.974  12.730  0.00  0.00    +0.000 HD
ENDROOT
BRANCH   1   8
ATOM      3  C   UNL     1      48.838   7.145  15.588  0.00  0.00    +0.000 A 
ATOM      4  C   UNL     1      48.804   6.758  16.930  0.00  0.00    +0.000 A 
ATOM      5  C   UNL     1      48.269   5.513  17.289  0.00  0.00    +0.000 A 
ATOM      6  C   UNL     1      47.765   4.714  16.279  0.00  0.00    +0.000 A 
ATOM      7  N   UNL     1      47.769   5.062  14.978  0.00  0.00    +0.000 NA
ATOM      8  C   UNL     1      48.315   6.251  14.627  0.00  0.00    +0.000 A 
BRANCH   5   9
ATOM      9  C   UNL     1      48.259   5.108  18.716  0.00  0.00    +0.000 C 
ATOM     10  N   UNL     1      47.206   5.475  19.510  0.00  0.00    +0.000 N 
ATOM     11  O   UNL     1      49.170   4.436  19.181  0.00  0.00    +0.000 OA
ATOM     12  H   UNL     1      46.386   5.980  19.215  0.00  0.00    +0.000 HD
ATOM     13  H   UNL     1      47.235   5.145  20.472  0.00  0.00    +0.000 HD
ENDBRANCH   5   9
BRANCH   3  15
ATOM     14  C   UNL     1      50.549   8.849  15.691  0.00  0.00    +0.000 C 
ATOM     15  O   UNL     1      49.375   8.306  15.100  0.00  0.00    +0.000 OA
ENDBRANCH   3  15
ENDBRANCH   1   8
BRANCH   1  16
ATOM     16  C   UNL     1      47.076   7.153  12.648  0.00  0.00    +0.000 C 
ATOM     17  C   UNL     1      47.033   8.580  12.124  0.00  0.00    +0.000 C 
ATOM     18  C   UNL     1      46.292   8.242  13.372  0.00  0.00    +0.000 C 
BRANCH  16  19
ATOM     19  C   UNL     1      46.249   6.083  11.943  0.00  0.00    +0.000 A 
ATOM     20  C   UNL     1      46.023   6.128  10.556  0.00  0.00    +0.000 A 
ATOM     21  C   UNL     1      45.320   5.114   9.890  0.00  0.00    +0.000 A 
ATOM     22  C   UNL     1      44.850   4.012  10.599  0.00  0.00    +0.000 A 
ATOM     23  C   UNL     1      44.997   3.988  11.987  0.00  0.00    +0.000 A 
ATOM     24  C   UNL     1      45.683   5.011  12.646  0.00  0.00    +0.000 A 
BRANCH  22  25
ATOM     25  O   UNL     1      44.192   2.943  10.075  0.00  0.00    +0.000 OA
BRANCH  25  26
ATOM     26  C   UNL     1      44.750   2.257   8.965  0.00  0.00    +0.000 C 
ATOM     27  F   UNL     1      44.564   2.866   7.775  0.00  0.00    +0.000 F 
ATOM     28  F   UNL     1      46.084   2.141   9.160  0.00  0.00    +0.000 F 
ATOM     29  F   UNL     1      44.228   1.014   8.903  0.00  0.00    +0.000 F 
ENDBRANCH  25  26
ENDBRANCH  22  25
ENDBRANCH  16  19
ENDBRANCH   1  16
TORSDOF 7
ENDMDL
