MODEL 1
REMARK VINA RESULT:    -7.919      0.000      0.000
REMARK INTER + INTRA:         -11.833
REMARK INTER:                 -10.696
REMARK INTRA:                  -1.137
REMARK UNBOUND:                -1.137
REMARK  Name = 
REMARK  6 active torsions:
REMARK  status: ('A' for Active; 'I' for Inactive)
REMARK    1  A    between atoms: C_2  and  C_25
REMARK    2  A    between atoms: N_3  and  C_4
REMARK    3  A    between atoms: C_4  and  C_5
REMARK    4  A    between atoms: C_8  and  C_9
REMARK    5  A    between atoms: C_9  and  N_10
REMARK    6  A    between atoms: C_11  and  C_13
REMARK                            x       y       z     vdW  Elec       q    Type
REMARK                         _______ _______ _______ _____ _____    ______ ____
ROOT
ATOM      1  C   UNL     1      45.015   5.376  10.726  0.00  0.00    +0.000 A 
ATOM      2  C   UNL     1      44.350   5.720  11.902  0.00  0.00    +0.000 A 
ATOM      3  C   UNL     1      44.948   6.619  12.783  0.00  0.00    +0.000 A 
ATOM      4  C   UNL     1      46.195   7.164  12.479  0.00  0.00    +0.000 A 
ATOM      5  C   UNL     1      46.798   6.741  11.299  0.00  0.00    +0.000 A 
ATOM      6  N   UNL     1      46.241   5.870  10.421  0.00  0.00    +0.000 NA
ENDROOT
BRANCH   1   7
ATOM      7  C   UNL     1      44.379   4.416   9.743  0.00  0.00    +0.000 C 
BRANCH   7  10
ATOM      8  O   UNL     1      45.299   1.815   9.139  0.00  0.00    +0.000 OA
ATOM      9  C   UNL     1      45.656   2.759   8.436  0.00  0.00    +0.000 C 
ATOM     10  N   UNL     1      45.254   4.054   8.651  0.00  0.00    +0.000 N 
ATOM     11  H   UNL     1      45.670   4.773   8.070  0.00  0.00    +0.000 HD
BRANCH   9  12
ATOM     12  C   UNL     1      46.536   2.595   7.279  0.00  0.00    +0.000 A 
ATOM     13  C   UNL     1      47.627   1.748   7.203  0.00  0.00    +0.000 A 
ATOM     14  N   UNL     1      48.117   1.890   5.937  0.00  0.00    +0.000 N 
ATOM     15  C   UNL     1      47.338   2.808   5.293  0.00  0.00    +0.000 A 
ATOM     16  N   UNL     1      46.380   3.262   6.073  0.00  0.00    +0.000 NA
ATOM     17  H   UNL     1      48.907   1.398   5.542  0.00  0.00    +0.000 HD
ENDBRANCH   9  12
ENDBRANCH   7  10
ENDBRANCH   1   7
BRANCH   4  18
ATOM     18  C   UNL     1      46.880   8.135  13.397  0.00  0.00    +0.000 C 
BRANCH  18  19
ATOM     19  N   UNL     1      47.386   7.481  14.579  0.00  0.00    +0.000 N 
ATOM     20  C   UNL     1      48.632   6.904  14.598  0.00  0.00    +0.000 C 
ATOM     21  O   UNL     1      49.400   6.981  13.644  0.00  0.00    +0.000 OA
ATOM     22  H   UNL     1      46.709   7.221  15.288  0.00  0.00    +0.000 HD
BRANCH  20  23
ATOM     23  C   UNL     1      49.021   6.233  15.845  0.00  0.00    +0.000 A 
ATOM     24  C   UNL     1      50.104   6.704  16.577  0.00  0.00    +0.000 A 
ATOM     25  S   UNL     1      50.395   5.824  18.010  0.00  0.00    +0.000 S 
ATOM     26  C   UNL     1      49.112   4.756  17.681  0.00  0.00    +0.000 A 
ATOM     27  N   UNL     1      48.825   3.725  18.520  0.00  0.00    +0.000 NA
ATOM     28  C   UNL     1      47.840   2.983  18.136  0.00  0.00    +0.000 A 
ATOM     29  N   UNL     1      47.114   3.181  16.990  0.00  0.00    +0.000 N 
ATOM     30  C   UNL     1      47.352   4.221  16.126  0.00  0.00    +0.000 A 
ATOM     31  O   UNL     1      46.660   4.396  15.129  0.00  0.00    +0.000 OA
ATOM     32  C   UNL     1      48.458   5.079  16.505  0.00  0.00    +0.000 A 
ATOM     33  H   UNL     1      46.345   2.571  16.751  0.00  0.00    +0.000 HD
ENDBRANCH  20  23
ENDBRANCH  18  19
ENDBRANCH   4  18
TORSDOF 6
ENDMDL
MODEL 2
REMARK VINA RESULT:    -7.017      2.320      2.744
REMARK INTER + INTRA:         -10.616
REMARK INTER:                  -9.648
REMARK INTRA:                  -0.968
REMARK UNBOUND:                -1.137
REMARK  Name = 
REMARK  6 active torsions:
REMARK  status: ('A' for Active; 'I' for Inactive)
REMARK    1  A    between atoms: C_2  and  C_25
REMARK    2  A    between atoms: N_3  and  C_4
REMARK    3  A    between atoms: C_4  and  C_5
REMARK    4  A    between atoms: C_8  and  C_9
REMARK    5  A    between atoms: C_9  and  N_10
REMARK    6  A    between atoms: C_11  and  C_13
REMARK                            x       y       z     vdW  Elec       q    Type
REMARK                         _______ _______ _______ _____ _____    ______ ____
ROOT
ATOM      1  C   UNL     1      45.201   4.771  11.753  0.00  0.00    +0.000 A 
ATOM      2  C   UNL     1      45.828   4.384  12.937  0.00  0.00    +0.000 A 
ATOM      3  C   UNL     1      46.632   5.300  13.611  0.00  0.00    +0.000 A 
ATOM      4  C   UNL     1      46.796   6.588  13.101  0.00  0.00    +0.000 A 
ATOM      5  C   UNL     1      46.157   6.878  11.900  0.00  0.00    +0.000 A 
ATOM      6  N   UNL     1      45.367   6.009  11.222  0.00  0.00    +0.000 NA
ENDROOT
BRANCH   1   7
ATOM      7  C   UNL     1      44.307   3.801  11.010  0.00  0.00    +0.000 C 
BRANCH   7  10
ATOM      8  O   UNL     1      45.015   4.282   8.318  0.00  0.00    +0.000 OA
ATOM      9  C   UNL     1      45.332   3.216   8.844  0.00  0.00    +0.000 C 
ATOM     10  N   UNL     1      45.035   2.900  10.146  0.00  0.00    +0.000 N 
ATOM     11  H   UNL     1      45.264   1.963  10.461  0.00  0.00    +0.000 HD
BRANCH   9  12
ATOM     12  C   UNL     1      46.079   2.176   8.136  0.00  0.00    +0.000 A 
ATOM     13  C   UNL     1      47.019   2.386   7.144  0.00  0.00    +0.000 A 
ATOM     14  N   UNL     1      47.484   1.147   6.808  0.00  0.00    +0.000 N 
ATOM     15  C   UNL     1      46.821   0.235   7.578  0.00  0.00    +0.000 A 
ATOM     16  N   UNL     1      45.959   0.818   8.384  0.00  0.00    +0.000 NA
ATOM     17  H   UNL     1      48.197   0.941   6.122  0.00  0.00    +0.000 HD
ENDBRANCH   9  12
ENDBRANCH   7  10
ENDBRANCH   1   7
BRANCH   4  18
ATOM     18  C   UNL     1      47.653   7.610  13.792  0.00  0.00    +0.000 C 
BRANCH  18  19
ATOM     19  N   UNL     1      47.915   7.244  15.162  0.00  0.00    +0.000 N 
ATOM     20  C   UNL     1      49.177   6.907  15.584  0.00  0.00    +0.000 C 
ATOM     21  O   UNL     1      50.151   6.974  14.839  0.00  0.00    +0.000 OA
ATOM     22  H   UNL     1      47.116   6.978  15.729  0.00  0.00    +0.000 HD
BRANCH  20  23
ATOM     23  C   UNL     1      49.312   6.514  16.993  0.00  0.00    +0.000 A 
ATOM     24  C   UNL     1      49.914   5.307  17.320  0.00  0.00    +0.000 A 
ATOM     25  S   UNL     1      50.013   5.026  19.001  0.00  0.00    +0.000 S 
ATOM     26  C   UNL     1      49.214   6.487  19.348  0.00  0.00    +0.000 A 
ATOM     27  N   UNL     1      48.950   6.854  20.630  0.00  0.00    +0.000 NA
ATOM     28  C   UNL     1      48.320   7.977  20.745  0.00  0.00    +0.000 A 
ATOM     29  N   UNL     1      47.934   8.766  19.692  0.00  0.00    +0.000 N 
ATOM     30  C   UNL     1      48.200   8.448  18.384  0.00  0.00    +0.000 A 
ATOM     31  O   UNL     1      47.878   9.194  17.466  0.00  0.00    +0.000 OA
ATOM     32  C   UNL     1      48.896   7.189  18.198  0.00  0.00    +0.000 A 
ATOM     33  H   UNL     1      47.455   9.641  19.849  0.00  0.00    +0.000 HD
ENDBRANCH  20  23
ENDBRANCH  18  19
ENDBRANCH   4  18
TORSDOF 6
ENDMDL
MODEL 3
REMARK VINA RESULT:    -6.938      2.202      2.465
REMARK INTER + INTRA:         -10.509
REMARK INTER:                  -9.517
REMARK INTRA:                  -0.992
REMARK UNBOUND:                -1.137
REMARK  Name = 
REMARK  6 active torsions:
REMARK  status: ('A' for Active; 'I' for Inactive)
REMARK    1  A    between atoms: C_2  and  C_25
REMARK    2  A    between atoms: N_3  and  C_4
REMARK    3  A    between atoms: C_4  and  C_5
REMARK    4  A    between atoms: C_8  and  C_9
REMARK    5  A    between atoms: C_9  and  N_10
REMARK    6  A    between atoms: C_11  and  C_13
REMARK                            x       y       z     vdW  Elec       q    Type
REMARK                         _______ _______ _______ _____ _____    ______ ____
ROOT
ATOM      1  C   UNL     1      45.317   4.607  12.123  0.00  0.00    +0.000 A 
ATOM      2  C   UNL     1      46.187   3.940  12.984  0.00  0.00    +0.000 A 
ATOM      3  C   UNL     1      47.018   4.683  13.821  0.00  0.00    +0.000 A 
ATOM      4  C   UNL     1      46.965   6.077  13.792  0.00  0.00    +0.000 A 
ATOM      5  C   UNL     1      46.088   6.657  12.881  0.00  0.00    +0.000 A 
ATOM      6  N   UNL     1      45.267   5.961  12.056  0.00  0.00    +0.000 NA
ENDROOT
BRANCH   1   7
ATOM      7  C   UNL     1      44.391   3.824  11.216  0.00  0.00    +0.000 C 
BRANCH   7  10
ATOM      8  O   UNL     1      44.968   4.388   8.509  0.00  0.00    +0.000 OA
ATOM      9  C   UNL     1      45.324   3.314   8.990  0.00  0.00    +0.000 C 
ATOM     10  N   UNL     1      45.092   2.958  10.295  0.00  0.00    +0.000 N 
ATOM     11  H   UNL     1      45.348   2.016  10.573  0.00  0.00    +0.000 HD
BRANCH   9  12
ATOM     12  C   UNL     1      46.051   2.305   8.220  0.00  0.00    +0.000 A 
ATOM     13  C   UNL     1      46.952   2.556   7.200  0.00  0.00    +0.000 A 
ATOM     14  N   UNL     1      47.413   1.333   6.806  0.00  0.00    +0.000 N 
ATOM     15  C   UNL     1      46.787   0.390   7.569  0.00  0.00    +0.000 A 
ATOM     16  N   UNL     1      45.952   0.938   8.427  0.00  0.00    +0.000 NA
ATOM     17  H   UNL     1      48.102   1.157   6.087  0.00  0.00    +0.000 HD
ENDBRANCH   9  12
ENDBRANCH   7  10
ENDBRANCH   1   7
BRANCH   4  18
ATOM     18  C   UNL     1      47.840   6.920  14.674  0.00  0.00    +0.000 C 
BRANCH  18  19
ATOM     19  N   UNL     1      48.888   6.140  15.284  0.00  0.00    +0.000 N 
ATOM     20  C   UNL     1      49.170   6.244  16.624  0.00  0.00    +0.000 C 
ATOM     21  O   UNL     1      48.500   6.944  17.377  0.00  0.00    +0.000 OA
ATOM     22  H   UNL     1      49.579   5.730  14.664  0.00  0.00    +0.000 HD
BRANCH  20  23
ATOM     23  C   UNL     1      50.286   5.429  17.122  0.00  0.00    +0.000 A 
ATOM     24  C   UNL     1      51.429   6.045  17.614  0.00  0.00    +0.000 A 
ATOM     25  S   UNL     1      52.609   4.949  18.176  0.00  0.00    +0.000 S 
ATOM     26  C   UNL     1      51.652   3.611  17.741  0.00  0.00    +0.000 A 
ATOM     27  N   UNL     1      52.095   2.340  17.934  0.00  0.00    +0.000 NA
ATOM     28  C   UNL     1      51.276   1.423  17.537  0.00  0.00    +0.000 A 
ATOM     29  N   UNL     1      50.051   1.663  16.969  0.00  0.00    +0.000 N 
ATOM     30  C   UNL     1      49.553   2.928  16.776  0.00  0.00    +0.000 A 
ATOM     31  O   UNL     1      48.437   3.111  16.302  0.00  0.00    +0.000 OA
ATOM     32  C   UNL     1      50.441   3.996  17.193  0.00  0.00    +0.000 A 
ATOM     33  H   UNL     1      49.450   0.901  16.691  0.00  0.00    +0.000 HD
ENDBRANCH  20  23
ENDBRANCH  18  19
ENDBRANCH   4  18
TORSDOF 6
ENDMDL
MODEL 4
REMARK VINA RESULT:    -6.898      4.505      9.517
REMARK INTER + INTRA:         -10.455
REMARK INTER:                  -9.651
REMARK INTRA:                  -0.804
REMARK UNBOUND:                -1.137
REMARK  Name = 
REMARK  6 active torsions:
REMARK  status: ('A' for Active; 'I' for Inactive)
REMARK    1  A    between atoms: C_2  and  C_25
REMARK    2  A    between atoms: N_3  and  C_4
REMARK    3  A    between atoms: C_4  and  C_5
REMARK    4  A    between atoms: C_8  and  C_9
REMARK    5  A    between atoms: C_9  and  N_10
REMARK    6  A    between atoms: C_11  and  C_13
REMARK                            x       y       z     vdW  Elec       q    Type
REMARK                         _______ _______ _______ _____ _____    ______ ____
ROOT
ATOM      1  C   UNL     1      51.323   3.157  17.769  0.00  0.00    +0.000 A 
ATOM      2  C   UNL     1      50.621   4.289  18.176  0.00  0.00    +0.000 A 
ATOM      3  C   UNL     1      49.257   4.378  17.904  0.00  0.00    +0.000 A 
ATOM      4  C   UNL     1      48.613   3.335  17.237  0.00  0.00    +0.000 A 
ATOM      5  C   UNL     1      49.398   2.257  16.843  0.00  0.00    +0.000 A 
ATOM      6  N   UNL     1      50.726   2.143  17.094  0.00  0.00    +0.000 NA
ENDROOT
BRANCH   1   7
ATOM      7  C   UNL     1      52.802   3.027  18.067  0.00  0.00    +0.000 C 
BRANCH   7  10
ATOM      8  O   UNL     1      54.708   1.336  16.850  0.00  0.00    +0.000 OA
ATOM      9  C   UNL     1      54.117   0.952  17.858  0.00  0.00    +0.000 C 
ATOM     10  N   UNL     1      53.181   1.708  18.517  0.00  0.00    +0.000 N 
ATOM     11  H   UNL     1      52.687   1.269  19.287  0.00  0.00    +0.000 HD
BRANCH   9  12
ATOM     12  C   UNL     1      54.366  -0.354  18.471  0.00  0.00    +0.000 A 
ATOM     13  C   UNL     1      55.597  -0.971  18.592  0.00  0.00    +0.000 A 
ATOM     14  N   UNL     1      55.360  -2.138  19.261  0.00  0.00    +0.000 N 
ATOM     15  C   UNL     1      54.020  -2.204  19.513  0.00  0.00    +0.000 A 
ATOM     16  N   UNL     1      53.386  -1.151  19.043  0.00  0.00    +0.000 NA
ATOM     17  H   UNL     1      56.052  -2.824  19.532  0.00  0.00    +0.000 HD
ENDBRANCH   9  12
ENDBRANCH   7  10
ENDBRANCH   1   7
BRANCH   4  18
ATOM     18  C   UNL     1      47.145   3.385  16.922  0.00  0.00    +0.000 C 
BRANCH  18  19
ATOM     19  N   UNL     1      46.847   4.402  15.944  0.00  0.00    +0.000 N 
ATOM     20  C   UNL     1      46.970   4.159  14.599  0.00  0.00    +0.000 C 
ATOM     21  O   UNL     1      47.265   3.050  14.162  0.00  0.00    +0.000 OA
ATOM     22  H   UNL     1      46.813   5.362  16.272  0.00  0.00    +0.000 HD
BRANCH  20  23
ATOM     23  C   UNL     1      46.677   5.285  13.702  0.00  0.00    +0.000 A 
ATOM     24  C   UNL     1      47.629   6.274  13.497  0.00  0.00    +0.000 A 
ATOM     25  S   UNL     1      47.131   7.487  12.404  0.00  0.00    +0.000 S 
ATOM     26  C   UNL     1      45.608   6.756  12.201  0.00  0.00    +0.000 A 
ATOM     27  N   UNL     1      44.665   7.311  11.394  0.00  0.00    +0.000 NA
ATOM     28  C   UNL     1      43.549   6.662  11.350  0.00  0.00    +0.000 A 
ATOM     29  N   UNL     1      43.293   5.504  12.039  0.00  0.00    +0.000 N 
ATOM     30  C   UNL     1      44.221   4.894  12.847  0.00  0.00    +0.000 A 
ATOM     31  O   UNL     1      43.976   3.838  13.418  0.00  0.00    +0.000 OA
ATOM     32  C   UNL     1      45.490   5.592  12.940  0.00  0.00    +0.000 A 
ATOM     33  H   UNL     1      42.403   5.036  11.953  0.00  0.00    +0.000 HD
ENDBRANCH  20  23
ENDBRANCH  18  19
ENDBRANCH   4  18
TORSDOF 6
ENDMDL
MODEL 5
REMARK VINA RESULT:    -6.861      3.723      8.163
REMARK INTER + INTRA:         -10.404
REMARK INTER:                  -9.539
REMARK INTRA:                  -0.865
REMARK UNBOUND:                -1.137
REMARK  Name = 
REMARK  6 active torsions:
REMARK  status: ('A' for Active; 'I' for Inactive)
REMARK    1  A    between atoms: C_2  and  C_25
REMARK    2  A    between atoms: N_3  and  C_4
REMARK    3  A    between atoms: C_4  and  C_5
REMARK    4  A    between atoms: C_8  and  C_9
REMARK    5  A    between atoms: C_9  and  N_10
REMARK    6  A    between atoms: C_11  and  C_13
REMARK                            x       y       z     vdW  Elec       q    Type
REMARK                         _______ _______ _______ _____ _____    ______ ____
ROOT
ATOM      1  C   UNL     1      49.950   6.981  15.889  0.00  0.00    +0.000 A 
ATOM      2  C   UNL     1      48.680   6.511  15.557  0.00  0.00    +0.000 A 
ATOM      3  C   UNL     1      48.134   6.844  14.320  0.00  0.00    +0.000 A 
ATOM      4  C   UNL     1      48.862   7.635  13.430  0.00  0.00    +0.000 A 
ATOM      5  C   UNL     1      50.107   8.083  13.856  0.00  0.00    +0.000 A 
ATOM      6  N   UNL     1      50.666   7.774  15.053  0.00  0.00    +0.000 NA
ENDROOT
BRANCH   1   7
ATOM      7  C   UNL     1      50.574   6.618  17.221  0.00  0.00    +0.000 C 
BRANCH   7  10
ATOM      8  O   UNL     1      49.318   4.249  18.106  0.00  0.00    +0.000 OA
ATOM      9  C   UNL     1      50.474   4.199  17.691  0.00  0.00    +0.000 C 
ATOM     10  N   UNL     1      51.160   5.298  17.236  0.00  0.00    +0.000 N 
ATOM     11  H   UNL     1      52.137   5.169  16.995  0.00  0.00    +0.000 HD
BRANCH   9  12
ATOM     12  C   UNL     1      51.237   2.952  17.621  0.00  0.00    +0.000 A 
ATOM     13  C   UNL     1      50.741   1.719  17.241  0.00  0.00    +0.000 A 
ATOM     14  N   UNL     1      51.806   0.865  17.281  0.00  0.00    +0.000 N 
ATOM     15  C   UNL     1      52.894   1.582  17.687  0.00  0.00    +0.000 A 
ATOM     16  N   UNL     1      52.588   2.843  17.911  0.00  0.00    +0.000 NA
ATOM     17  H   UNL     1      51.795  -0.117  17.043  0.00  0.00    +0.000 HD
ENDBRANCH   9  12
ENDBRANCH   7  10
ENDBRANCH   1   7
BRANCH   4  18
ATOM     18  C   UNL     1      48.315   8.021  12.085  0.00  0.00    +0.000 C 
BRANCH  18  19
ATOM     19  N   UNL     1      47.605   6.928  11.467  0.00  0.00    +0.000 N 
ATOM     20  C   UNL     1      46.233   6.904  11.418  0.00  0.00    +0.000 C 
ATOM     21  O   UNL     1      45.551   7.839  11.826  0.00  0.00    +0.000 OA
ATOM     22  H   UNL     1      48.121   6.066  11.322  0.00  0.00    +0.000 HD
BRANCH  20  23
ATOM     23  C   UNL     1      45.623   5.720  10.799  0.00  0.00    +0.000 A 
ATOM     24  C   UNL     1      45.757   5.505   9.434  0.00  0.00    +0.000 A 
ATOM     25  S   UNL     1      45.011   4.069   8.892  0.00  0.00    +0.000 S 
ATOM     26  C   UNL     1      44.445   3.707  10.455  0.00  0.00    +0.000 A 
ATOM     27  N   UNL     1      43.695   2.597  10.690  0.00  0.00    +0.000 NA
ATOM     28  C   UNL     1      43.316   2.459  11.917  0.00  0.00    +0.000 A 
ATOM     29  N   UNL     1      43.623   3.329  12.932  0.00  0.00    +0.000 N 
ATOM     30  C   UNL     1      44.396   4.449  12.747  0.00  0.00    +0.000 A 
ATOM     31  O   UNL     1      44.687   5.187  13.681  0.00  0.00    +0.000 OA
ATOM     32  C   UNL     1      44.837   4.658  11.381  0.00  0.00    +0.000 A 
ATOM     33  H   UNL     1      43.307   3.158  13.875  0.00  0.00    +0.000 HD
ENDBRANCH  20  23
ENDBRANCH  18  19
ENDBRANCH   4  18
TORSDOF 6
ENDMDL
MODEL 6
REMARK VINA RESULT:    -6.744      3.057      8.593
REMARK INTER + INTRA:         -10.246
REMARK INTER:                  -9.292
REMARK INTRA:                  -0.954
REMARK UNBOUND:                -1.137
REMARK  Name = 
REMARK  6 active torsions:
REMARK  status: ('A' for Active; 'I' for Inactive)
REMARK    1  A    between atoms: C_2  and  C_25
REMARK    2  A    between atoms: N_3  and  C_4
REMARK    3  A    between atoms: C_4  and  C_5
REMARK    4  A    between atoms: C_8  and  C_9
REMARK    5  A    between atoms: C_9  and  N_10
REMARK    6  A    between atoms: C_11  and  C_13
REMARK                            x       y       z     vdW  Elec       q    Type
REMARK                         _______ _______ _______ _____ _____    ______ ____
ROOT
ATOM      1  C   UNL     1      50.036   7.472  15.165  0.00  0.00    +0.000 A 
ATOM      2  C   UNL     1      50.583   7.742  13.911  0.00  0.00    +0.000 A 
ATOM      3  C   UNL     1      49.736   7.866  12.812  0.00  0.00    +0.000 A 
ATOM      4  C   UNL     1      48.357   7.725  12.978  0.00  0.00    +0.000 A 
ATOM      5  C   UNL     1      47.903   7.428  14.259  0.00  0.00    +0.000 A 
ATOM      6  N   UNL     1      48.703   7.303  15.347  0.00  0.00    +0.000 NA
ENDROOT
BRANCH   1   7
ATOM      7  C   UNL     1      50.933   7.351  16.379  0.00  0.00    +0.000 C 
BRANCH   7  10
ATOM      8  O   UNL     1      49.575   5.550  18.078  0.00  0.00    +0.000 OA
ATOM      9  C   UNL     1      50.604   5.186  17.512  0.00  0.00    +0.000 C 
ATOM     10  N   UNL     1      51.325   5.990  16.666  0.00  0.00    +0.000 N 
ATOM     11  H   UNL     1      52.205   5.627  16.316  0.00  0.00    +0.000 HD
BRANCH   9  12
ATOM     12  C   UNL     1      51.159   3.841  17.670  0.00  0.00    +0.000 A 
ATOM     13  C   UNL     1      52.229   3.495  18.476  0.00  0.00    +0.000 A 
ATOM     14  N   UNL     1      52.365   2.142  18.346  0.00  0.00    +0.000 N 
ATOM     15  C   UNL     1      51.405   1.712  17.477  0.00  0.00    +0.000 A 
ATOM     16  N   UNL     1      50.664   2.709  17.041  0.00  0.00    +0.000 NA
ATOM     17  H   UNL     1      53.046   1.562  18.818  0.00  0.00    +0.000 HD
ENDBRANCH   9  12
ENDBRANCH   7  10
ENDBRANCH   1   7
BRANCH   4  18
ATOM     18  C   UNL     1      47.405   7.849  11.824  0.00  0.00    +0.000 C 
BRANCH  18  19
ATOM     19  N   UNL     1      46.737   6.600  11.550  0.00  0.00    +0.000 N 
ATOM     20  C   UNL     1      45.367   6.510  11.534  0.00  0.00    +0.000 C 
ATOM     21  O   UNL     1      44.648   7.495  11.676  0.00  0.00    +0.000 OA
ATOM     22  H   UNL     1      47.288   5.753  11.643  0.00  0.00    +0.000 HD
BRANCH  20  23
ATOM     23  C   UNL     1      44.803   5.177  11.283  0.00  0.00    +0.000 A 
ATOM     24  C   UNL     1      44.034   4.555  12.258  0.00  0.00    +0.000 A 
ATOM     25  S   UNL     1      43.437   3.028  11.786  0.00  0.00    +0.000 S 
ATOM     26  C   UNL     1      44.222   3.125  10.280  0.00  0.00    +0.000 A 
ATOM     27  N   UNL     1      44.139   2.109   9.379  0.00  0.00    +0.000 NA
ATOM     28  C   UNL     1      44.801   2.308   8.288  0.00  0.00    +0.000 A 
ATOM     29  N   UNL     1      45.536   3.434   8.015  0.00  0.00    +0.000 N 
ATOM     30  C   UNL     1      45.629   4.493   8.882  0.00  0.00    +0.000 A 
ATOM     31  O   UNL     1      46.260   5.503   8.594  0.00  0.00    +0.000 OA
ATOM     32  C   UNL     1      44.913   4.315  10.131  0.00  0.00    +0.000 A 
ATOM     33  H   UNL     1      46.021   3.535   7.135  0.00  0.00    +0.000 HD
ENDBRANCH  20  23
ENDBRANCH  18  19
ENDBRANCH   4  18
TORSDOF 6
ENDMDL
MODEL 7
REMARK VINA RESULT:    -6.692      3.266      5.200
REMARK INTER + INTRA:         -10.177
REMARK INTER:                  -9.374
REMARK INTRA:                  -0.803
REMARK UNBOUND:                -1.137
REMARK  Name = 
REMARK  6 active torsions:
REMARK  status: ('A' for Active; 'I' for Inactive)
REMARK    1  A    between atoms: C_2  and  C_25
REMARK    2  A    between atoms: N_3  and  C_4
REMARK    3  A    between atoms: C_4  and  C_5
REMARK    4  A    between atoms: C_8  and  C_9
REMARK    5  A    between atoms: C_9  and  N_10
REMARK    6  A    between atoms: C_11  and  C_13
REMARK                            x       y       z     vdW  Elec       q    Type
REMARK                         _______ _______ _______ _____ _____    ______ ____
ROOT
ATOM      1  C   UNL     1      47.438   5.784  14.012  0.00  0.00    +0.000 A 
ATOM      2  C   UNL     1      46.791   4.560  14.173  0.00  0.00    +0.000 A 
ATOM      3  C   UNL     1      46.979   3.842  15.352  0.00  0.00    +0.000 A 
ATOM      4  C   UNL     1      47.803   4.355  16.354  0.00  0.00    +0.000 A 
ATOM      5  C   UNL     1      48.431   5.569  16.095  0.00  0.00    +0.000 A 
ATOM      6  N   UNL     1      48.267   6.291  14.959  0.00  0.00    +0.000 NA
ENDROOT
BRANCH   1   7
ATOM      7  C   UNL     1      47.237   6.593  12.748  0.00  0.00    +0.000 C 
BRANCH   7  10
ATOM      8  O   UNL     1      44.742   6.904  11.462  0.00  0.00    +0.000 OA
ATOM      9  C   UNL     1      45.513   6.027  11.077  0.00  0.00    +0.000 C 
ATOM     10  N   UNL     1      46.746   5.808  11.639  0.00  0.00    +0.000 N 
ATOM     11  H   UNL     1      47.272   5.005  11.308  0.00  0.00    +0.000 HD
BRANCH   9  12
ATOM     12  C   UNL     1      45.200   5.132   9.963  0.00  0.00    +0.000 A 
ATOM     13  C   UNL     1      44.124   4.265   9.896  0.00  0.00    +0.000 A 
ATOM     14  N   UNL     1      44.205   3.671   8.670  0.00  0.00    +0.000 N 
ATOM     15  C   UNL     1      45.309   4.170   8.041  0.00  0.00    +0.000 A 
ATOM     16  N   UNL     1      45.940   5.047   8.794  0.00  0.00    +0.000 NA
ATOM     17  H   UNL     1      43.559   2.992   8.290  0.00  0.00    +0.000 HD
ENDBRANCH   9  12
ENDBRANCH   7  10
ENDBRANCH   1   7
BRANCH   4  18
ATOM     18  C   UNL     1      48.037   3.618  17.641  0.00  0.00    +0.000 C 
BRANCH  18  19
ATOM     19  N   UNL     1      49.440   3.362  17.859  0.00  0.00    +0.000 N 
ATOM     20  C   UNL     1      50.105   2.385  17.160  0.00  0.00    +0.000 C 
ATOM     21  O   UNL     1      49.563   1.739  16.268  0.00  0.00    +0.000 OA
ATOM     22  H   UNL     1      49.847   3.721  18.717  0.00  0.00    +0.000 HD
BRANCH  20  23
ATOM     23  C   UNL     1      51.521   2.190  17.498  0.00  0.00    +0.000 A 
ATOM     24  C   UNL     1      52.022   0.907  17.673  0.00  0.00    +0.000 A 
ATOM     25  S   UNL     1      53.690   0.867  18.031  0.00  0.00    +0.000 S 
ATOM     26  C   UNL     1      53.792   2.565  18.009  0.00  0.00    +0.000 A 
ATOM     27  N   UNL     1      54.966   3.200  18.267  0.00  0.00    +0.000 NA
ATOM     28  C   UNL     1      54.893   4.490  18.238  0.00  0.00    +0.000 A 
ATOM     29  N   UNL     1      53.752   5.201  17.969  0.00  0.00    +0.000 N 
ATOM     30  C   UNL     1      52.551   4.603  17.679  0.00  0.00    +0.000 A 
ATOM     31  O   UNL     1      51.557   5.265  17.403  0.00  0.00    +0.000 OA
ATOM     32  C   UNL     1      52.575   3.153  17.712  0.00  0.00    +0.000 A 
ATOM     33  H   UNL     1      53.763   6.210  17.947  0.00  0.00    +0.000 HD
ENDBRANCH  20  23
ENDBRANCH  18  19
ENDBRANCH   4  18
TORSDOF 6
ENDMDL
MODEL 8
REMARK VINA RESULT:    -6.567      4.776      9.146
REMARK INTER + INTRA:         -10.007
REMARK INTER:                  -8.888
REMARK INTRA:                  -1.119
REMARK UNBOUND:                -1.137
REMARK  Name = 
REMARK  6 active torsions:
REMARK  status: ('A' for Active; 'I' for Inactive)
REMARK    1  A    between atoms: C_2  and  C_25
REMARK    2  A    between atoms: N_3  and  C_4
REMARK    3  A    between atoms: C_4  and  C_5
REMARK    4  A    between atoms: C_8  and  C_9
REMARK    5  A    between atoms: C_9  and  N_10
REMARK    6  A    between atoms: C_11  and  C_13
REMARK                            x       y       z     vdW  Elec       q    Type
REMARK                         _______ _______ _______ _____ _____    ______ ____
ROOT
ATOM      1  C   UNL     1      51.421   2.905  17.665  0.00  0.00    +0.000 A 
ATOM      2  C   UNL     1      50.821   4.086  18.098  0.00  0.00    +0.000 A 
ATOM      3  C   UNL     1      49.468   4.295  17.842  0.00  0.00    +0.000 A 
ATOM      4  C   UNL     1      48.731   3.323  17.164  0.00  0.00    +0.000 A 
ATOM      5  C   UNL     1      49.418   2.189  16.744  0.00  0.00    +0.000 A 
ATOM      6  N   UNL     1      50.733   1.957  16.979  0.00  0.00    +0.000 NA
ENDROOT
BRANCH   1   7
ATOM      7  C   UNL     1      52.886   2.644  17.946  0.00  0.00    +0.000 C 
BRANCH   7  10
ATOM      8  O   UNL     1      54.347   0.705  19.388  0.00  0.00    +0.000 OA
ATOM      9  C   UNL     1      54.059   0.491  18.212  0.00  0.00    +0.000 C 
ATOM     10  N   UNL     1      53.348   1.373  17.437  0.00  0.00    +0.000 N 
ATOM     11  H   UNL     1      53.236   1.144  16.455  0.00  0.00    +0.000 HD
BRANCH   9  12
ATOM     12  C   UNL     1      54.433  -0.742  17.517  0.00  0.00    +0.000 A 
ATOM     13  C   UNL     1      54.502  -2.002  18.083  0.00  0.00    +0.000 A 
ATOM     14  N   UNL     1      54.843  -2.845  17.064  0.00  0.00    +0.000 N 
ATOM     15  C   UNL     1      54.981  -2.092  15.934  0.00  0.00    +0.000 A 
ATOM     16  N   UNL     1      54.749  -0.818  16.170  0.00  0.00    +0.000 NA
ATOM     17  H   UNL     1      54.962  -3.846  17.131  0.00  0.00    +0.000 HD
ENDBRANCH   9  12
ENDBRANCH   7  10
ENDBRANCH   1   7
BRANCH   4  18
ATOM     18  C   UNL     1      47.271   3.503  16.865  0.00  0.00    +0.000 C 
BRANCH  18  19
ATOM     19  N   UNL     1      47.054   4.534  15.879  0.00  0.00    +0.000 N 
ATOM     20  C   UNL     1      47.072   4.253  14.536  0.00  0.00    +0.000 C 
ATOM     21  O   UNL     1      47.196   3.108  14.111  0.00  0.00    +0.000 OA
ATOM     22  H   UNL     1      47.163   5.495  16.186  0.00  0.00    +0.000 HD
BRANCH  20  23
ATOM     23  C   UNL     1      46.879   5.392  13.628  0.00  0.00    +0.000 A 
ATOM     24  C   UNL     1      45.807   5.401  12.746  0.00  0.00    +0.000 A 
ATOM     25  S   UNL     1      45.720   6.812  11.789  0.00  0.00    +0.000 S 
ATOM     26  C   UNL     1      47.137   7.441  12.490  0.00  0.00    +0.000 A 
ATOM     27  N   UNL     1      47.644   8.639  12.093  0.00  0.00    +0.000 NA
ATOM     28  C   UNL     1      48.735   8.982  12.694  0.00  0.00    +0.000 A 
ATOM     29  N   UNL     1      49.363   8.237  13.659  0.00  0.00    +0.000 N 
ATOM     30  C   UNL     1      48.876   7.034  14.107  0.00  0.00    +0.000 A 
ATOM     31  O   UNL     1      49.438   6.409  14.999  0.00  0.00    +0.000 OA
ATOM     32  C   UNL     1      47.657   6.595  13.454  0.00  0.00    +0.000 A 
ATOM     33  H   UNL     1      50.208   8.568  14.101  0.00  0.00    +0.000 HD
ENDBRANCH  20  23
ENDBRANCH  18  19
ENDBRANCH   4  18
TORSDOF 6
ENDMDL
MODEL 9
REMARK VINA RESULT:    -6.474      3.635      4.409
REMARK INTER + INTRA:          -9.882
REMARK INTER:                  -8.865
REMARK INTRA:                  -1.017
REMARK UNBOUND:                -1.137
REMARK  Name = 
REMARK  6 active torsions:
REMARK  status: ('A' for Active; 'I' for Inactive)
REMARK    1  A    between atoms: C_2  and  C_25
REMARK    2  A    between atoms: N_3  and  C_4
REMARK    3  A    between atoms: C_4  and  C_5
REMARK    4  A    between atoms: C_8  and  C_9
REMARK    5  A    between atoms: C_9  and  N_10
REMARK    6  A    between atoms: C_11  and  C_13
REMARK                            x       y       z     vdW  Elec       q    Type
REMARK                         _______ _______ _______ _____ _____    ______ ____
ROOT
ATOM      1  C   UNL     1      44.770   4.913  10.793  0.00  0.00    +0.000 A 
ATOM      2  C   UNL     1      44.057   5.150  11.967  0.00  0.00    +0.000 A 
ATOM      3  C   UNL     1      44.368   6.267  12.739  0.00  0.00    +0.000 A 
ATOM      4  C   UNL     1      45.381   7.135  12.328  0.00  0.00    +0.000 A 
ATOM      5  C   UNL     1      46.059   6.805  11.160  0.00  0.00    +0.000 A 
ATOM      6  N   UNL     1      45.778   5.726  10.387  0.00  0.00    +0.000 NA
ENDROOT
BRANCH   1   7
ATOM      7  C   UNL     1      44.440   3.716   9.927  0.00  0.00    +0.000 C 
BRANCH   7  10
ATOM      8  O   UNL     1      45.505   1.298   8.930  0.00  0.00    +0.000 OA
ATOM      9  C   UNL     1      45.792   2.357   8.375  0.00  0.00    +0.000 C 
ATOM     10  N   UNL     1      45.317   3.577   8.787  0.00  0.00    +0.000 N 
ATOM     11  H   UNL     1      45.679   4.400   8.317  0.00  0.00    +0.000 HD
BRANCH   9  12
ATOM     12  C   UNL     1      46.661   2.424   7.200  0.00  0.00    +0.000 A 
ATOM     13  C   UNL     1      47.825   1.702   7.010  0.00  0.00    +0.000 A 
ATOM     14  N   UNL     1      48.274   2.047   5.768  0.00  0.00    +0.000 N 
ATOM     15  C   UNL     1      47.399   2.958   5.251  0.00  0.00    +0.000 A 
ATOM     16  N   UNL     1      46.418   3.217   6.089  0.00  0.00    +0.000 NA
ATOM     17  H   UNL     1      49.099   1.686   5.308  0.00  0.00    +0.000 HD
ENDBRANCH   9  12
ENDBRANCH   7  10
ENDBRANCH   1   7
BRANCH   4  18
ATOM     18  C   UNL     1      45.753   8.351  13.126  0.00  0.00    +0.000 C 
BRANCH  18  19
ATOM     19  N   UNL     1      47.060   8.843  12.766  0.00  0.00    +0.000 N 
ATOM     20  C   UNL     1      47.990   9.167  13.723  0.00  0.00    +0.000 C 
ATOM     21  O   UNL     1      47.785   8.983  14.919  0.00  0.00    +0.000 OA
ATOM     22  H   UNL     1      47.175   9.200  11.823  0.00  0.00    +0.000 HD
BRANCH  20  23
ATOM     23  C   UNL     1      49.271   9.695  13.235  0.00  0.00    +0.000 A 
ATOM     24  C   UNL     1      49.631  11.007  13.515  0.00  0.00    +0.000 A 
ATOM     25  S   UNL     1      51.161  11.442  12.898  0.00  0.00    +0.000 S 
ATOM     26  C   UNL     1      51.377   9.907  12.198  0.00  0.00    +0.000 A 
ATOM     27  N   UNL     1      52.496   9.613  11.484  0.00  0.00    +0.000 NA
ATOM     28  C   UNL     1      52.517   8.419  10.991  0.00  0.00    +0.000 A 
ATOM     29  N   UNL     1      51.521   7.491  11.152  0.00  0.00    +0.000 N 
ATOM     30  C   UNL     1      50.385   7.734  11.884  0.00  0.00    +0.000 A 
ATOM     31  O   UNL     1      49.529   6.871  12.044  0.00  0.00    +0.000 OA
ATOM     32  C   UNL     1      50.306   9.068  12.449  0.00  0.00    +0.000 A 
ATOM     33  H   UNL     1      51.603   6.567  10.753  0.00  0.00    +0.000 HD
ENDBRANCH  20  23
ENDBRANCH  18  19
ENDBRANCH   4  18
TORSDOF 6
ENDMDL
