MODEL 1
REMARK VINA RESULT:    -8.818      0.000      0.000
REMARK INTER + INTRA:         -13.373
REMARK INTER:                 -12.168
REMARK INTRA:                  -1.205
REMARK UNBOUND:                -1.205
REMARK  Name = 
REMARK  7 active torsions:
REMARK  status: ('A' for Active; 'I' for Inactive)
REMARK    1  A    between atoms: N_1  and  C_2
REMARK    2  A    between atoms: C_2  and  N_3
REMARK    3  A    between atoms: C_2  and  C_16
REMARK    4  A    between atoms: C_4  and  C_6
REMARK    5  A    between atoms: C_19  and  O_20
REMARK    6  A    between atoms: O_20  and  C_21
REMARK    7  A    between atoms: C_21  and  C_22
REMARK                            x       y       z     vdW  Elec       q    Type
REMARK                         _______ _______ _______ _____ _____    ______ ____
ROOT
ATOM      1  C   UNL     1      47.012   7.072  13.093  0.00  0.00    +0.000 C 
ENDROOT
BRANCH   1   2
ATOM      2  C   UNL     1      46.263   6.050  12.264  0.00  0.00    +0.000 A 
ATOM      3  C   UNL     1      46.021   6.313  10.902  0.00  0.00    +0.000 A 
ATOM      4  C   UNL     1      45.347   5.394  10.095  0.00  0.00    +0.000 A 
ATOM      5  C   UNL     1      44.915   4.183  10.633  0.00  0.00    +0.000 A 
ATOM      6  C   UNL     1      45.116   3.924  11.990  0.00  0.00    +0.000 A 
ATOM      7  C   UNL     1      45.796   4.840  12.791  0.00  0.00    +0.000 A 
BRANCH   5   8
ATOM      8  O   UNL     1      44.317   3.314   9.758  0.00  0.00    +0.000 OA
BRANCH   8   9
ATOM      9  C   UNL     1      44.641   3.553   8.388  0.00  0.00    +0.000 C 
BRANCH   9  10
ATOM     10  C   UNL     1      45.831   2.746   7.941  0.00  0.00    +0.000 A 
ATOM     11  C   UNL     1      45.931   1.375   8.175  0.00  0.00    +0.000 A 
ATOM     12  C   UNL     1      47.010   0.689   7.645  0.00  0.00    +0.000 A 
ATOM     13  N   UNL     1      47.977   1.264   6.901  0.00  0.00    +0.000 NA
ATOM     14  C   UNL     1      47.860   2.592   6.677  0.00  0.00    +0.000 A 
ATOM     15  C   UNL     1      46.824   3.366   7.166  0.00  0.00    +0.000 A 
ENDBRANCH   9  10
ENDBRANCH   8   9
ENDBRANCH   5   8
ENDBRANCH   1   2
BRANCH   1  16
ATOM     16  N   UNL     1      47.367   6.640  14.408  0.00  0.00    +0.000 N 
ATOM     17  C   UNL     1      48.673   6.600  14.824  0.00  0.00    +0.000 C 
ATOM     18  O   UNL     1      49.606   6.944  14.105  0.00  0.00    +0.000 OA
ATOM     19  H   UNL     1      46.675   6.098  14.909  0.00  0.00    +0.000 HD
BRANCH  17  20
ATOM     20  C   UNL     1      48.899   6.194  16.218  0.00  0.00    +0.000 A 
ATOM     21  C   UNL     1      49.548   7.066  17.083  0.00  0.00    +0.000 A 
ATOM     22  S   UNL     1      49.690   6.476  18.674  0.00  0.00    +0.000 S 
ATOM     23  C   UNL     1      48.935   5.010  18.256  0.00  0.00    +0.000 A 
ATOM     24  N   UNL     1      48.765   4.025  19.177  0.00  0.00    +0.000 NA
ATOM     25  C   UNL     1      48.214   2.952  18.716  0.00  0.00    +0.000 A 
ATOM     26  N   UNL     1      47.805   2.781  17.418  0.00  0.00    +0.000 N 
ATOM     27  C   UNL     1      47.911   3.767  16.465  0.00  0.00    +0.000 A 
ATOM     28  O   UNL     1      47.471   3.615  15.330  0.00  0.00    +0.000 OA
ATOM     29  C   UNL     1      48.556   4.983  16.925  0.00  0.00    +0.000 A 
ATOM     30  H   UNL     1      47.364   1.921  17.129  0.00  0.00    +0.000 HD
ENDBRANCH  17  20
ENDBRANCH   1  16
BRANCH   1  31
ATOM     31  N   UNL     1      46.177   8.224  13.358  0.00  0.00    +0.000 NA
ATOM     32  H   UNL     1      46.470   8.610  14.250  0.00  0.00    +0.000 HD
ATOM     33  H   UNL     1      45.220   7.904  13.472  0.00  0.00    +0.000 HD
ENDBRANCH   1  31
TORSDOF 7
ENDMDL
MODEL 2
REMARK VINA RESULT:    -8.089      1.779      3.340
REMARK INTER + INTRA:         -12.367
REMARK INTER:                 -11.401
REMARK INTRA:                  -0.966
REMARK UNBOUND:                -1.205
REMARK  Name = 
REMARK  7 active torsions:
REMARK  status: ('A' for Active; 'I' for Inactive)
REMARK    1  A    between atoms: N_1  and  C_2
REMARK    2  A    between atoms: C_2  and  N_3
REMARK    3  A    between atoms: C_2  and  C_16
REMARK    4  A    between atoms: C_4  and  C_6
REMARK    5  A    between atoms: C_19  and  O_20
REMARK    6  A    between atoms: O_20  and  C_21
REMARK    7  A    between atoms: C_21  and  C_22
REMARK                            x       y       z     vdW  Elec       q    Type
REMARK                         _______ _______ _______ _____ _____    ______ ____
ROOT
ATOM      1  C   UNL     1      46.556   4.354  14.493  0.00  0.00    +0.000 C 
ENDROOT
BRANCH   1   2
ATOM      2  C   UNL     1      46.039   4.399  13.070  0.00  0.00    +0.000 A 
ATOM      3  C   UNL     1      46.242   5.562  12.301  0.00  0.00    +0.000 A 
ATOM      4  C   UNL     1      45.796   5.644  10.981  0.00  0.00    +0.000 A 
ATOM      5  C   UNL     1      45.151   4.555  10.396  0.00  0.00    +0.000 A 
ATOM      6  C   UNL     1      44.910   3.410  11.158  0.00  0.00    +0.000 A 
ATOM      7  C   UNL     1      45.364   3.328  12.473  0.00  0.00    +0.000 A 
BRANCH   5   8
ATOM      8  O   UNL     1      44.800   4.698   9.079  0.00  0.00    +0.000 OA
BRANCH   8   9
ATOM      9  C   UNL     1      44.503   3.465   8.420  0.00  0.00    +0.000 C 
BRANCH   9  10
ATOM     10  C   UNL     1      45.746   2.784   7.913  0.00  0.00    +0.000 A 
ATOM     11  C   UNL     1      46.030   1.448   8.194  0.00  0.00    +0.000 A 
ATOM     12  C   UNL     1      47.142   0.869   7.608  0.00  0.00    +0.000 A 
ATOM     13  N   UNL     1      47.974   1.517   6.767  0.00  0.00    +0.000 NA
ATOM     14  C   UNL     1      47.679   2.809   6.499  0.00  0.00    +0.000 A 
ATOM     15  C   UNL     1      46.596   3.478   7.037  0.00  0.00    +0.000 A 
ENDBRANCH   9  10
ENDBRANCH   8   9
ENDBRANCH   5   8
ENDBRANCH   1   2
BRANCH   1  16
ATOM     16  N   UNL     1      47.315   5.497  14.895  0.00  0.00    +0.000 N 
ATOM     17  C   UNL     1      48.036   5.507  16.061  0.00  0.00    +0.000 C 
ATOM     18  O   UNL     1      48.085   4.541  16.816  0.00  0.00    +0.000 OA
ATOM     19  H   UNL     1      47.076   6.377  14.458  0.00  0.00    +0.000 HD
BRANCH  17  20
ATOM     20  C   UNL     1      48.821   6.719  16.330  0.00  0.00    +0.000 A 
ATOM     21  C   UNL     1      48.909   7.197  17.632  0.00  0.00    +0.000 A 
ATOM     22  S   UNL     1      49.895   8.577  17.792  0.00  0.00    +0.000 S 
ATOM     23  C   UNL     1      50.201   8.619  16.118  0.00  0.00    +0.000 A 
ATOM     24  N   UNL     1      50.971   9.597  15.574  0.00  0.00    +0.000 NA
ATOM     25  C   UNL     1      51.090   9.531  14.290  0.00  0.00    +0.000 A 
ATOM     26  N   UNL     1      50.517   8.566  13.502  0.00  0.00    +0.000 N 
ATOM     27  C   UNL     1      49.771   7.530  14.014  0.00  0.00    +0.000 A 
ATOM     28  O   UNL     1      49.331   6.638  13.296  0.00  0.00    +0.000 OA
ATOM     29  C   UNL     1      49.579   7.577  15.451  0.00  0.00    +0.000 A 
ATOM     30  H   UNL     1      50.664   8.565  12.504  0.00  0.00    +0.000 HD
ENDBRANCH  17  20
ENDBRANCH   1  16
BRANCH   1  31
ATOM     31  N   UNL     1      47.505   3.275  14.657  0.00  0.00    +0.000 NA
ATOM     32  H   UNL     1      47.003   2.405  14.507  0.00  0.00    +0.000 HD
ATOM     33  H   UNL     1      47.822   3.273  15.622  0.00  0.00    +0.000 HD
ENDBRANCH   1  31
TORSDOF 7
ENDMDL
MODEL 3
REMARK VINA RESULT:    -8.051      2.147      2.926
REMARK INTER + INTRA:         -12.315
REMARK INTER:                 -11.216
REMARK INTRA:                  -1.099
REMARK UNBOUND:                -1.205
REMARK  Name = 
REMARK  7 active torsions:
REMARK  status: ('A' for Active; 'I' for Inactive)
REMARK    1  A    between atoms: N_1  and  C_2
REMARK    2  A    between atoms: C_2  and  N_3
REMARK    3  A    between atoms: C_2  and  C_16
REMARK    4  A    between atoms: C_4  and  C_6
REMARK    5  A    between atoms: C_19  and  O_20
REMARK    6  A    between atoms: O_20  and  C_21
REMARK    7  A    between atoms: C_21  and  C_22
REMARK                            x       y       z     vdW  Elec       q    Type
REMARK                         _______ _______ _______ _____ _____    ______ ____
ROOT
ATOM      1  C   UNL     1      46.718   4.458  14.559  0.00  0.00    +0.000 C 
ENDROOT
BRANCH   1   2
ATOM      2  C   UNL     1      46.200   4.513  13.137  0.00  0.00    +0.000 A 
ATOM      3  C   UNL     1      46.451   5.658  12.358  0.00  0.00    +0.000 A 
ATOM      4  C   UNL     1      46.004   5.748  11.038  0.00  0.00    +0.000 A 
ATOM      5  C   UNL     1      45.311   4.683  10.465  0.00  0.00    +0.000 A 
ATOM      6  C   UNL     1      45.023   3.556  11.238  0.00  0.00    +0.000 A 
ATOM      7  C   UNL     1      45.477   3.466  12.553  0.00  0.00    +0.000 A 
BRANCH   5   8
ATOM      8  O   UNL     1      44.962   4.829   9.148  0.00  0.00    +0.000 OA
BRANCH   8   9
ATOM      9  C   UNL     1      44.570   3.611   8.512  0.00  0.00    +0.000 C 
BRANCH   9  10
ATOM     10  C   UNL     1      45.754   2.838   7.996  0.00  0.00    +0.000 A 
ATOM     11  C   UNL     1      45.919   1.476   8.245  0.00  0.00    +0.000 A 
ATOM     12  C   UNL     1      46.982   0.817   7.651  0.00  0.00    +0.000 A 
ATOM     13  N   UNL     1      47.874   1.412   6.832  0.00  0.00    +0.000 NA
ATOM     14  C   UNL     1      47.694   2.731   6.595  0.00  0.00    +0.000 A 
ATOM     15  C   UNL     1      46.668   3.477   7.144  0.00  0.00    +0.000 A 
ENDBRANCH   9  10
ENDBRANCH   8   9
ENDBRANCH   5   8
ENDBRANCH   1   2
BRANCH   1  16
ATOM     16  N   UNL     1      47.657   5.481  14.899  0.00  0.00    +0.000 N 
ATOM     17  C   UNL     1      48.137   5.622  16.175  0.00  0.00    +0.000 C 
ATOM     18  O   UNL     1      47.805   4.878  17.093  0.00  0.00    +0.000 OA
ATOM     19  H   UNL     1      47.730   6.260  14.257  0.00  0.00    +0.000 HD
BRANCH  17  20
ATOM     20  C   UNL     1      49.142   6.674  16.380  0.00  0.00    +0.000 A 
ATOM     21  C   UNL     1      48.788   8.001  16.173  0.00  0.00    +0.000 A 
ATOM     22  S   UNL     1      50.043   9.106  16.500  0.00  0.00    +0.000 S 
ATOM     23  C   UNL     1      51.124   7.848  16.882  0.00  0.00    +0.000 A 
ATOM     24  N   UNL     1      52.412   8.114  17.226  0.00  0.00    +0.000 NA
ATOM     25  C   UNL     1      53.131   7.067  17.452  0.00  0.00    +0.000 A 
ATOM     26  N   UNL     1      52.675   5.776  17.378  0.00  0.00    +0.000 N 
ATOM     27  C   UNL     1      51.369   5.461  17.082  0.00  0.00    +0.000 A 
ATOM     28  O   UNL     1      50.968   4.301  17.095  0.00  0.00    +0.000 OA
ATOM     29  C   UNL     1      50.525   6.603  16.786  0.00  0.00    +0.000 A 
ATOM     30  H   UNL     1      53.289   5.002  17.585  0.00  0.00    +0.000 HD
ENDBRANCH  17  20
ENDBRANCH   1  16
BRANCH   1  31
ATOM     31  N   UNL     1      47.482   3.249  14.778  0.00  0.00    +0.000 NA
ATOM     32  H   UNL     1      47.501   2.741  13.899  0.00  0.00    +0.000 HD
ATOM     33  H   UNL     1      46.979   2.671  15.445  0.00  0.00    +0.000 HD
ENDBRANCH   1  31
TORSDOF 7
ENDMDL
MODEL 4
REMARK VINA RESULT:    -7.941      1.714      2.257
REMARK INTER + INTRA:         -12.163
REMARK INTER:                 -11.000
REMARK INTRA:                  -1.163
REMARK UNBOUND:                -1.205
REMARK  Name = 
REMARK  7 active torsions:
REMARK  status: ('A' for Active; 'I' for Inactive)
REMARK    1  A    between atoms: N_1  and  C_2
REMARK    2  A    between atoms: C_2  and  N_3
REMARK    3  A    between atoms: C_2  and  C_16
REMARK    4  A    between atoms: C_4  and  C_6
REMARK    5  A    between atoms: C_19  and  O_20
REMARK    6  A    between atoms: O_20  and  C_21
REMARK    7  A    between atoms: C_21  and  C_22
REMARK                            x       y       z     vdW  Elec       q    Type
REMARK                         _______ _______ _______ _____ _____    ______ ____
ROOT
ATOM      1  C   UNL     1      47.685   6.440  13.617  0.00  0.00    +0.000 C 
ENDROOT
BRANCH   1   2
ATOM      2  C   UNL     1      46.706   5.786  12.665  0.00  0.00    +0.000 A 
ATOM      3  C   UNL     1      46.405   6.421  11.445  0.00  0.00    +0.000 A 
ATOM      4  C   UNL     1      45.518   5.848  10.530  0.00  0.00    +0.000 A 
ATOM      5  C   UNL     1      44.927   4.617  10.812  0.00  0.00    +0.000 A 
ATOM      6  C   UNL     1      45.189   3.994  12.034  0.00  0.00    +0.000 A 
ATOM      7  C   UNL     1      46.080   4.564  12.942  0.00  0.00    +0.000 A 
BRANCH   5   8
ATOM      8  O   UNL     1      44.119   4.098   9.835  0.00  0.00    +0.000 OA
BRANCH   8   9
ATOM      9  C   UNL     1      44.371   2.723   9.541  0.00  0.00    +0.000 C 
BRANCH   9  10
ATOM     10  C   UNL     1      45.442   2.558   8.496  0.00  0.00    +0.000 A 
ATOM     11  C   UNL     1      46.122   1.354   8.312  0.00  0.00    +0.000 A 
ATOM     12  C   UNL     1      47.022   1.255   7.264  0.00  0.00    +0.000 A 
ATOM     13  N   UNL     1      47.280   2.254   6.395  0.00  0.00    +0.000 NA
ATOM     14  C   UNL     1      46.606   3.410   6.584  0.00  0.00    +0.000 A 
ATOM     15  C   UNL     1      45.692   3.610   7.602  0.00  0.00    +0.000 A 
ENDBRANCH   9  10
ENDBRANCH   8   9
ENDBRANCH   5   8
ENDBRANCH   1   2
BRANCH   1  16
ATOM     16  N   UNL     1      47.684   5.909  14.944  0.00  0.00    +0.000 N 
ATOM     17  C   UNL     1      48.780   6.013  15.761  0.00  0.00    +0.000 C 
ATOM     18  O   UNL     1      49.813   6.578  15.413  0.00  0.00    +0.000 OA
ATOM     19  H   UNL     1      46.980   5.214  15.153  0.00  0.00    +0.000 HD
BRANCH  17  20
ATOM     20  C   UNL     1      48.630   5.479  17.121  0.00  0.00    +0.000 A 
ATOM     21  C   UNL     1      48.829   4.123  17.345  0.00  0.00    +0.000 A 
ATOM     22  S   UNL     1      48.671   3.665  18.978  0.00  0.00    +0.000 S 
ATOM     23  C   UNL     1      48.281   5.254  19.442  0.00  0.00    +0.000 A 
ATOM     24  N   UNL     1      47.992   5.553  20.736  0.00  0.00    +0.000 NA
ATOM     25  C   UNL     1      47.676   6.788  20.942  0.00  0.00    +0.000 A 
ATOM     26  N   UNL     1      47.634   7.754  19.970  0.00  0.00    +0.000 N 
ATOM     27  C   UNL     1      47.965   7.510  18.658  0.00  0.00    +0.000 A 
ATOM     28  O   UNL     1      47.992   8.408  17.823  0.00  0.00    +0.000 OA
ATOM     29  C   UNL     1      48.297   6.128  18.367  0.00  0.00    +0.000 A 
ATOM     30  H   UNL     1      47.394   8.706  20.204  0.00  0.00    +0.000 HD
ENDBRANCH  17  20
ENDBRANCH   1  16
BRANCH   1  31
ATOM     31  N   UNL     1      47.334   7.827  13.836  0.00  0.00    +0.000 NA
ATOM     32  H   UNL     1      47.955   8.390  13.263  0.00  0.00    +0.000 HD
ATOM     33  H   UNL     1      47.534   8.056  14.805  0.00  0.00    +0.000 HD
ENDBRANCH   1  31
TORSDOF 7
ENDMDL
MODEL 5
REMARK VINA RESULT:    -7.924      1.329      1.514
REMARK INTER + INTRA:         -12.139
REMARK INTER:                 -10.946
REMARK INTRA:                  -1.193
REMARK UNBOUND:                -1.205
REMARK  Name = 
REMARK  7 active torsions:
REMARK  status: ('A' for Active; 'I' for Inactive)
REMARK    1  A    between atoms: N_1  and  C_2
REMARK    2  A    between atoms: C_2  and  N_3
REMARK    3  A    between atoms: C_2  and  C_16
REMARK    4  A    between atoms: C_4  and  C_6
REMARK    5  A    between atoms: C_19  and  O_20
REMARK    6  A    between atoms: O_20  and  C_21
REMARK    7  A    between atoms: C_21  and  C_22
REMARK                            x       y       z     vdW  Elec       q    Type
REMARK                         _______ _______ _______ _____ _____    ______ ____
ROOT
ATOM      1  C   UNL     1      48.121   6.487  13.569  0.00  0.00    +0.000 C 
ENDROOT
BRANCH   1   2
ATOM      2  C   UNL     1      47.022   5.740  12.842  0.00  0.00    +0.000 A 
ATOM      3  C   UNL     1      46.442   6.317  11.695  0.00  0.00    +0.000 A 
ATOM      4  C   UNL     1      45.435   5.659  10.985  0.00  0.00    +0.000 A 
ATOM      5  C   UNL     1      45.000   4.401  11.399  0.00  0.00    +0.000 A 
ATOM      6  C   UNL     1      45.541   3.835  12.555  0.00  0.00    +0.000 A 
ATOM      7  C   UNL     1      46.551   4.490  13.258  0.00  0.00    +0.000 A 
BRANCH   5   8
ATOM      8  O   UNL     1      44.053   3.801  10.611  0.00  0.00    +0.000 OA
BRANCH   8   9
ATOM      9  C   UNL     1      44.196   4.079   9.217  0.00  0.00    +0.000 C 
BRANCH   9  10
ATOM     10  C   UNL     1      45.261   3.228   8.578  0.00  0.00    +0.000 A 
ATOM     11  C   UNL     1      45.352   1.855   8.804  0.00  0.00    +0.000 A 
ATOM     12  C   UNL     1      46.298   1.129   8.102  0.00  0.00    +0.000 A 
ATOM     13  N   UNL     1      47.142   1.667   7.197  0.00  0.00    +0.000 NA
ATOM     14  C   UNL     1      47.035   2.998   6.985  0.00  0.00    +0.000 A 
ATOM     15  C   UNL     1      46.127   3.810   7.639  0.00  0.00    +0.000 A 
ENDBRANCH   9  10
ENDBRANCH   8   9
ENDBRANCH   5   8
ENDBRANCH   1   2
BRANCH   1  16
ATOM     16  N   UNL     1      47.987   6.523  14.991  0.00  0.00    +0.000 N 
ATOM     17  C   UNL     1      49.080   6.617  15.814  0.00  0.00    +0.000 C 
ATOM     18  O   UNL     1      50.227   6.691  15.384  0.00  0.00    +0.000 OA
ATOM     19  H   UNL     1      47.112   6.188  15.373  0.00  0.00    +0.000 HD
BRANCH  17  20
ATOM     20  C   UNL     1      48.804   6.705  17.254  0.00  0.00    +0.000 A 
ATOM     21  C   UNL     1      48.440   7.929  17.802  0.00  0.00    +0.000 A 
ATOM     22  S   UNL     1      48.102   7.862  19.471  0.00  0.00    +0.000 S 
ATOM     23  C   UNL     1      48.479   6.203  19.534  0.00  0.00    +0.000 A 
ATOM     24  N   UNL     1      48.422   5.519  20.708  0.00  0.00    +0.000 NA
ATOM     25  C   UNL     1      48.769   4.279  20.620  0.00  0.00    +0.000 A 
ATOM     26  N   UNL     1      49.156   3.658  19.461  0.00  0.00    +0.000 N 
ATOM     27  C   UNL     1      49.182   4.296  18.243  0.00  0.00    +0.000 A 
ATOM     28  O   UNL     1      49.461   3.699  17.209  0.00  0.00    +0.000 OA
ATOM     29  C   UNL     1      48.832   5.703  18.293  0.00  0.00    +0.000 A 
ATOM     30  H   UNL     1      49.400   2.678  19.461  0.00  0.00    +0.000 HD
ENDBRANCH  17  20
ENDBRANCH   1  16
BRANCH   1  31
ATOM     31  N   UNL     1      48.102   7.891  13.218  0.00  0.00    +0.000 NA
ATOM     32  H   UNL     1      47.894   7.951  12.226  0.00  0.00    +0.000 HD
ATOM     33  H   UNL     1      49.037   8.264  13.349  0.00  0.00    +0.000 HD
ENDBRANCH   1  31
TORSDOF 7
ENDMDL
MODEL 6
REMARK VINA RESULT:    -7.659      2.170      3.262
REMARK INTER + INTRA:         -11.774
REMARK INTER:                 -10.879
REMARK INTRA:                  -0.895
REMARK UNBOUND:                -1.205
REMARK  Name = 
REMARK  7 active torsions:
REMARK  status: ('A' for Active; 'I' for Inactive)
REMARK    1  A    between atoms: N_1  and  C_2
REMARK    2  A    between atoms: C_2  and  N_3
REMARK    3  A    between atoms: C_2  and  C_16
REMARK    4  A    between atoms: C_4  and  C_6
REMARK    5  A    between atoms: C_19  and  O_20
REMARK    6  A    between atoms: O_20  and  C_21
REMARK    7  A    between atoms: C_21  and  C_22
REMARK                            x       y       z     vdW  Elec       q    Type
REMARK                         _______ _______ _______ _____ _____    ______ ____
ROOT
ATOM      1  C   UNL     1      46.699   4.417  14.573  0.00  0.00    +0.000 C 
ENDROOT
BRANCH   1   2
ATOM      2  C   UNL     1      46.244   4.525  13.132  0.00  0.00    +0.000 A 
ATOM      3  C   UNL     1      45.581   3.434  12.537  0.00  0.00    +0.000 A 
ATOM      4  C   UNL     1      45.131   3.494  11.217  0.00  0.00    +0.000 A 
ATOM      5  C   UNL     1      45.321   4.654  10.469  0.00  0.00    +0.000 A 
ATOM      6  C   UNL     1      46.008   5.730  11.035  0.00  0.00    +0.000 A 
ATOM      7  C   UNL     1      46.449   5.672  12.356  0.00  0.00    +0.000 A 
BRANCH   5   8
ATOM      8  O   UNL     1      44.795   4.649   9.203  0.00  0.00    +0.000 OA
BRANCH   8   9
ATOM      9  C   UNL     1      44.504   3.345   8.700  0.00  0.00    +0.000 C 
BRANCH   9  10
ATOM     10  C   UNL     1      45.678   2.747   7.970  0.00  0.00    +0.000 A 
ATOM     11  C   UNL     1      46.509   3.508   7.149  0.00  0.00    +0.000 A 
ATOM     12  C   UNL     1      47.624   2.905   6.593  0.00  0.00    +0.000 A 
ATOM     13  N   UNL     1      47.968   1.618   6.803  0.00  0.00    +0.000 NA
ATOM     14  C   UNL     1      47.155   0.897   7.608  0.00  0.00    +0.000 A 
ATOM     15  C   UNL     1      46.017   1.406   8.206  0.00  0.00    +0.000 A 
ENDBRANCH   9  10
ENDBRANCH   8   9
ENDBRANCH   5   8
ENDBRANCH   1   2
BRANCH   1  16
ATOM     16  N   UNL     1      47.562   5.468  15.013  0.00  0.00    +0.000 N 
ATOM     17  C   UNL     1      48.070   5.496  16.287  0.00  0.00    +0.000 C 
ATOM     18  O   UNL     1      47.830   4.620  17.113  0.00  0.00    +0.000 OA
ATOM     19  H   UNL     1      47.549   6.322  14.471  0.00  0.00    +0.000 HD
BRANCH  17  20
ATOM     20  C   UNL     1      48.992   6.597  16.596  0.00  0.00    +0.000 A 
ATOM     21  C   UNL     1      50.032   6.878  15.719  0.00  0.00    +0.000 A 
ATOM     22  S   UNL     1      50.982   8.213  16.186  0.00  0.00    +0.000 S 
ATOM     23  C   UNL     1      50.069   8.434  17.605  0.00  0.00    +0.000 A 
ATOM     24  N   UNL     1      50.383   9.416  18.491  0.00  0.00    +0.000 NA
ATOM     25  C   UNL     1      49.634   9.448  19.541  0.00  0.00    +0.000 A 
ATOM     26  N   UNL     1      48.589   8.592  19.780  0.00  0.00    +0.000 N 
ATOM     27  C   UNL     1      48.204   7.616  18.890  0.00  0.00    +0.000 A 
ATOM     28  O   UNL     1      47.221   6.912  19.093  0.00  0.00    +0.000 OA
ATOM     29  C   UNL     1      49.037   7.517  17.706  0.00  0.00    +0.000 A 
ATOM     30  H   UNL     1      48.032   8.684  20.617  0.00  0.00    +0.000 HD
ENDBRANCH  17  20
ENDBRANCH   1  16
BRANCH   1  31
ATOM     31  N   UNL     1      47.519   3.240  14.761  0.00  0.00    +0.000 NA
ATOM     32  H   UNL     1      48.169   3.197  13.982  0.00  0.00    +0.000 HD
ATOM     33  H   UNL     1      46.921   2.422  14.696  0.00  0.00    +0.000 HD
ENDBRANCH   1  31
TORSDOF 7
ENDMDL
MODEL 7
REMARK VINA RESULT:    -7.369      4.374      8.756
REMARK INTER + INTRA:         -11.374
REMARK INTER:                 -10.539
REMARK INTRA:                  -0.835
REMARK UNBOUND:                -1.205
REMARK  Name = 
REMARK  7 active torsions:
REMARK  status: ('A' for Active; 'I' for Inactive)
REMARK    1  A    between atoms: N_1  and  C_2
REMARK    2  A    between atoms: C_2  and  N_3
REMARK    3  A    between atoms: C_2  and  C_16
REMARK    4  A    between atoms: C_4  and  C_6
REMARK    5  A    between atoms: C_19  and  O_20
REMARK    6  A    between atoms: O_20  and  C_21
REMARK    7  A    between atoms: C_21  and  C_22
REMARK                            x       y       z     vdW  Elec       q    Type
REMARK                         _______ _______ _______ _____ _____    ______ ____
ROOT
ATOM      1  C   UNL     1      47.480   3.271  16.619  0.00  0.00    +0.000 C 
ENDROOT
BRANCH   1   2
ATOM      2  C   UNL     1      48.931   3.398  17.033  0.00  0.00    +0.000 A 
ATOM      3  C   UNL     1      49.760   2.260  16.989  0.00  0.00    +0.000 A 
ATOM      4  C   UNL     1      51.108   2.333  17.348  0.00  0.00    +0.000 A 
ATOM      5  C   UNL     1      51.658   3.551  17.742  0.00  0.00    +0.000 A 
ATOM      6  C   UNL     1      50.839   4.679  17.825  0.00  0.00    +0.000 A 
ATOM      7  C   UNL     1      49.496   4.606  17.459  0.00  0.00    +0.000 A 
BRANCH   5   8
ATOM      8  O   UNL     1      53.000   3.546  18.019  0.00  0.00    +0.000 OA
BRANCH   8   9
ATOM      9  C   UNL     1      53.451   2.368  18.690  0.00  0.00    +0.000 C 
BRANCH   9  10
ATOM     10  C   UNL     1      54.260   1.478  17.785  0.00  0.00    +0.000 A 
ATOM     11  C   UNL     1      54.113   0.091  17.781  0.00  0.00    +0.000 A 
ATOM     12  C   UNL     1      54.821  -0.648  16.849  0.00  0.00    +0.000 A 
ATOM     13  N   UNL     1      55.648  -0.107  15.930  0.00  0.00    +0.000 NA
ATOM     14  C   UNL     1      55.773   1.239  15.943  0.00  0.00    +0.000 A 
ATOM     15  C   UNL     1      55.112   2.063  16.835  0.00  0.00    +0.000 A 
ENDBRANCH   9  10
ENDBRANCH   8   9
ENDBRANCH   5   8
ENDBRANCH   1   2
BRANCH   1  16
ATOM     16  N   UNL     1      47.012   4.294  15.737  0.00  0.00    +0.000 N 
ATOM     17  C   UNL     1      46.905   4.085  14.386  0.00  0.00    +0.000 C 
ATOM     18  O   UNL     1      47.186   3.013  13.859  0.00  0.00    +0.000 OA
ATOM     19  H   UNL     1      47.044   5.243  16.086  0.00  0.00    +0.000 HD
BRANCH  17  20
ATOM     20  C   UNL     1      46.355   5.196  13.598  0.00  0.00    +0.000 A 
ATOM     21  C   UNL     1      47.096   6.363  13.459  0.00  0.00    +0.000 A 
ATOM     22  S   UNL     1      46.350   7.538  12.476  0.00  0.00    +0.000 S 
ATOM     23  C   UNL     1      44.985   6.550  12.239  0.00  0.00    +0.000 A 
ATOM     24  N   UNL     1      43.931   6.982  11.497  0.00  0.00    +0.000 NA
ATOM     25  C   UNL     1      42.947   6.149  11.431  0.00  0.00    +0.000 A 
ATOM     26  N   UNL     1      42.928   4.916  12.030  0.00  0.00    +0.000 N 
ATOM     27  C   UNL     1      43.989   4.417  12.748  0.00  0.00    +0.000 A 
ATOM     28  O   UNL     1      43.976   3.282  13.212  0.00  0.00    +0.000 OA
ATOM     29  C   UNL     1      45.109   5.330  12.881  0.00  0.00    +0.000 A 
ATOM     30  H   UNL     1      42.130   4.307  11.923  0.00  0.00    +0.000 HD
ENDBRANCH  17  20
ENDBRANCH   1  16
BRANCH   1  31
ATOM     31  N   UNL     1      46.608   3.424  17.763  0.00  0.00    +0.000 NA
ATOM     32  H   UNL     1      47.180   3.743  18.539  0.00  0.00    +0.000 HD
ATOM     33  H   UNL     1      46.250   2.507  18.015  0.00  0.00    +0.000 HD
ENDBRANCH   1  31
TORSDOF 7
ENDMDL
MODEL 8
REMARK VINA RESULT:    -7.311      2.637      3.636
REMARK INTER + INTRA:         -11.294
REMARK INTER:                 -10.136
REMARK INTRA:                  -1.158
REMARK UNBOUND:                -1.205
REMARK  Name = 
REMARK  7 active torsions:
REMARK  status: ('A' for Active; 'I' for Inactive)
REMARK    1  A    between atoms: N_1  and  C_2
REMARK    2  A    between atoms: C_2  and  N_3
REMARK    3  A    between atoms: C_2  and  C_16
REMARK    4  A    between atoms: C_4  and  C_6
REMARK    5  A    between atoms: C_19  and  O_20
REMARK    6  A    between atoms: O_20  and  C_21
REMARK    7  A    between atoms: C_21  and  C_22
REMARK                            x       y       z     vdW  Elec       q    Type
REMARK                         _______ _______ _______ _____ _____    ______ ____
ROOT
ATOM      1  C   UNL     1      46.832   5.563  13.992  0.00  0.00    +0.000 C 
ENDROOT
BRANCH   1   2
ATOM      2  C   UNL     1      46.134   5.133  12.718  0.00  0.00    +0.000 A 
ATOM      3  C   UNL     1      46.155   5.990  11.601  0.00  0.00    +0.000 A 
ATOM      4  C   UNL     1      45.537   5.630  10.401  0.00  0.00    +0.000 A 
ATOM      5  C   UNL     1      44.899   4.396  10.291  0.00  0.00    +0.000 A 
ATOM      6  C   UNL     1      44.839   3.553  11.402  0.00  0.00    +0.000 A 
ATOM      7  C   UNL     1      45.464   3.911  12.596  0.00  0.00    +0.000 A 
BRANCH   5   8
ATOM      8  O   UNL     1      44.372   4.097   9.062  0.00  0.00    +0.000 OA
BRANCH   8   9
ATOM      9  C   UNL     1      44.426   2.709   8.729  0.00  0.00    +0.000 C 
BRANCH   9  10
ATOM     10  C   UNL     1      45.726   2.338   8.066  0.00  0.00    +0.000 A 
ATOM     11  C   UNL     1      46.220   1.034   8.074  0.00  0.00    +0.000 A 
ATOM     12  C   UNL     1      47.371   0.757   7.357  0.00  0.00    +0.000 A 
ATOM     13  N   UNL     1      48.049   1.675   6.636  0.00  0.00    +0.000 NA
ATOM     14  C   UNL     1      47.552   2.932   6.634  0.00  0.00    +0.000 A 
ATOM     15  C   UNL     1      46.413   3.309   7.320  0.00  0.00    +0.000 A 
ENDBRANCH   9  10
ENDBRANCH   8   9
ENDBRANCH   5   8
ENDBRANCH   1   2
BRANCH   1  16
ATOM     16  N   UNL     1      48.081   6.231  13.799  0.00  0.00    +0.000 N 
ATOM     17  C   UNL     1      48.177   7.599  13.826  0.00  0.00    +0.000 C 
ATOM     18  O   UNL     1      47.209   8.325  14.031  0.00  0.00    +0.000 OA
ATOM     19  H   UNL     1      48.818   5.696  13.360  0.00  0.00    +0.000 HD
BRANCH  17  20
ATOM     20  C   UNL     1      49.526   8.160  13.675  0.00  0.00    +0.000 A 
ATOM     21  C   UNL     1      49.770   9.078  12.661  0.00  0.00    +0.000 A 
ATOM     22  S   UNL     1      51.365   9.676  12.645  0.00  0.00    +0.000 S 
ATOM     23  C   UNL     1      51.804   8.692  13.962  0.00  0.00    +0.000 A 
ATOM     24  N   UNL     1      53.075   8.697  14.445  0.00  0.00    +0.000 NA
ATOM     25  C   UNL     1      53.280   7.876  15.419  0.00  0.00    +0.000 A 
ATOM     26  N   UNL     1      52.324   7.058  15.964  0.00  0.00    +0.000 N 
ATOM     27  C   UNL     1      51.015   7.053  15.541  0.00  0.00    +0.000 A 
ATOM     28  O   UNL     1      50.163   6.366  16.094  0.00  0.00    +0.000 OA
ATOM     29  C   UNL     1      50.740   7.936  14.424  0.00  0.00    +0.000 A 
ATOM     30  H   UNL     1      52.549   6.450  16.738  0.00  0.00    +0.000 HD
ENDBRANCH  17  20
ENDBRANCH   1  16
BRANCH   1  31
ATOM     31  N   UNL     1      47.213   4.410  14.779  0.00  0.00    +0.000 NA
ATOM     32  H   UNL     1      46.361   3.914  15.019  0.00  0.00    +0.000 HD
ATOM     33  H   UNL     1      47.622   4.739  15.648  0.00  0.00    +0.000 HD
ENDBRANCH   1  31
TORSDOF 7
ENDMDL
MODEL 9
REMARK VINA RESULT:    -7.299      1.757      2.344
REMARK INTER + INTRA:         -11.278
REMARK INTER:                  -9.950
REMARK INTRA:                  -1.328
REMARK UNBOUND:                -1.205
REMARK  Name = 
REMARK  7 active torsions:
REMARK  status: ('A' for Active; 'I' for Inactive)
REMARK    1  A    between atoms: N_1  and  C_2
REMARK    2  A    between atoms: C_2  and  N_3
REMARK    3  A    between atoms: C_2  and  C_16
REMARK    4  A    between atoms: C_4  and  C_6
REMARK    5  A    between atoms: C_19  and  O_20
REMARK    6  A    between atoms: O_20  and  C_21
REMARK    7  A    between atoms: C_21  and  C_22
REMARK                            x       y       z     vdW  Elec       q    Type
REMARK                         _______ _______ _______ _____ _____    ______ ____
ROOT
ATOM      1  C   UNL     1      47.872   7.660  13.430  0.00  0.00    +0.000 C 
ENDROOT
BRANCH   1   2
ATOM      2  C   UNL     1      46.994   6.676  12.685  0.00  0.00    +0.000 A 
ATOM      3  C   UNL     1      46.654   5.456  13.302  0.00  0.00    +0.000 A 
ATOM      4  C   UNL     1      45.836   4.524  12.660  0.00  0.00    +0.000 A 
ATOM      5  C   UNL     1      45.327   4.802  11.392  0.00  0.00    +0.000 A 
ATOM      6  C   UNL     1      45.686   5.992  10.755  0.00  0.00    +0.000 A 
ATOM      7  C   UNL     1      46.496   6.924  11.401  0.00  0.00    +0.000 A 
BRANCH   5   8
ATOM      8  O   UNL     1      44.485   3.861  10.860  0.00  0.00    +0.000 OA
BRANCH   8   9
ATOM      9  C   UNL     1      44.229   4.033   9.465  0.00  0.00    +0.000 C 
BRANCH   9  10
ATOM     10  C   UNL     1      45.224   3.289   8.614  0.00  0.00    +0.000 A 
ATOM     11  C   UNL     1      46.048   3.938   7.694  0.00  0.00    +0.000 A 
ATOM     12  C   UNL     1      47.004   3.196   7.023  0.00  0.00    +0.000 A 
ATOM     13  N   UNL     1      47.199   1.873   7.208  0.00  0.00    +0.000 NA
ATOM     14  C   UNL     1      46.397   1.263   8.108  0.00  0.00    +0.000 A 
ATOM     15  C   UNL     1      45.411   1.914   8.826  0.00  0.00    +0.000 A 
ENDBRANCH   9  10
ENDBRANCH   8   9
ENDBRANCH   5   8
ENDBRANCH   1   2
BRANCH   1  16
ATOM     16  N   UNL     1      48.888   7.068  14.242  0.00  0.00    +0.000 N 
ATOM     17  C   UNL     1      49.898   7.816  14.790  0.00  0.00    +0.000 C 
ATOM     18  O   UNL     1      49.981   9.031  14.632  0.00  0.00    +0.000 OA
ATOM     19  H   UNL     1      49.007   6.067  14.160  0.00  0.00    +0.000 HD
BRANCH  17  20
ATOM     20  C   UNL     1      50.845   7.098  15.654  0.00  0.00    +0.000 A 
ATOM     21  C   UNL     1      52.201   7.380  15.556  0.00  0.00    +0.000 A 
ATOM     22  S   UNL     1      53.166   6.506  16.655  0.00  0.00    +0.000 S 
ATOM     23  C   UNL     1      51.811   5.680  17.270  0.00  0.00    +0.000 A 
ATOM     24  N   UNL     1      51.948   4.740  18.242  0.00  0.00    +0.000 NA
ATOM     25  C   UNL     1      50.845   4.165  18.589  0.00  0.00    +0.000 A 
ATOM     26  N   UNL     1      49.615   4.455  18.059  0.00  0.00    +0.000 N 
ATOM     27  C   UNL     1      49.420   5.432  17.110  0.00  0.00    +0.000 A 
ATOM     28  O   UNL     1      48.300   5.723  16.706  0.00  0.00    +0.000 OA
ATOM     29  C   UNL     1      50.635   6.086  16.661  0.00  0.00    +0.000 A 
ATOM     30  H   UNL     1      48.789   3.977  18.388  0.00  0.00    +0.000 HD
ENDBRANCH  17  20
ENDBRANCH   1  16
BRANCH   1  31
ATOM     31  N   UNL     1      47.095   8.406  14.396  0.00  0.00    +0.000 NA
ATOM     32  H   UNL     1      47.631   9.233  14.641  0.00  0.00    +0.000 HD
ATOM     33  H   UNL     1      47.012   7.845  15.239  0.00  0.00    +0.000 HD
ENDBRANCH   1  31
TORSDOF 7
ENDMDL
