MODEL 1
REMARK VINA RESULT:    -8.011      0.000      0.000
REMARK INTER + INTRA:         -10.424
REMARK INTER:                  -9.884
REMARK INTRA:                  -0.540
REMARK UNBOUND:                -0.540
REMARK  Name = 
REMARK  4 active torsions:
REMARK  status: ('A' for Active; 'I' for Inactive)
REMARK    1  A    between atoms: C_7  and  N_8
REMARK    2  A    between atoms: N_8  and  C_9
REMARK    3  A    between atoms: C_9  and  C_10
REMARK    4  A    between atoms: C_14  and  C_15
REMARK                            x       y       z     vdW  Elec       q    Type
REMARK                         _______ _______ _______ _____ _____    ______ ____
ROOT
ATOM      1  C   UNL     1      44.239   3.513  10.810  0.00  0.00    +0.000 A 
ATOM      2  C   UNL     1      43.651   2.943  11.932  0.00  0.00    +0.000 A 
ATOM      3  N   UNL     1      43.752   3.486  13.166  0.00  0.00    +0.000 NA
ATOM      4  C   UNL     1      44.473   4.632  13.237  0.00  0.00    +0.000 A 
ATOM      5  C   UNL     1      45.068   5.238  12.130  0.00  0.00    +0.000 A 
ATOM      6  N   UNL     1      44.939   4.680  10.897  0.00  0.00    +0.000 NA
ENDROOT
BRANCH   5   7
ATOM      7  C   UNL     1      45.833   6.491  12.209  0.00  0.00    +0.000 A 
ATOM      8  C   UNL     1      45.229   7.726  12.468  0.00  0.00    +0.000 A 
ATOM      9  N   UNL     1      45.871   8.920  12.499  0.00  0.00    +0.000 NA
ATOM     10  C   UNL     1      47.204   8.895  12.274  0.00  0.00    +0.000 A 
ATOM     11  C   UNL     1      47.914   7.730  12.037  0.00  0.00    +0.000 A 
ATOM     12 BR   UNL     1      49.773   7.783  11.729  0.00  0.00    +0.000 Br
ATOM     13  C   UNL     1      47.223   6.520  12.011  0.00  0.00    +0.000 A 
ENDBRANCH   5   7
BRANCH   1  14
ATOM     14  C   UNL     1      44.162   2.807   9.469  0.00  0.00    +0.000 C 
BRANCH  14  15
ATOM     15  N   UNL     1      45.321   1.964   9.215  0.00  0.00    +0.000 N 
ATOM     16  H   UNL     1      45.820   1.658  10.044  0.00  0.00    +0.000 HD
BRANCH  15  23
ATOM     17 CL   UNL     1      46.734  -0.643   7.746  0.00  0.00    +0.000 Cl
ATOM     18  C   UNL     1      46.818   1.042   7.385  0.00  0.00    +0.000 A 
ATOM     19  N   UNL     1      47.637   1.238   6.317  0.00  0.00    +0.000 NA
ATOM     20  C   UNL     1      47.808   2.502   5.896  0.00  0.00    +0.000 A 
ATOM     21  C   UNL     1      47.191   3.585   6.489  0.00  0.00    +0.000 A 
ATOM     22  C   UNL     1      46.348   3.351   7.576  0.00  0.00    +0.000 A 
ATOM     23  C   UNL     1      46.109   2.052   8.065  0.00  0.00    +0.000 A 
ENDBRANCH  15  23
ENDBRANCH  14  15
ENDBRANCH   1  14
TORSDOF 4
ENDMDL
MODEL 2
REMARK VINA RESULT:    -7.366      3.099      6.310
REMARK INTER + INTRA:          -9.628
REMARK INTER:                  -8.910
REMARK INTRA:                  -0.718
REMARK UNBOUND:                -0.540
REMARK  Name = 
REMARK  4 active torsions:
REMARK  status: ('A' for Active; 'I' for Inactive)
REMARK    1  A    between atoms: C_7  and  N_8
REMARK    2  A    between atoms: N_8  and  C_9
REMARK    3  A    between atoms: C_9  and  C_10
REMARK    4  A    between atoms: C_14  and  C_15
REMARK                            x       y       z     vdW  Elec       q    Type
REMARK                         _______ _______ _______ _____ _____    ______ ____
ROOT
ATOM      1  C   UNL     1      43.982   5.697  11.458  0.00  0.00    +0.000 A 
ATOM      2  C   UNL     1      43.172   4.852  12.205  0.00  0.00    +0.000 A 
ATOM      3  N   UNL     1      43.048   3.533  11.936  0.00  0.00    +0.000 NA
ATOM      4  C   UNL     1      43.769   3.087  10.878  0.00  0.00    +0.000 A 
ATOM      5  C   UNL     1      44.600   3.905  10.112  0.00  0.00    +0.000 A 
ATOM      6  N   UNL     1      44.720   5.225  10.413  0.00  0.00    +0.000 NA
ENDROOT
BRANCH   5   7
ATOM      7  C   UNL     1      45.395   3.412   8.977  0.00  0.00    +0.000 A 
ATOM      8  C   UNL     1      45.892   4.261   7.984  0.00  0.00    +0.000 A 
ATOM      9  N   UNL     1      46.583   3.861   6.887  0.00  0.00    +0.000 NA
ATOM     10  C   UNL     1      46.813   2.534   6.768  0.00  0.00    +0.000 A 
ATOM     11  C   UNL     1      46.396   1.603   7.704  0.00  0.00    +0.000 A 
ATOM     12 BR   UNL     1      46.756  -0.231   7.463  0.00  0.00    +0.000 Br
ATOM     13  C   UNL     1      45.688   2.048   8.819  0.00  0.00    +0.000 A 
ENDBRANCH   5   7
BRANCH   1  14
ATOM     14  C   UNL     1      44.011   7.185  11.757  0.00  0.00    +0.000 C 
BRANCH  14  15
ATOM     15  N   UNL     1      44.964   7.525  12.804  0.00  0.00    +0.000 N 
ATOM     16  H   UNL     1      44.737   8.359  13.337  0.00  0.00    +0.000 HD
BRANCH  15  23
ATOM     17 CL   UNL     1      46.337   4.809  14.103  0.00  0.00    +0.000 Cl
ATOM     18  C   UNL     1      47.045   6.161  13.299  0.00  0.00    +0.000 A 
ATOM     19  N   UNL     1      48.396   6.007  13.256  0.00  0.00    +0.000 NA
ATOM     20  C   UNL     1      49.106   6.975  12.653  0.00  0.00    +0.000 A 
ATOM     21  C   UNL     1      48.530   8.091  12.082  0.00  0.00    +0.000 A 
ATOM     22  C   UNL     1      47.141   8.216  12.133  0.00  0.00    +0.000 A 
ATOM     23  C   UNL     1      46.329   7.235  12.736  0.00  0.00    +0.000 A 
ENDBRANCH  15  23
ENDBRANCH  14  15
ENDBRANCH   1  14
TORSDOF 4
ENDMDL
MODEL 3
REMARK VINA RESULT:    -7.272      1.894      2.304
REMARK INTER + INTRA:          -9.512
REMARK INTER:                  -9.204
REMARK INTRA:                  -0.308
REMARK UNBOUND:                -0.540
REMARK  Name = 
REMARK  4 active torsions:
REMARK  status: ('A' for Active; 'I' for Inactive)
REMARK    1  A    between atoms: C_7  and  N_8
REMARK    2  A    between atoms: N_8  and  C_9
REMARK    3  A    between atoms: C_9  and  C_10
REMARK    4  A    between atoms: C_14  and  C_15
REMARK                            x       y       z     vdW  Elec       q    Type
REMARK                         _______ _______ _______ _____ _____    ______ ____
ROOT
ATOM      1  C   UNL     1      44.866   4.909  11.175  0.00  0.00    +0.000 A 
ATOM      2  C   UNL     1      44.497   4.123  12.259  0.00  0.00    +0.000 A 
ATOM      3  N   UNL     1      45.113   4.199  13.460  0.00  0.00    +0.000 NA
ATOM      4  C   UNL     1      46.125   5.098  13.536  0.00  0.00    +0.000 A 
ATOM      5  C   UNL     1      46.516   5.911  12.472  0.00  0.00    +0.000 A 
ATOM      6  N   UNL     1      45.869   5.827  11.278  0.00  0.00    +0.000 NA
ENDROOT
BRANCH   5   7
ATOM      7  C   UNL     1      47.601   6.899  12.565  0.00  0.00    +0.000 A 
ATOM      8  C   UNL     1      48.762   6.671  13.311  0.00  0.00    +0.000 A 
ATOM      9  N   UNL     1      49.770   7.562  13.480  0.00  0.00    +0.000 NA
ATOM     10  C   UNL     1      49.633   8.755  12.859  0.00  0.00    +0.000 A 
ATOM     11  C   UNL     1      48.542   9.081  12.071  0.00  0.00    +0.000 A 
ATOM     12 BR   UNL     1      48.426  10.770  11.241  0.00  0.00    +0.000 Br
ATOM     13  C   UNL     1      47.523   8.142  11.919  0.00  0.00    +0.000 A 
ENDBRANCH   5   7
BRANCH   1  14
ATOM     14  C   UNL     1      44.193   4.714   9.829  0.00  0.00    +0.000 C 
BRANCH  14  15
ATOM     15  N   UNL     1      45.143   4.695   8.727  0.00  0.00    +0.000 N 
ATOM     16  H   UNL     1      45.012   5.424   8.032  0.00  0.00    +0.000 HD
BRANCH  15  23
ATOM     17 CL   UNL     1      44.268   1.642   9.658  0.00  0.00    +0.000 Cl
ATOM     18  C   UNL     1      45.514   2.188   8.596  0.00  0.00    +0.000 A 
ATOM     19  N   UNL     1      46.211   1.119   8.127  0.00  0.00    +0.000 NA
ATOM     20  C   UNL     1      47.220   1.368   7.276  0.00  0.00    +0.000 A 
ATOM     21  C   UNL     1      47.562   2.639   6.861  0.00  0.00    +0.000 A 
ATOM     22  C   UNL     1      46.822   3.715   7.352  0.00  0.00    +0.000 A 
ATOM     23  C   UNL     1      45.742   3.531   8.237  0.00  0.00    +0.000 A 
ENDBRANCH  15  23
ENDBRANCH  14  15
ENDBRANCH   1  14
TORSDOF 4
ENDMDL
MODEL 4
REMARK VINA RESULT:    -6.928      1.688      2.000
REMARK INTER + INTRA:          -9.088
REMARK INTER:                  -8.845
REMARK INTRA:                  -0.243
REMARK UNBOUND:                -0.540
REMARK  Name = 
REMARK  4 active torsions:
REMARK  status: ('A' for Active; 'I' for Inactive)
REMARK    1  A    between atoms: C_7  and  N_8
REMARK    2  A    between atoms: N_8  and  C_9
REMARK    3  A    between atoms: C_9  and  C_10
REMARK    4  A    between atoms: C_14  and  C_15
REMARK                            x       y       z     vdW  Elec       q    Type
REMARK                         _______ _______ _______ _____ _____    ______ ____
ROOT
ATOM      1  C   UNL     1      44.816   4.524  11.028  0.00  0.00    +0.000 A 
ATOM      2  C   UNL     1      44.741   3.704  12.147  0.00  0.00    +0.000 A 
ATOM      3  N   UNL     1      45.385   3.983  13.302  0.00  0.00    +0.000 NA
ATOM      4  C   UNL     1      46.117   5.124  13.296  0.00  0.00    +0.000 A 
ATOM      5  C   UNL     1      46.207   5.977  12.196  0.00  0.00    +0.000 A 
ATOM      6  N   UNL     1      45.536   5.682  11.050  0.00  0.00    +0.000 NA
ENDROOT
BRANCH   5   7
ATOM      7  C   UNL     1      46.986   7.223  12.200  0.00  0.00    +0.000 A 
ATOM      8  C   UNL     1      46.419   8.463  12.513  0.00  0.00    +0.000 A 
ATOM      9  N   UNL     1      47.072   9.652  12.481  0.00  0.00    +0.000 NA
ATOM     10  C   UNL     1      48.377   9.615  12.131  0.00  0.00    +0.000 A 
ATOM     11  C   UNL     1      49.052   8.444  11.831  0.00  0.00    +0.000 A 
ATOM     12 BR   UNL     1      50.874   8.481  11.350  0.00  0.00    +0.000 Br
ATOM     13  C   UNL     1      48.351   7.240  11.873  0.00  0.00    +0.000 A 
ENDBRANCH   5   7
BRANCH   1  14
ATOM     14  C   UNL     1      44.140   4.110   9.734  0.00  0.00    +0.000 C 
BRANCH  14  15
ATOM     15  N   UNL     1      44.454   2.740   9.354  0.00  0.00    +0.000 N 
ATOM     16  H   UNL     1      44.151   2.031  10.014  0.00  0.00    +0.000 HD
BRANCH  15  23
ATOM     17 CL   UNL     1      46.466   4.925   7.895  0.00  0.00    +0.000 Cl
ATOM     18  C   UNL     1      46.457   3.200   7.865  0.00  0.00    +0.000 A 
ATOM     19  N   UNL     1      47.466   2.754   7.071  0.00  0.00    +0.000 NA
ATOM     20  C   UNL     1      47.607   1.424   6.943  0.00  0.00    +0.000 A 
ATOM     21  C   UNL     1      46.788   0.514   7.579  0.00  0.00    +0.000 A 
ATOM     22  C   UNL     1      45.767   1.002   8.395  0.00  0.00    +0.000 A 
ATOM     23  C   UNL     1      45.567   2.382   8.589  0.00  0.00    +0.000 A 
ENDBRANCH  15  23
ENDBRANCH  14  15
ENDBRANCH   1  14
TORSDOF 4
ENDMDL
MODEL 5
REMARK VINA RESULT:    -6.823      3.456      4.716
REMARK INTER + INTRA:          -8.959
REMARK INTER:                  -8.503
REMARK INTRA:                  -0.456
REMARK UNBOUND:                -0.540
REMARK  Name = 
REMARK  4 active torsions:
REMARK  status: ('A' for Active; 'I' for Inactive)
REMARK    1  A    between atoms: C_7  and  N_8
REMARK    2  A    between atoms: N_8  and  C_9
REMARK    3  A    between atoms: C_9  and  C_10
REMARK    4  A    between atoms: C_14  and  C_15
REMARK                            x       y       z     vdW  Elec       q    Type
REMARK                         _______ _______ _______ _____ _____    ______ ____
ROOT
ATOM      1  C   UNL     1      45.762   5.944  12.281  0.00  0.00    +0.000 A 
ATOM      2  C   UNL     1      46.731   6.682  11.612  0.00  0.00    +0.000 A 
ATOM      3  N   UNL     1      47.961   6.909  12.126  0.00  0.00    +0.000 NA
ATOM      4  C   UNL     1      48.187   6.367  13.348  0.00  0.00    +0.000 A 
ATOM      5  C   UNL     1      47.242   5.613  14.044  0.00  0.00    +0.000 A 
ATOM      6  N   UNL     1      46.017   5.385  13.498  0.00  0.00    +0.000 NA
ENDROOT
BRANCH   5   7
ATOM      7  C   UNL     1      47.499   5.011  15.360  0.00  0.00    +0.000 A 
ATOM      8  C   UNL     1      46.824   3.872  15.811  0.00  0.00    +0.000 A 
ATOM      9  N   UNL     1      46.976   3.305  17.033  0.00  0.00    +0.000 NA
ATOM     10  C   UNL     1      47.868   3.891  17.865  0.00  0.00    +0.000 A 
ATOM     11  C   UNL     1      48.615   5.003  17.516  0.00  0.00    +0.000 A 
ATOM     12 BR   UNL     1      49.836   5.761  18.736  0.00  0.00    +0.000 Br
ATOM     13  C   UNL     1      48.432   5.562  16.253  0.00  0.00    +0.000 A 
ENDBRANCH   5   7
BRANCH   1  14
ATOM     14  C   UNL     1      44.372   5.799  11.689  0.00  0.00    +0.000 C 
BRANCH  14  15
ATOM     15  N   UNL     1      44.397   5.603  10.247  0.00  0.00    +0.000 N 
ATOM     16  H   UNL     1      43.747   6.182   9.723  0.00  0.00    +0.000 HD
BRANCH  15  23
ATOM     17 CL   UNL     1      43.386   2.656  11.362  0.00  0.00    +0.000 Cl
ATOM     18  C   UNL     1      44.411   3.075  10.038  0.00  0.00    +0.000 A 
ATOM     19  N   UNL     1      44.841   1.942   9.421  0.00  0.00    +0.000 NA
ATOM     20  C   UNL     1      45.648   2.089   8.357  0.00  0.00    +0.000 A 
ATOM     21  C   UNL     1      46.041   3.320   7.872  0.00  0.00    +0.000 A 
ATOM     22  C   UNL     1      45.575   4.464   8.520  0.00  0.00    +0.000 A 
ATOM     23  C   UNL     1      44.715   4.389   9.633  0.00  0.00    +0.000 A 
ENDBRANCH  15  23
ENDBRANCH  14  15
ENDBRANCH   1  14
TORSDOF 4
ENDMDL
MODEL 6
REMARK VINA RESULT:    -6.703      4.481      7.512
REMARK INTER + INTRA:          -8.810
REMARK INTER:                  -8.342
REMARK INTRA:                  -0.468
REMARK UNBOUND:                -0.540
REMARK  Name = 
REMARK  4 active torsions:
REMARK  status: ('A' for Active; 'I' for Inactive)
REMARK    1  A    between atoms: C_7  and  N_8
REMARK    2  A    between atoms: N_8  and  C_9
REMARK    3  A    between atoms: C_9  and  C_10
REMARK    4  A    between atoms: C_14  and  C_15
REMARK                            x       y       z     vdW  Elec       q    Type
REMARK                         _______ _______ _______ _____ _____    ______ ____
ROOT
ATOM      1  C   UNL     1      46.998   6.846  13.135  0.00  0.00    +0.000 A 
ATOM      2  C   UNL     1      46.322   8.060  13.131  0.00  0.00    +0.000 A 
ATOM      3  N   UNL     1      45.264   8.305  12.326  0.00  0.00    +0.000 NA
ATOM      4  C   UNL     1      44.906   7.281  11.513  0.00  0.00    +0.000 A 
ATOM      5  C   UNL     1      45.555   6.046  11.497  0.00  0.00    +0.000 A 
ATOM      6  N   UNL     1      46.607   5.819  12.329  0.00  0.00    +0.000 NA
ENDROOT
BRANCH   5   7
ATOM      7  C   UNL     1      45.150   4.932  10.627  0.00  0.00    +0.000 A 
ATOM      8  C   UNL     1      44.195   3.986  11.013  0.00  0.00    +0.000 A 
ATOM      9  N   UNL     1      43.822   2.908  10.280  0.00  0.00    +0.000 NA
ATOM     10  C   UNL     1      44.419   2.759   9.076  0.00  0.00    +0.000 A 
ATOM     11  C   UNL     1      45.356   3.648   8.577  0.00  0.00    +0.000 A 
ATOM     12 BR   UNL     1      46.145   3.366   6.888  0.00  0.00    +0.000 Br
ATOM     13  C   UNL     1      45.718   4.745   9.357  0.00  0.00    +0.000 A 
ENDBRANCH   5   7
BRANCH   1  14
ATOM     14  C   UNL     1      48.232   6.665  14.000  0.00  0.00    +0.000 C 
BRANCH  14  15
ATOM     15  N   UNL     1      47.904   6.476  15.406  0.00  0.00    +0.000 N 
ATOM     16  H   UNL     1      47.795   7.332  15.941  0.00  0.00    +0.000 HD
BRANCH  15  23
ATOM     17 CL   UNL     1      50.909   6.186  16.762  0.00  0.00    +0.000 Cl
ATOM     18  C   UNL     1      49.574   5.095  16.727  0.00  0.00    +0.000 A 
ATOM     19  N   UNL     1      49.910   3.945  17.371  0.00  0.00    +0.000 NA
ATOM     20  C   UNL     1      48.974   2.984  17.443  0.00  0.00    +0.000 A 
ATOM     21  C   UNL     1      47.710   3.119  16.907  0.00  0.00    +0.000 A 
ATOM     22  C   UNL     1      47.391   4.314  16.261  0.00  0.00    +0.000 A 
ATOM     23  C   UNL     1      48.315   5.372  16.158  0.00  0.00    +0.000 A 
ENDBRANCH  15  23
ENDBRANCH  14  15
ENDBRANCH   1  14
TORSDOF 4
ENDMDL
MODEL 7
REMARK VINA RESULT:    -6.696      3.521      7.003
REMARK INTER + INTRA:          -8.802
REMARK INTER:                  -8.125
REMARK INTRA:                  -0.677
REMARK UNBOUND:                -0.540
REMARK  Name = 
REMARK  4 active torsions:
REMARK  status: ('A' for Active; 'I' for Inactive)
REMARK    1  A    between atoms: C_7  and  N_8
REMARK    2  A    between atoms: N_8  and  C_9
REMARK    3  A    between atoms: C_9  and  C_10
REMARK    4  A    between atoms: C_14  and  C_15
REMARK                            x       y       z     vdW  Elec       q    Type
REMARK                         _______ _______ _______ _____ _____    ______ ____
ROOT
ATOM      1  C   UNL     1      46.644   7.714  12.997  0.00  0.00    +0.000 A 
ATOM      2  C   UNL     1      45.887   8.870  12.864  0.00  0.00    +0.000 A 
ATOM      3  N   UNL     1      44.828   8.958  12.028  0.00  0.00    +0.000 NA
ATOM      4  C   UNL     1      44.553   7.834  11.322  0.00  0.00    +0.000 A 
ATOM      5  C   UNL     1      45.285   6.652  11.438  0.00  0.00    +0.000 A 
ATOM      6  N   UNL     1      46.336   6.585  12.297  0.00  0.00    +0.000 NA
ENDROOT
BRANCH   5   7
ATOM      7  C   UNL     1      44.970   5.430  10.684  0.00  0.00    +0.000 A 
ATOM      8  C   UNL     1      44.016   4.504  11.116  0.00  0.00    +0.000 A 
ATOM      9  N   UNL     1      43.722   3.335  10.495  0.00  0.00    +0.000 NA
ATOM     10  C   UNL     1      44.406   3.066   9.360  0.00  0.00    +0.000 A 
ATOM     11  C   UNL     1      45.351   3.921   8.820  0.00  0.00    +0.000 A 
ATOM     12 BR   UNL     1      46.262   3.469   7.233  0.00  0.00    +0.000 Br
ATOM     13  C   UNL     1      45.629   5.114   9.485  0.00  0.00    +0.000 A 
ENDBRANCH   5   7
BRANCH   1  14
ATOM     14  C   UNL     1      47.874   7.707  13.887  0.00  0.00    +0.000 C 
BRANCH  14  15
ATOM     15  N   UNL     1      48.425   6.372  14.068  0.00  0.00    +0.000 N 
ATOM     16  H   UNL     1      48.690   5.897  13.210  0.00  0.00    +0.000 HD
BRANCH  15  23
ATOM     17 CL   UNL     1      46.696   3.580  13.660  0.00  0.00    +0.000 Cl
ATOM     18  C   UNL     1      47.284   4.348  15.088  0.00  0.00    +0.000 A 
ATOM     19  N   UNL     1      46.911   3.626  16.179  0.00  0.00    +0.000 NA
ATOM     20  C   UNL     1      47.296   4.084  17.381  0.00  0.00    +0.000 A 
ATOM     21  C   UNL     1      48.046   5.230  17.548  0.00  0.00    +0.000 A 
ATOM     22  C   UNL     1      48.422   5.945  16.409  0.00  0.00    +0.000 A 
ATOM     23  C   UNL     1      48.067   5.518  15.115  0.00  0.00    +0.000 A 
ENDBRANCH  15  23
ENDBRANCH  14  15
ENDBRANCH   1  14
TORSDOF 4
ENDMDL
MODEL 8
REMARK VINA RESULT:    -6.570      2.650      3.310
REMARK INTER + INTRA:          -8.646
REMARK INTER:                  -7.893
REMARK INTRA:                  -0.753
REMARK UNBOUND:                -0.540
REMARK  Name = 
REMARK  4 active torsions:
REMARK  status: ('A' for Active; 'I' for Inactive)
REMARK    1  A    between atoms: C_7  and  N_8
REMARK    2  A    between atoms: N_8  and  C_9
REMARK    3  A    between atoms: C_9  and  C_10
REMARK    4  A    between atoms: C_14  and  C_15
REMARK                            x       y       z     vdW  Elec       q    Type
REMARK                         _______ _______ _______ _____ _____    ______ ____
ROOT
ATOM      1  C   UNL     1      45.443   4.221  12.647  0.00  0.00    +0.000 A 
ATOM      2  C   UNL     1      46.516   3.862  13.452  0.00  0.00    +0.000 A 
ATOM      3  N   UNL     1      47.427   4.755  13.899  0.00  0.00    +0.000 NA
ATOM      4  C   UNL     1      47.223   6.036  13.503  0.00  0.00    +0.000 A 
ATOM      5  C   UNL     1      46.152   6.435  12.703  0.00  0.00    +0.000 A 
ATOM      6  N   UNL     1      45.241   5.519  12.280  0.00  0.00    +0.000 NA
ENDROOT
BRANCH   5   7
ATOM      7  C   UNL     1      45.926   7.828  12.293  0.00  0.00    +0.000 A 
ATOM      8  C   UNL     1      46.852   8.846  12.544  0.00  0.00    +0.000 A 
ATOM      9  N   UNL     1      46.676  10.156  12.240  0.00  0.00    +0.000 NA
ATOM     10  C   UNL     1      45.514  10.485  11.632  0.00  0.00    +0.000 A 
ATOM     11  C   UNL     1      44.537   9.559  11.307  0.00  0.00    +0.000 A 
ATOM     12 BR   UNL     1      42.942  10.101  10.461  0.00  0.00    +0.000 Br
ATOM     13  C   UNL     1      44.750   8.221  11.634  0.00  0.00    +0.000 A 
ENDBRANCH   5   7
BRANCH   1  14
ATOM     14  C   UNL     1      44.505   3.157  12.107  0.00  0.00    +0.000 C 
BRANCH  14  15
ATOM     15  N   UNL     1      44.158   3.375  10.710  0.00  0.00    +0.000 N 
ATOM     16  H   UNL     1      43.172   3.269  10.491  0.00  0.00    +0.000 HD
BRANCH  15  23
ATOM     17 CL   UNL     1      45.891   5.698   9.114  0.00  0.00    +0.000 Cl
ATOM     18  C   UNL     1      45.757   4.000   8.842  0.00  0.00    +0.000 A 
ATOM     19  N   UNL     1      46.507   3.652   7.762  0.00  0.00    +0.000 NA
ATOM     20  C   UNL     1      46.521   2.354   7.414  0.00  0.00    +0.000 A 
ATOM     21  C   UNL     1      45.825   1.381   8.102  0.00  0.00    +0.000 A 
ATOM     22  C   UNL     1      45.072   1.767   9.212  0.00  0.00    +0.000 A 
ATOM     23  C   UNL     1      45.021   3.107   9.644  0.00  0.00    +0.000 A 
ENDBRANCH  15  23
ENDBRANCH  14  15
ENDBRANCH   1  14
TORSDOF 4
ENDMDL
MODEL 9
REMARK VINA RESULT:    -6.206      5.939      8.209
REMARK INTER + INTRA:          -8.196
REMARK INTER:                  -7.800
REMARK INTRA:                  -0.396
REMARK UNBOUND:                -0.540
REMARK  Name = 
REMARK  4 active torsions:
REMARK  status: ('A' for Active; 'I' for Inactive)
REMARK    1  A    between atoms: C_7  and  N_8
REMARK    2  A    between atoms: N_8  and  C_9
REMARK    3  A    between atoms: C_9  and  C_10
REMARK    4  A    between atoms: C_14  and  C_15
REMARK                            x       y       z     vdW  Elec       q    Type
REMARK                         _______ _______ _______ _____ _____    ______ ____
ROOT
ATOM      1  C   UNL     1      47.355   4.504  15.704  0.00  0.00    +0.000 A 
ATOM      2  C   UNL     1      48.279   5.525  15.519  0.00  0.00    +0.000 A 
ATOM      3  N   UNL     1      48.285   6.316  14.422  0.00  0.00    +0.000 NA
ATOM      4  C   UNL     1      47.323   6.042  13.506  0.00  0.00    +0.000 A 
ATOM      5  C   UNL     1      46.373   5.032  13.664  0.00  0.00    +0.000 A 
ATOM      6  N   UNL     1      46.379   4.261  14.784  0.00  0.00    +0.000 NA
ENDROOT
BRANCH   5   7
ATOM      7  C   UNL     1      45.320   4.753  12.676  0.00  0.00    +0.000 A 
ATOM      8  C   UNL     1      43.978   4.591  13.034  0.00  0.00    +0.000 A 
ATOM      9  N   UNL     1      42.973   4.278  12.180  0.00  0.00    +0.000 NA
ATOM     10  C   UNL     1      43.310   4.128  10.879  0.00  0.00    +0.000 A 
ATOM     11  C   UNL     1      44.600   4.293  10.404  0.00  0.00    +0.000 A 
ATOM     12 BR   UNL     1      44.987   4.064   8.573  0.00  0.00    +0.000 Br
ATOM     13  C   UNL     1      45.610   4.614  11.310  0.00  0.00    +0.000 A 
ENDBRANCH   5   7
BRANCH   1  14
ATOM     14  C   UNL     1      47.457   3.596  16.916  0.00  0.00    +0.000 C 
BRANCH  14  15
ATOM     15  N   UNL     1      48.467   4.043  17.865  0.00  0.00    +0.000 N 
ATOM     16  H   UNL     1      48.398   5.018  18.139  0.00  0.00    +0.000 HD
BRANCH  15  23
ATOM     17 CL   UNL     1      51.054   5.654  19.155  0.00  0.00    +0.000 Cl
ATOM     18  C   UNL     1      50.949   4.112  18.387  0.00  0.00    +0.000 A 
ATOM     19  N   UNL     1      52.185   3.548  18.331  0.00  0.00    +0.000 NA
ATOM     20  C   UNL     1      52.282   2.332  17.766  0.00  0.00    +0.000 A 
ATOM     21  C   UNL     1      51.197   1.647  17.259  0.00  0.00    +0.000 A 
ATOM     22  C   UNL     1      49.940   2.248  17.340  0.00  0.00    +0.000 A 
ATOM     23  C   UNL     1      49.759   3.513  17.931  0.00  0.00    +0.000 A 
ENDBRANCH  15  23
ENDBRANCH  14  15
ENDBRANCH   1  14
TORSDOF 4
ENDMDL
