MODEL 1
REMARK VINA RESULT:    -7.488      0.000      0.000
REMARK INTER + INTRA:         -11.565
REMARK INTER:                 -10.552
REMARK INTRA:                  -1.013
REMARK UNBOUND:                -1.013
REMARK  Name = 
REMARK  7 active torsions:
REMARK  status: ('A' for Active; 'I' for Inactive)
REMARK    1  A    between atoms: C_2  and  C_19
REMARK    2  A    between atoms: N_3  and  C_4
REMARK    3  A    between atoms: C_4  and  C_5
REMARK    4  A    between atoms: C_8  and  C_9
REMARK    5  A    between atoms: C_9  and  N_10
REMARK    6  A    between atoms: N_10  and  C_11
REMARK    7  A    between atoms: C_11  and  C_12
REMARK                            x       y       z     vdW  Elec       q    Type
REMARK                         _______ _______ _______ _____ _____    ______ ____
ROOT
ATOM      1  C   UNL     1      47.171   7.242  12.977  0.00  0.00    +0.000 C 
ENDROOT
BRANCH   1   2
ATOM      2  C   UNL     1      46.308   6.171  12.396  0.00  0.00    +0.000 A 
ATOM      3  C   UNL     1      45.938   5.055  13.147  0.00  0.00    +0.000 A 
ATOM      4  C   UNL     1      45.144   4.069  12.572  0.00  0.00    +0.000 A 
ATOM      5  C   UNL     1      44.711   4.226  11.257  0.00  0.00    +0.000 A 
ATOM      6  N   UNL     1      45.048   5.317  10.521  0.00  0.00    +0.000 NA
ATOM      7  C   UNL     1      45.832   6.252  11.097  0.00  0.00    +0.000 A 
BRANCH   5   8
ATOM      8  C   UNL     1      43.806   3.182  10.603  0.00  0.00    +0.000 C 
BRANCH   8   9
ATOM      9  N   UNL     1      44.570   2.123   9.932  0.00  0.00    +0.000 NA
ATOM     10  H   UNL     1      44.087   1.238  10.076  0.00  0.00    +0.000 HD
BRANCH   9  11
ATOM     11  C   UNL     1      44.843   2.369   8.520  0.00  0.00    +0.000 C 
BRANCH  11  12
ATOM     12  C   UNL     1      46.374   2.404   8.267  0.00  0.00    +0.000 C 
ATOM     13  C   UNL     1      46.747   3.476   7.245  0.00  0.00    +0.000 C 
ATOM     14  C   UNL     1      46.584   2.751   5.926  0.00  0.00    +0.000 C 
ATOM     15  N   UNL     1      47.151   1.421   6.176  0.00  0.00    +0.000 NA
ATOM     16  C   UNL     1      46.950   1.137   7.611  0.00  0.00    +0.000 C 
ATOM     17  H   UNL     1      48.156   1.468   5.996  0.00  0.00    +0.000 HD
ENDBRANCH  11  12
ENDBRANCH   9  11
ENDBRANCH   8   9
ENDBRANCH   5   8
ENDBRANCH   1   2
BRANCH   1  20
ATOM     18  O   UNL     1      49.742   6.960  14.042  0.00  0.00    +0.000 OA
ATOM     19  C   UNL     1      48.768   6.873  14.799  0.00  0.00    +0.000 C 
ATOM     20  N   UNL     1      47.476   6.962  14.360  0.00  0.00    +0.000 N 
ATOM     21  H   UNL     1      46.714   7.059  15.022  0.00  0.00    +0.000 HD
BRANCH  19  22
ATOM     22  C   UNL     1      48.937   6.649  16.228  0.00  0.00    +0.000 A 
ATOM     23  C   UNL     1      49.373   7.644  17.087  0.00  0.00    +0.000 A 
ATOM     24  S   UNL     1      49.481   7.122  18.713  0.00  0.00    +0.000 S 
ATOM     25  C   UNL     1      48.921   5.564  18.309  0.00  0.00    +0.000 A 
ATOM     26  N   UNL     1      48.764   4.599  19.254  0.00  0.00    +0.000 NA
ATOM     27  C   UNL     1      48.309   3.480  18.796  0.00  0.00    +0.000 A 
ATOM     28  N   UNL     1      47.994   3.230  17.488  0.00  0.00    +0.000 N 
ATOM     29  C   UNL     1      48.185   4.151  16.491  0.00  0.00    +0.000 A 
ATOM     30  O   UNL     1      48.003   3.847  15.313  0.00  0.00    +0.000 OA
ATOM     31  C   UNL     1      48.672   5.437  16.956  0.00  0.00    +0.000 A 
ATOM     32  H   UNL     1      47.675   2.326  17.189  0.00  0.00    +0.000 HD
ENDBRANCH  19  22
ENDBRANCH   1  20
TORSDOF 7
ENDMDL
MODEL 2
REMARK VINA RESULT:    -7.097      1.621      2.131
REMARK INTER + INTRA:         -11.015
REMARK INTER:                 -10.010
REMARK INTRA:                  -1.005
REMARK UNBOUND:                -1.013
REMARK  Name = 
REMARK  7 active torsions:
REMARK  status: ('A' for Active; 'I' for Inactive)
REMARK    1  A    between atoms: C_2  and  C_19
REMARK    2  A    between atoms: N_3  and  C_4
REMARK    3  A    between atoms: C_4  and  C_5
REMARK    4  A    between atoms: C_8  and  C_9
REMARK    5  A    between atoms: C_9  and  N_10
REMARK    6  A    between atoms: N_10  and  C_11
REMARK    7  A    between atoms: C_11  and  C_12
REMARK                            x       y       z     vdW  Elec       q    Type
REMARK                         _______ _______ _______ _____ _____    ______ ____
ROOT
ATOM      1  C   UNL     1      48.065   6.648  13.989  0.00  0.00    +0.000 C 
ENDROOT
BRANCH   1   2
ATOM      2  C   UNL     1      46.916   5.789  13.576  0.00  0.00    +0.000 A 
ATOM      3  C   UNL     1      45.798   6.334  12.943  0.00  0.00    +0.000 A 
ATOM      4  C   UNL     1      44.739   5.508  12.582  0.00  0.00    +0.000 A 
ATOM      5  C   UNL     1      44.825   4.142  12.836  0.00  0.00    +0.000 A 
ATOM      6  N   UNL     1      45.916   3.595  13.433  0.00  0.00    +0.000 NA
ATOM      7  C   UNL     1      46.923   4.419  13.789  0.00  0.00    +0.000 A 
BRANCH   5   8
ATOM      8  C   UNL     1      43.697   3.197  12.419  0.00  0.00    +0.000 C 
BRANCH   8   9
ATOM      9  N   UNL     1      43.390   3.293  10.986  0.00  0.00    +0.000 NA
ATOM     10  H   UNL     1      42.957   4.198  10.811  0.00  0.00    +0.000 HD
BRANCH   9  11
ATOM     11  C   UNL     1      44.526   3.053  10.103  0.00  0.00    +0.000 C 
BRANCH  11  12
ATOM     12  C   UNL     1      44.521   4.073   8.933  0.00  0.00    +0.000 C 
ATOM     13  C   UNL     1      44.724   3.379   7.587  0.00  0.00    +0.000 C 
ATOM     14  C   UNL     1      46.231   3.312   7.470  0.00  0.00    +0.000 C 
ATOM     15  N   UNL     1      46.687   4.618   7.958  0.00  0.00    +0.000 NA
ATOM     16  C   UNL     1      45.687   5.076   8.943  0.00  0.00    +0.000 C 
ATOM     17  H   UNL     1      46.682   5.269   7.169  0.00  0.00    +0.000 HD
ENDBRANCH  11  12
ENDBRANCH   9  11
ENDBRANCH   8   9
ENDBRANCH   5   8
ENDBRANCH   1   2
BRANCH   1  20
ATOM     18  O   UNL     1      50.458   6.739  15.435  0.00  0.00    +0.000 OA
ATOM     19  C   UNL     1      49.386   6.783  16.050  0.00  0.00    +0.000 C 
ATOM     20  N   UNL     1      48.170   6.707  15.428  0.00  0.00    +0.000 N 
ATOM     21  H   UNL     1      47.319   6.917  15.937  0.00  0.00    +0.000 HD
BRANCH  19  22
ATOM     22  C   UNL     1      49.349   6.900  17.500  0.00  0.00    +0.000 A 
ATOM     23  C   UNL     1      49.555   8.107  18.151  0.00  0.00    +0.000 A 
ATOM     24  S   UNL     1      49.454   7.972  19.853  0.00  0.00    +0.000 S 
ATOM     25  C   UNL     1      49.103   6.307  19.757  0.00  0.00    +0.000 A 
ATOM     26  N   UNL     1      48.886   5.562  20.874  0.00  0.00    +0.000 NA
ATOM     27  C   UNL     1      48.609   4.323  20.637  0.00  0.00    +0.000 A 
ATOM     28  N   UNL     1      48.526   3.755  19.395  0.00  0.00    +0.000 N 
ATOM     29  C   UNL     1      48.788   4.449  18.244  0.00  0.00    +0.000 A 
ATOM     30  O   UNL     1      48.820   3.874  17.157  0.00  0.00    +0.000 OA
ATOM     31  C   UNL     1      49.081   5.856  18.452  0.00  0.00    +0.000 A 
ATOM     32  H   UNL     1      48.339   2.775  19.279  0.00  0.00    +0.000 HD
ENDBRANCH  19  22
ENDBRANCH   1  20
TORSDOF 7
ENDMDL
MODEL 3
REMARK VINA RESULT:    -7.031      3.356      8.269
REMARK INTER + INTRA:         -10.921
REMARK INTER:                  -9.543
REMARK INTRA:                  -1.379
REMARK UNBOUND:                -1.013
REMARK  Name = 
REMARK  7 active torsions:
REMARK  status: ('A' for Active; 'I' for Inactive)
REMARK    1  A    between atoms: C_2  and  C_19
REMARK    2  A    between atoms: N_3  and  C_4
REMARK    3  A    between atoms: C_4  and  C_5
REMARK    4  A    between atoms: C_8  and  C_9
REMARK    5  A    between atoms: C_9  and  N_10
REMARK    6  A    between atoms: N_10  and  C_11
REMARK    7  A    between atoms: C_11  and  C_12
REMARK                            x       y       z     vdW  Elec       q    Type
REMARK                         _______ _______ _______ _____ _____    ______ ____
ROOT
ATOM      1  C   UNL     1      47.984   8.036  12.322  0.00  0.00    +0.000 C 
ENDROOT
BRANCH   1   2
ATOM      2  C   UNL     1      48.783   7.618  13.512  0.00  0.00    +0.000 A 
ATOM      3  C   UNL     1      50.028   8.187  13.783  0.00  0.00    +0.000 A 
ATOM      4  C   UNL     1      50.752   7.766  14.893  0.00  0.00    +0.000 A 
ATOM      5  C   UNL     1      50.208   6.796  15.732  0.00  0.00    +0.000 A 
ATOM      6  N   UNL     1      48.988   6.248  15.491  0.00  0.00    +0.000 NA
ATOM      7  C   UNL     1      48.313   6.661  14.399  0.00  0.00    +0.000 A 
BRANCH   5   8
ATOM      8  C   UNL     1      50.957   6.335  16.983  0.00  0.00    +0.000 C 
BRANCH   8   9
ATOM      9  N   UNL     1      50.055   6.093  18.116  0.00  0.00    +0.000 NA
ATOM     10  H   UNL     1      49.112   6.358  17.838  0.00  0.00    +0.000 HD
BRANCH   9  11
ATOM     11  C   UNL     1      50.102   4.737  18.653  0.00  0.00    +0.000 C 
BRANCH  11  12
ATOM     12  C   UNL     1      48.680   4.274  19.068  0.00  0.00    +0.000 C 
ATOM     13  C   UNL     1      48.257   3.019  18.308  0.00  0.00    +0.000 C 
ATOM     14  C   UNL     1      47.660   3.583  17.037  0.00  0.00    +0.000 C 
ATOM     15  N   UNL     1      46.882   4.742  17.490  0.00  0.00    +0.000 NA
ATOM     16  C   UNL     1      47.550   5.252  18.704  0.00  0.00    +0.000 C 
ATOM     17  H   UNL     1      45.950   4.413  17.750  0.00  0.00    +0.000 HD
ENDBRANCH  11  12
ENDBRANCH   9  11
ENDBRANCH   8   9
ENDBRANCH   5   8
ENDBRANCH   1   2
BRANCH   1  20
ATOM     18  O   UNL     1      45.270   7.852  11.673  0.00  0.00    +0.000 OA
ATOM     19  C   UNL     1      46.018   6.908  11.390  0.00  0.00    +0.000 C 
ATOM     20  N   UNL     1      47.350   6.898  11.703  0.00  0.00    +0.000 N 
ATOM     21  H   UNL     1      47.964   6.194  11.309  0.00  0.00    +0.000 HD
BRANCH  19  22
ATOM     22  C   UNL     1      45.517   5.721  10.713  0.00  0.00    +0.000 A 
ATOM     23  C   UNL     1      45.784   5.463   9.378  0.00  0.00    +0.000 A 
ATOM     24  S   UNL     1      45.084   4.001   8.828  0.00  0.00    +0.000 S 
ATOM     25  C   UNL     1      44.434   3.669  10.368  0.00  0.00    +0.000 A 
ATOM     26  N   UNL     1      43.711   2.541  10.604  0.00  0.00    +0.000 NA
ATOM     27  C   UNL     1      43.306   2.419  11.825  0.00  0.00    +0.000 A 
ATOM     28  N   UNL     1      43.554   3.311  12.833  0.00  0.00    +0.000 N 
ATOM     29  C   UNL     1      44.229   4.485  12.633  0.00  0.00    +0.000 A 
ATOM     30  O   UNL     1      44.326   5.315  13.536  0.00  0.00    +0.000 OA
ATOM     31  C   UNL     1      44.729   4.661  11.282  0.00  0.00    +0.000 A 
ATOM     32  H   UNL     1      43.181   3.174  13.756  0.00  0.00    +0.000 HD
ENDBRANCH  19  22
ENDBRANCH   1  20
TORSDOF 7
ENDMDL
MODEL 4
REMARK VINA RESULT:    -6.906      3.208      4.841
REMARK INTER + INTRA:         -10.746
REMARK INTER:                  -9.600
REMARK INTRA:                  -1.146
REMARK UNBOUND:                -1.013
REMARK  Name = 
REMARK  7 active torsions:
REMARK  status: ('A' for Active; 'I' for Inactive)
REMARK    1  A    between atoms: C_2  and  C_19
REMARK    2  A    between atoms: N_3  and  C_4
REMARK    3  A    between atoms: C_4  and  C_5
REMARK    4  A    between atoms: C_8  and  C_9
REMARK    5  A    between atoms: C_9  and  N_10
REMARK    6  A    between atoms: N_10  and  C_11
REMARK    7  A    between atoms: C_11  and  C_12
REMARK                            x       y       z     vdW  Elec       q    Type
REMARK                         _______ _______ _______ _____ _____    ______ ____
ROOT
ATOM      1  C   UNL     1      48.979   5.984  17.693  0.00  0.00    +0.000 C 
ENDROOT
BRANCH   1   2
ATOM      2  C   UNL     1      48.250   5.452  16.504  0.00  0.00    +0.000 A 
ATOM      3  C   UNL     1      48.273   6.126  15.282  0.00  0.00    +0.000 A 
ATOM      4  C   UNL     1      47.573   5.610  14.197  0.00  0.00    +0.000 A 
ATOM      5  C   UNL     1      46.878   4.412  14.343  0.00  0.00    +0.000 A 
ATOM      6  N   UNL     1      46.864   3.736  15.522  0.00  0.00    +0.000 NA
ATOM      7  C   UNL     1      47.537   4.265  16.564  0.00  0.00    +0.000 A 
BRANCH   5   8
ATOM      8  C   UNL     1      46.128   3.794  13.163  0.00  0.00    +0.000 C 
BRANCH   8   9
ATOM      9  N   UNL     1      44.686   4.070  13.212  0.00  0.00    +0.000 NA
ATOM     10  H   UNL     1      44.547   5.071  13.094  0.00  0.00    +0.000 HD
BRANCH   9  11
ATOM     11  C   UNL     1      43.885   3.295  12.270  0.00  0.00    +0.000 C 
BRANCH  11  12
ATOM     12  C   UNL     1      43.294   4.223  11.177  0.00  0.00    +0.000 C 
ATOM     13  C   UNL     1      44.044   4.076   9.854  0.00  0.00    +0.000 C 
ATOM     14  C   UNL     1      45.190   5.052  10.009  0.00  0.00    +0.000 C 
ATOM     15  N   UNL     1      44.578   6.225  10.643  0.00  0.00    +0.000 NA
ATOM     16  C   UNL     1      43.449   5.729  11.454  0.00  0.00    +0.000 C 
ATOM     17  H   UNL     1      44.204   6.824   9.903  0.00  0.00    +0.000 HD
ENDBRANCH  11  12
ENDBRANCH   9  11
ENDBRANCH   8   9
ENDBRANCH   5   8
ENDBRANCH   1   2
BRANCH   1  20
ATOM     18  O   UNL     1      51.566   6.042  16.633  0.00  0.00    +0.000 OA
ATOM     19  C   UNL     1      51.303   5.224  17.523  0.00  0.00    +0.000 C 
ATOM     20  N   UNL     1      50.057   5.102  18.073  0.00  0.00    +0.000 N 
ATOM     21  H   UNL     1      49.917   4.549  18.910  0.00  0.00    +0.000 HD
BRANCH  19  22
ATOM     22  C   UNL     1      52.315   4.313  18.037  0.00  0.00    +0.000 A 
ATOM     23  C   UNL     1      53.426   4.759  18.735  0.00  0.00    +0.000 A 
ATOM     24  S   UNL     1      54.455   3.485  19.233  0.00  0.00    +0.000 S 
ATOM     25  C   UNL     1      53.424   2.311  18.554  0.00  0.00    +0.000 A 
ATOM     26  N   UNL     1      53.710   0.984  18.634  0.00  0.00    +0.000 NA
ATOM     27  C   UNL     1      52.821   0.218  18.093  0.00  0.00    +0.000 A 
ATOM     28  N   UNL     1      51.674   0.647  17.482  0.00  0.00    +0.000 N 
ATOM     29  C   UNL     1      51.367   1.973  17.329  0.00  0.00    +0.000 A 
ATOM     30  O   UNL     1      50.389   2.319  16.670  0.00  0.00    +0.000 OA
ATOM     31  C   UNL     1      52.323   2.878  17.942  0.00  0.00    +0.000 A 
ATOM     32  H   UNL     1      51.038   0.000  17.050  0.00  0.00    +0.000 HD
ENDBRANCH  19  22
ENDBRANCH   1  20
TORSDOF 7
ENDMDL
MODEL 5
REMARK VINA RESULT:    -6.906      3.011      8.713
REMARK INTER + INTRA:         -10.745
REMARK INTER:                  -9.613
REMARK INTRA:                  -1.132
REMARK UNBOUND:                -1.013
REMARK  Name = 
REMARK  7 active torsions:
REMARK  status: ('A' for Active; 'I' for Inactive)
REMARK    1  A    between atoms: C_2  and  C_19
REMARK    2  A    between atoms: N_3  and  C_4
REMARK    3  A    between atoms: C_4  and  C_5
REMARK    4  A    between atoms: C_8  and  C_9
REMARK    5  A    between atoms: C_9  and  N_10
REMARK    6  A    between atoms: N_10  and  C_11
REMARK    7  A    between atoms: C_11  and  C_12
REMARK                            x       y       z     vdW  Elec       q    Type
REMARK                         _______ _______ _______ _____ _____    ______ ____
ROOT
ATOM      1  C   UNL     1      47.354   7.803  12.004  0.00  0.00    +0.000 C 
ENDROOT
BRANCH   1   2
ATOM      2  C   UNL     1      48.072   7.846  13.312  0.00  0.00    +0.000 A 
ATOM      3  C   UNL     1      47.739   8.787  14.288  0.00  0.00    +0.000 A 
ATOM      4  C   UNL     1      48.437   8.809  15.491  0.00  0.00    +0.000 A 
ATOM      5  C   UNL     1      49.443   7.872  15.711  0.00  0.00    +0.000 A 
ATOM      6  N   UNL     1      49.764   6.938  14.777  0.00  0.00    +0.000 NA
ATOM      7  C   UNL     1      49.084   6.948  13.612  0.00  0.00    +0.000 A 
BRANCH   5   8
ATOM      8  C   UNL     1      50.207   7.840  17.035  0.00  0.00    +0.000 C 
BRANCH   8   9
ATOM      9  N   UNL     1      49.501   7.070  18.068  0.00  0.00    +0.000 NA
ATOM     10  H   UNL     1      48.508   7.067  17.843  0.00  0.00    +0.000 HD
BRANCH   9  11
ATOM     11  C   UNL     1      50.014   5.720  18.277  0.00  0.00    +0.000 C 
BRANCH  11  12
ATOM     12  C   UNL     1      48.964   4.856  19.024  0.00  0.00    +0.000 C 
ATOM     13  C   UNL     1      48.405   3.754  18.126  0.00  0.00    +0.000 C 
ATOM     14  C   UNL     1      47.267   4.451  17.412  0.00  0.00    +0.000 C 
ATOM     15  N   UNL     1      46.628   5.257  18.458  0.00  0.00    +0.000 NA
ATOM     16  C   UNL     1      47.683   5.604  19.431  0.00  0.00    +0.000 C 
ATOM     17  H   UNL     1      45.936   4.670  18.930  0.00  0.00    +0.000 HD
ENDBRANCH  11  12
ENDBRANCH   9  11
ENDBRANCH   8   9
ENDBRANCH   5   8
ENDBRANCH   1   2
BRANCH   1  20
ATOM     18  O   UNL     1      44.616   7.514  11.511  0.00  0.00    +0.000 OA
ATOM     19  C   UNL     1      45.323   6.501  11.567  0.00  0.00    +0.000 C 
ATOM     20  N   UNL     1      46.663   6.546  11.839  0.00  0.00    +0.000 N 
ATOM     21  H   UNL     1      47.242   5.724  11.709  0.00  0.00    +0.000 HD
BRANCH  19  22
ATOM     22  C   UNL     1      44.763   5.173  11.362  0.00  0.00    +0.000 A 
ATOM     23  C   UNL     1      43.972   4.549  12.313  0.00  0.00    +0.000 A 
ATOM     24  S   UNL     1      43.438   2.999  11.822  0.00  0.00    +0.000 S 
ATOM     25  C   UNL     1      44.228   3.141  10.318  0.00  0.00    +0.000 A 
ATOM     26  N   UNL     1      44.168   2.150   9.389  0.00  0.00    +0.000 NA
ATOM     27  C   UNL     1      44.797   2.415   8.292  0.00  0.00    +0.000 A 
ATOM     28  N   UNL     1      45.478   3.574   8.031  0.00  0.00    +0.000 N 
ATOM     29  C   UNL     1      45.612   4.577   8.953  0.00  0.00    +0.000 A 
ATOM     30  O   UNL     1      46.331   5.548   8.724  0.00  0.00    +0.000 OA
ATOM     31  C   UNL     1      44.902   4.341  10.197  0.00  0.00    +0.000 A 
ATOM     32  H   UNL     1      45.976   3.705   7.169  0.00  0.00    +0.000 HD
ENDBRANCH  19  22
ENDBRANCH   1  20
TORSDOF 7
ENDMDL
MODEL 6
REMARK VINA RESULT:    -6.830      2.300      3.098
REMARK INTER + INTRA:         -10.638
REMARK INTER:                  -9.813
REMARK INTRA:                  -0.825
REMARK UNBOUND:                -1.013
REMARK  Name = 
REMARK  7 active torsions:
REMARK  status: ('A' for Active; 'I' for Inactive)
REMARK    1  A    between atoms: C_2  and  C_19
REMARK    2  A    between atoms: N_3  and  C_4
REMARK    3  A    between atoms: C_4  and  C_5
REMARK    4  A    between atoms: C_8  and  C_9
REMARK    5  A    between atoms: C_9  and  N_10
REMARK    6  A    between atoms: N_10  and  C_11
REMARK    7  A    between atoms: C_11  and  C_12
REMARK                            x       y       z     vdW  Elec       q    Type
REMARK                         _______ _______ _______ _____ _____    ______ ____
ROOT
ATOM      1  C   UNL     1      48.078   6.124  14.287  0.00  0.00    +0.000 C 
ENDROOT
BRANCH   1   2
ATOM      2  C   UNL     1      46.877   5.577  13.589  0.00  0.00    +0.000 A 
ATOM      3  C   UNL     1      46.119   6.370  12.728  0.00  0.00    +0.000 A 
ATOM      4  C   UNL     1      44.998   5.834  12.103  0.00  0.00    +0.000 A 
ATOM      5  C   UNL     1      44.666   4.500  12.330  0.00  0.00    +0.000 A 
ATOM      6  N   UNL     1      45.407   3.711  13.150  0.00  0.00    +0.000 NA
ATOM      7  C   UNL     1      46.480   4.260  13.758  0.00  0.00    +0.000 A 
BRANCH   5   8
ATOM      8  C   UNL     1      43.464   3.865  11.631  0.00  0.00    +0.000 C 
BRANCH   8   9
ATOM      9  N   UNL     1      43.836   2.677  10.851  0.00  0.00    +0.000 NA
ATOM     10  H   UNL     1      43.033   2.397  10.291  0.00  0.00    +0.000 HD
BRANCH   9  11
ATOM     11  C   UNL     1      45.037   2.834  10.037  0.00  0.00    +0.000 C 
BRANCH  11  12
ATOM     12  C   UNL     1      44.773   3.831   8.877  0.00  0.00    +0.000 C 
ATOM     13  C   UNL     1      44.872   3.143   7.517  0.00  0.00    +0.000 C 
ATOM     14  C   UNL     1      46.350   3.231   7.205  0.00  0.00    +0.000 C 
ATOM     15  N   UNL     1      46.726   4.585   7.629  0.00  0.00    +0.000 NA
ATOM     16  C   UNL     1      45.819   4.950   8.735  0.00  0.00    +0.000 C 
ATOM     17  H   UNL     1      46.550   5.219   6.847  0.00  0.00    +0.000 HD
ENDBRANCH  11  12
ENDBRANCH   9  11
ENDBRANCH   8   9
ENDBRANCH   5   8
ENDBRANCH   1   2
BRANCH   1  20
ATOM     18  O   UNL     1      50.136   5.921  16.171  0.00  0.00    +0.000 OA
ATOM     19  C   UNL     1      48.969   6.023  16.569  0.00  0.00    +0.000 C 
ATOM     20  N   UNL     1      47.899   6.091  15.719  0.00  0.00    +0.000 N 
ATOM     21  H   UNL     1      46.982   6.346  16.068  0.00  0.00    +0.000 HD
BRANCH  19  22
ATOM     22  C   UNL     1      48.654   6.060  17.989  0.00  0.00    +0.000 A 
ATOM     23  C   UNL     1      48.797   4.952  18.808  0.00  0.00    +0.000 A 
ATOM     24  S   UNL     1      48.364   5.264  20.434  0.00  0.00    +0.000 S 
ATOM     25  C   UNL     1      48.005   6.893  20.085  0.00  0.00    +0.000 A 
ATOM     26  N   UNL     1      47.580   7.749  21.052  0.00  0.00    +0.000 NA
ATOM     27  C   UNL     1      47.371   8.954  20.637  0.00  0.00    +0.000 A 
ATOM     28  N   UNL     1      47.547   9.389  19.351  0.00  0.00    +0.000 N 
ATOM     29  C   UNL     1      47.922   8.555  18.332  0.00  0.00    +0.000 A 
ATOM     30  O   UNL     1      47.952   8.957  17.170  0.00  0.00    +0.000 OA
ATOM     31  C   UNL     1      48.193   7.191  18.749  0.00  0.00    +0.000 A 
ATOM     32  H   UNL     1      47.335  10.334  19.084  0.00  0.00    +0.000 HD
ENDBRANCH  19  22
ENDBRANCH   1  20
TORSDOF 7
ENDMDL
MODEL 7
REMARK VINA RESULT:    -6.826      4.436      9.326
REMARK INTER + INTRA:         -10.633
REMARK INTER:                  -9.872
REMARK INTRA:                  -0.761
REMARK UNBOUND:                -1.013
REMARK  Name = 
REMARK  7 active torsions:
REMARK  status: ('A' for Active; 'I' for Inactive)
REMARK    1  A    between atoms: C_2  and  C_19
REMARK    2  A    between atoms: N_3  and  C_4
REMARK    3  A    between atoms: C_4  and  C_5
REMARK    4  A    between atoms: C_8  and  C_9
REMARK    5  A    between atoms: C_9  and  N_10
REMARK    6  A    between atoms: N_10  and  C_11
REMARK    7  A    between atoms: C_11  and  C_12
REMARK                            x       y       z     vdW  Elec       q    Type
REMARK                         _______ _______ _______ _____ _____    ______ ____
ROOT
ATOM      1  C   UNL     1      47.127   3.348  16.871  0.00  0.00    +0.000 C 
ENDROOT
BRANCH   1   2
ATOM      2  C   UNL     1      48.587   3.200  17.146  0.00  0.00    +0.000 A 
ATOM      3  C   UNL     1      49.286   4.164  17.874  0.00  0.00    +0.000 A 
ATOM      4  C   UNL     1      50.649   4.002  18.102  0.00  0.00    +0.000 A 
ATOM      5  C   UNL     1      51.289   2.863  17.618  0.00  0.00    +0.000 A 
ATOM      6  N   UNL     1      50.616   1.908  16.925  0.00  0.00    +0.000 NA
ATOM      7  C   UNL     1      49.299   2.096  16.703  0.00  0.00    +0.000 A 
BRANCH   5   8
ATOM      8  C   UNL     1      52.777   2.632  17.881  0.00  0.00    +0.000 C 
BRANCH   8   9
ATOM      9  N   UNL     1      53.043   1.304  18.450  0.00  0.00    +0.000 NA
ATOM     10  H   UNL     1      52.188   0.964  18.885  0.00  0.00    +0.000 HD
BRANCH   9  11
ATOM     11  C   UNL     1      53.594   0.337  17.506  0.00  0.00    +0.000 C 
BRANCH  11  12
ATOM     12  C   UNL     1      54.892  -0.292  18.077  0.00  0.00    +0.000 C 
ATOM     13  C   UNL     1      54.815  -1.817  18.090  0.00  0.00    +0.000 C 
ATOM     14  C   UNL     1      54.139  -2.107  19.412  0.00  0.00    +0.000 C 
ATOM     15  N   UNL     1      54.766  -1.167  20.348  0.00  0.00    +0.000 NA
ATOM     16  C   UNL     1      55.162   0.017  19.560  0.00  0.00    +0.000 C 
ATOM     17  H   UNL     1      55.613  -1.606  20.716  0.00  0.00    +0.000 HD
ENDBRANCH  11  12
ENDBRANCH   9  11
ENDBRANCH   8   9
ENDBRANCH   5   8
ENDBRANCH   1   2
BRANCH   1  20
ATOM     18  O   UNL     1      47.226   3.038  14.093  0.00  0.00    +0.000 OA
ATOM     19  C   UNL     1      46.927   4.143  14.561  0.00  0.00    +0.000 C 
ATOM     20  N   UNL     1      46.890   4.394  15.905  0.00  0.00    +0.000 N 
ATOM     21  H   UNL     1      46.478   5.251  16.257  0.00  0.00    +0.000 HD
BRANCH  19  22
ATOM     22  C   UNL     1      46.609   5.271  13.697  0.00  0.00    +0.000 A 
ATOM     23  C   UNL     1      47.512   6.291  13.449  0.00  0.00    +0.000 A 
ATOM     24  S   UNL     1      46.892   7.490  12.397  0.00  0.00    +0.000 S 
ATOM     25  C   UNL     1      45.414   6.657  12.229  0.00  0.00    +0.000 A 
ATOM     26  N   UNL     1      44.415   7.137  11.441  0.00  0.00    +0.000 NA
ATOM     27  C   UNL     1      43.367   6.382  11.397  0.00  0.00    +0.000 A 
ATOM     28  N   UNL     1      43.221   5.194  12.060  0.00  0.00    +0.000 N 
ATOM     29  C   UNL     1      44.175   4.696  12.907  0.00  0.00    +0.000 A 
ATOM     30  O   UNL     1      43.956   3.688  13.576  0.00  0.00    +0.000 OA
ATOM     31  C   UNL     1      45.386   5.494  12.974  0.00  0.00    +0.000 A 
ATOM     32  H   UNL     1      42.366   4.669  12.011  0.00  0.00    +0.000 HD
ENDBRANCH  19  22
ENDBRANCH   1  20
TORSDOF 7
ENDMDL
MODEL 8
REMARK VINA RESULT:    -6.750      1.745      2.286
REMARK INTER + INTRA:         -10.525
REMARK INTER:                  -9.634
REMARK INTRA:                  -0.891
REMARK UNBOUND:                -1.013
REMARK  Name = 
REMARK  7 active torsions:
REMARK  status: ('A' for Active; 'I' for Inactive)
REMARK    1  A    between atoms: C_2  and  C_19
REMARK    2  A    between atoms: N_3  and  C_4
REMARK    3  A    between atoms: C_4  and  C_5
REMARK    4  A    between atoms: C_8  and  C_9
REMARK    5  A    between atoms: C_9  and  N_10
REMARK    6  A    between atoms: N_10  and  C_11
REMARK    7  A    between atoms: C_11  and  C_12
REMARK                            x       y       z     vdW  Elec       q    Type
REMARK                         _______ _______ _______ _____ _____    ______ ____
ROOT
ATOM      1  C   UNL     1      47.812   6.690  13.233  0.00  0.00    +0.000 C 
ENDROOT
BRANCH   1   2
ATOM      2  C   UNL     1      46.789   5.883  12.505  0.00  0.00    +0.000 A 
ATOM      3  C   UNL     1      46.310   6.281  11.256  0.00  0.00    +0.000 A 
ATOM      4  C   UNL     1      45.347   5.513  10.610  0.00  0.00    +0.000 A 
ATOM      5  C   UNL     1      44.894   4.342  11.213  0.00  0.00    +0.000 A 
ATOM      6  N   UNL     1      45.366   3.933  12.420  0.00  0.00    +0.000 NA
ATOM      7  C   UNL     1      46.288   4.704  13.033  0.00  0.00    +0.000 A 
BRANCH   5   8
ATOM      8  C   UNL     1      43.864   3.452  10.517  0.00  0.00    +0.000 C 
BRANCH   8   9
ATOM      9  N   UNL     1      44.480   2.284   9.874  0.00  0.00    +0.000 NA
ATOM     10  H   UNL     1      43.868   1.482  10.013  0.00  0.00    +0.000 HD
BRANCH   9  11
ATOM     11  C   UNL     1      44.819   2.471   8.467  0.00  0.00    +0.000 C 
BRANCH  11  12
ATOM     12  C   UNL     1      46.360   2.484   8.283  0.00  0.00    +0.000 C 
ATOM     13  C   UNL     1      46.795   3.556   7.285  0.00  0.00    +0.000 C 
ATOM     14  C   UNL     1      46.680   2.841   5.957  0.00  0.00    +0.000 C 
ATOM     15  N   UNL     1      47.215   1.501   6.224  0.00  0.00    +0.000 NA
ATOM     16  C   UNL     1      46.946   1.212   7.646  0.00  0.00    +0.000 C 
ATOM     17  H   UNL     1      48.228   1.533   6.089  0.00  0.00    +0.000 HD
ENDBRANCH  11  12
ENDBRANCH   9  11
ENDBRANCH   8   9
ENDBRANCH   5   8
ENDBRANCH   1   2
BRANCH   1  20
ATOM     18  O   UNL     1      48.729   7.936  15.563  0.00  0.00    +0.000 OA
ATOM     19  C   UNL     1      48.653   6.702  15.535  0.00  0.00    +0.000 C 
ATOM     20  N   UNL     1      48.251   6.008  14.427  0.00  0.00    +0.000 N 
ATOM     21  H   UNL     1      48.036   5.019  14.490  0.00  0.00    +0.000 HD
BRANCH  19  22
ATOM     22  C   UNL     1      49.011   5.894  16.692  0.00  0.00    +0.000 A 
ATOM     23  C   UNL     1      48.060   5.250  17.468  0.00  0.00    +0.000 A 
ATOM     24  S   UNL     1      48.745   4.364  18.762  0.00  0.00    +0.000 S 
ATOM     25  C   UNL     1      50.326   4.799  18.298  0.00  0.00    +0.000 A 
ATOM     26  N   UNL     1      51.413   4.361  18.987  0.00  0.00    +0.000 NA
ATOM     27  C   UNL     1      52.543   4.756  18.499  0.00  0.00    +0.000 A 
ATOM     28  N   UNL     1      52.693   5.543  17.389  0.00  0.00    +0.000 N 
ATOM     29  C   UNL     1      51.628   6.053  16.694  0.00  0.00    +0.000 A 
ATOM     30  O   UNL     1      51.803   6.853  15.776  0.00  0.00    +0.000 OA
ATOM     31  C   UNL     1      50.334   5.619  17.186  0.00  0.00    +0.000 A 
ATOM     32  H   UNL     1      53.599   5.844  17.080  0.00  0.00    +0.000 HD
ENDBRANCH  19  22
ENDBRANCH   1  20
TORSDOF 7
ENDMDL
MODEL 9
REMARK VINA RESULT:    -6.407      3.819      9.232
REMARK INTER + INTRA:         -10.042
REMARK INTER:                  -8.936
REMARK INTRA:                  -1.107
REMARK UNBOUND:                -1.013
REMARK  Name = 
REMARK  7 active torsions:
REMARK  status: ('A' for Active; 'I' for Inactive)
REMARK    1  A    between atoms: C_2  and  C_19
REMARK    2  A    between atoms: N_3  and  C_4
REMARK    3  A    between atoms: C_4  and  C_5
REMARK    4  A    between atoms: C_8  and  C_9
REMARK    5  A    between atoms: C_9  and  N_10
REMARK    6  A    between atoms: N_10  and  C_11
REMARK    7  A    between atoms: C_11  and  C_12
REMARK                            x       y       z     vdW  Elec       q    Type
REMARK                         _______ _______ _______ _____ _____    ______ ____
ROOT
ATOM      1  C   UNL     1      47.508   3.637  16.394  0.00  0.00    +0.000 C 
ENDROOT
BRANCH   1   2
ATOM      2  C   UNL     1      48.284   4.304  17.480  0.00  0.00    +0.000 A 
ATOM      3  C   UNL     1      48.367   3.746  18.756  0.00  0.00    +0.000 A 
ATOM      4  C   UNL     1      49.088   4.400  19.749  0.00  0.00    +0.000 A 
ATOM      5  C   UNL     1      49.738   5.594  19.444  0.00  0.00    +0.000 A 
ATOM      6  N   UNL     1      49.682   6.138  18.200  0.00  0.00    +0.000 NA
ATOM      7  C   UNL     1      48.962   5.493  17.259  0.00  0.00    +0.000 A 
BRANCH   5   8
ATOM      8  C   UNL     1      50.572   6.322  20.499  0.00  0.00    +0.000 C 
BRANCH   8   9
ATOM      9  N   UNL     1      52.014   6.179  20.266  0.00  0.00    +0.000 NA
ATOM     10  H   UNL     1      52.489   6.971  20.696  0.00  0.00    +0.000 HD
BRANCH   9  11
ATOM     11  C   UNL     1      52.579   4.906  20.702  0.00  0.00    +0.000 C 
BRANCH  11  12
ATOM     12  C   UNL     1      53.560   4.359  19.631  0.00  0.00    +0.000 C 
ATOM     13  C   UNL     1      52.941   4.396  18.235  0.00  0.00    +0.000 C 
ATOM     14  C   UNL     1      52.194   3.082  18.167  0.00  0.00    +0.000 C 
ATOM     15  N   UNL     1      53.108   2.118  18.789  0.00  0.00    +0.000 NA
ATOM     16  C   UNL     1      53.910   2.868  19.775  0.00  0.00    +0.000 C 
ATOM     17  H   UNL     1      53.738   1.767  18.063  0.00  0.00    +0.000 HD
ENDBRANCH  11  12
ENDBRANCH   9  11
ENDBRANCH   8   9
ENDBRANCH   5   8
ENDBRANCH   1   2
BRANCH   1  20
ATOM     18  O   UNL     1      47.109   3.231  13.655  0.00  0.00    +0.000 OA
ATOM     19  C   UNL     1      46.775   4.313  14.154  0.00  0.00    +0.000 C 
ATOM     20  N   UNL     1      46.966   4.610  15.476  0.00  0.00    +0.000 N 
ATOM     21  H   UNL     1      46.530   5.428  15.887  0.00  0.00    +0.000 HD
BRANCH  19  22
ATOM     22  C   UNL     1      46.164   5.362  13.351  0.00  0.00    +0.000 A 
ATOM     23  C   UNL     1      46.827   6.539  13.042  0.00  0.00    +0.000 A 
ATOM     24  S   UNL     1      45.890   7.600  12.082  0.00  0.00    +0.000 S 
ATOM     25  C   UNL     1      44.589   6.499  12.035  0.00  0.00    +0.000 A 
ATOM     26  N   UNL     1      43.445   6.781  11.357  0.00  0.00    +0.000 NA
ATOM     27  C   UNL     1      42.562   5.839  11.394  0.00  0.00    +0.000 A 
ATOM     28  N   UNL     1      42.710   4.642  12.041  0.00  0.00    +0.000 N 
ATOM     29  C   UNL     1      43.820   4.333  12.782  0.00  0.00    +0.000 A 
ATOM     30  O   UNL     1      43.864   3.298  13.445  0.00  0.00    +0.000 OA
ATOM     31  C   UNL     1      44.856   5.349  12.752  0.00  0.00    +0.000 A 
ATOM     32  H   UNL     1      41.971   3.963  12.061  0.00  0.00    +0.000 HD
ENDBRANCH  19  22
ENDBRANCH   1  20
TORSDOF 7
ENDMDL
