MODEL 1
REMARK VINA RESULT:    -6.951      0.000      0.000
REMARK INTER + INTRA:          -9.415
REMARK INTER:                  -8.780
REMARK INTRA:                  -0.636
REMARK UNBOUND:                -0.636
REMARK  Name = 
REMARK  5 active torsions:
REMARK  status: ('A' for Active; 'I' for Inactive)
REMARK    1  A    between atoms: N_1  and  C_2
REMARK    2  A    between atoms: C_2  and  C_3
REMARK    3  A    between atoms: C_6  and  O_7
REMARK    4  A    between atoms: O_7  and  C_8
REMARK    5  A    between atoms: C_8  and  C_9
REMARK                            x       y       z     vdW  Elec       q    Type
REMARK                         _______ _______ _______ _____ _____    ______ ____
ROOT
ATOM      1  C   UNL     1      46.597   2.347   7.585  0.00  0.00    +0.000 A 
ATOM      2  C   UNL     1      46.448   3.740   7.530  0.00  0.00    +0.000 A 
ATOM      3  C   UNL     1      45.492   4.384   8.320  0.00  0.00    +0.000 A 
ATOM      4  C   UNL     1      44.663   3.645   9.164  0.00  0.00    +0.000 A 
ATOM      5  C   UNL     1      44.841   2.264   9.260  0.00  0.00    +0.000 A 
ATOM      6  C   UNL     1      45.792   1.619   8.469  0.00  0.00    +0.000 A 
ENDROOT
BRANCH   1   7
ATOM      7  C   UNL     1      47.588   1.637   6.701  0.00  0.00    +0.000 C 
BRANCH   7   8
ATOM      8  N   UNL     1      48.687   2.513   6.317  0.00  0.00    +0.000 NA
ATOM      9  H   UNL     1      48.448   2.983   5.447  0.00  0.00    +0.000 HD
ATOM     10  H   UNL     1      49.507   1.941   6.119  0.00  0.00    +0.000 HD
ENDBRANCH   7   8
ENDBRANCH   1   7
BRANCH   4  11
ATOM     11  O   UNL     1      43.714   4.359   9.846  0.00  0.00    +0.000 OA
BRANCH  11  12
ATOM     12  C   UNL     1      43.650   4.079  11.247  0.00  0.00    +0.000 C 
BRANCH  12  13
ATOM     13  C   UNL     1      44.823   4.672  11.986  0.00  0.00    +0.000 A 
ATOM     14  C   UNL     1      45.095   6.043  11.967  0.00  0.00    +0.000 A 
ATOM     15  C   UNL     1      46.141   6.523  12.736  0.00  0.00    +0.000 A 
ATOM     16  N   UNL     1      46.920   5.745  13.519  0.00  0.00    +0.000 NA
ATOM     17  C   UNL     1      46.635   4.426  13.534  0.00  0.00    +0.000 A 
ATOM     18  C   UNL     1      45.610   3.851  12.799  0.00  0.00    +0.000 A 
ENDBRANCH  12  13
ENDBRANCH  11  12
ENDBRANCH   4  11
TORSDOF 5
ENDMDL
MODEL 2
REMARK VINA RESULT:    -6.860      1.307      5.718
REMARK INTER + INTRA:          -9.300
REMARK INTER:                  -8.826
REMARK INTRA:                  -0.475
REMARK UNBOUND:                -0.636
REMARK  Name = 
REMARK  5 active torsions:
REMARK  status: ('A' for Active; 'I' for Inactive)
REMARK    1  A    between atoms: N_1  and  C_2
REMARK    2  A    between atoms: C_2  and  C_3
REMARK    3  A    between atoms: C_6  and  O_7
REMARK    4  A    between atoms: O_7  and  C_8
REMARK    5  A    between atoms: C_8  and  C_9
REMARK                            x       y       z     vdW  Elec       q    Type
REMARK                         _______ _______ _______ _____ _____    ______ ____
ROOT
ATOM      1  C   UNL     1      46.103   4.499  13.024  0.00  0.00    +0.000 A 
ATOM      2  C   UNL     1      46.318   5.647  12.248  0.00  0.00    +0.000 A 
ATOM      3  C   UNL     1      45.878   5.701  10.922  0.00  0.00    +0.000 A 
ATOM      4  C   UNL     1      45.231   4.605  10.351  0.00  0.00    +0.000 A 
ATOM      5  C   UNL     1      44.970   3.480  11.134  0.00  0.00    +0.000 A 
ATOM      6  C   UNL     1      45.412   3.423  12.456  0.00  0.00    +0.000 A 
ENDROOT
BRANCH   1   7
ATOM      7  C   UNL     1      46.618   4.411  14.437  0.00  0.00    +0.000 C 
BRANCH   7   8
ATOM      8  N   UNL     1      47.490   3.259  14.620  0.00  0.00    +0.000 NA
ATOM      9  H   UNL     1      48.213   3.495  15.296  0.00  0.00    +0.000 HD
ATOM     10  H   UNL     1      47.969   3.069  13.741  0.00  0.00    +0.000 HD
ENDBRANCH   7   8
ENDBRANCH   1   7
BRANCH   4  11
ATOM     11  O   UNL     1      44.899   4.730   9.028  0.00  0.00    +0.000 OA
BRANCH  11  12
ATOM     12  C   UNL     1      44.547   3.503   8.383  0.00  0.00    +0.000 C 
BRANCH  12  13
ATOM     13  C   UNL     1      45.759   2.796   7.833  0.00  0.00    +0.000 A 
ATOM     14  C   UNL     1      46.067   1.476   8.177  0.00  0.00    +0.000 A 
ATOM     15  C   UNL     1      47.151   0.867   7.568  0.00  0.00    +0.000 A 
ATOM     16  N   UNL     1      47.935   1.469   6.647  0.00  0.00    +0.000 NA
ATOM     17  C   UNL     1      47.616   2.738   6.319  0.00  0.00    +0.000 A 
ATOM     18  C   UNL     1      46.552   3.432   6.873  0.00  0.00    +0.000 A 
ENDBRANCH  12  13
ENDBRANCH  11  12
ENDBRANCH   4  11
TORSDOF 5
ENDMDL
MODEL 3
REMARK VINA RESULT:    -6.370      1.697      6.114
REMARK INTER + INTRA:          -8.681
REMARK INTER:                  -8.319
REMARK INTRA:                  -0.362
REMARK UNBOUND:                -0.636
REMARK  Name = 
REMARK  5 active torsions:
REMARK  status: ('A' for Active; 'I' for Inactive)
REMARK    1  A    between atoms: N_1  and  C_2
REMARK    2  A    between atoms: C_2  and  C_3
REMARK    3  A    between atoms: C_6  and  O_7
REMARK    4  A    between atoms: O_7  and  C_8
REMARK    5  A    between atoms: C_8  and  C_9
REMARK                            x       y       z     vdW  Elec       q    Type
REMARK                         _______ _______ _______ _____ _____    ______ ____
ROOT
ATOM      1  C   UNL     1      45.453   6.932  12.108  0.00  0.00    +0.000 A 
ATOM      2  C   UNL     1      46.188   6.610  10.958  0.00  0.00    +0.000 A 
ATOM      3  C   UNL     1      45.829   5.511  10.171  0.00  0.00    +0.000 A 
ATOM      4  C   UNL     1      44.742   4.714  10.529  0.00  0.00    +0.000 A 
ATOM      5  C   UNL     1      43.977   5.061  11.643  0.00  0.00    +0.000 A 
ATOM      6  C   UNL     1      44.336   6.154  12.433  0.00  0.00    +0.000 A 
ENDROOT
BRANCH   1   7
ATOM      7  C   UNL     1      45.861   8.082  12.991  0.00  0.00    +0.000 C 
BRANCH   7   8
ATOM      8  N   UNL     1      44.918   9.189  12.901  0.00  0.00    +0.000 NA
ATOM      9  H   UNL     1      44.921   9.551  11.950  0.00  0.00    +0.000 HD
ATOM     10  H   UNL     1      45.245   9.947  13.498  0.00  0.00    +0.000 HD
ENDBRANCH   7   8
ENDBRANCH   1   7
BRANCH   4  11
ATOM     11  O   UNL     1      44.513   3.624   9.733  0.00  0.00    +0.000 OA
BRANCH  11  12
ATOM     12  C   UNL     1      44.765   3.838   8.342  0.00  0.00    +0.000 C 
BRANCH  12  13
ATOM     13  C   UNL     1      45.839   2.915   7.823  0.00  0.00    +0.000 A 
ATOM     14  C   UNL     1      45.949   1.590   8.255  0.00  0.00    +0.000 A 
ATOM     15  C   UNL     1      46.910   0.780   7.673  0.00  0.00    +0.000 A 
ATOM     16  N   UNL     1      47.751   1.189   6.698  0.00  0.00    +0.000 NA
ATOM     17  C   UNL     1      47.622   2.468   6.286  0.00  0.00    +0.000 A 
ATOM     18  C   UNL     1      46.693   3.354   6.807  0.00  0.00    +0.000 A 
ENDBRANCH  12  13
ENDBRANCH  11  12
ENDBRANCH   4  11
TORSDOF 5
ENDMDL
MODEL 4
REMARK VINA RESULT:    -5.771      1.273      5.579
REMARK INTER + INTRA:          -7.924
REMARK INTER:                  -7.390
REMARK INTRA:                  -0.535
REMARK UNBOUND:                -0.636
REMARK  Name = 
REMARK  5 active torsions:
REMARK  status: ('A' for Active; 'I' for Inactive)
REMARK    1  A    between atoms: N_1  and  C_2
REMARK    2  A    between atoms: C_2  and  C_3
REMARK    3  A    between atoms: C_6  and  O_7
REMARK    4  A    between atoms: O_7  and  C_8
REMARK    5  A    between atoms: C_8  and  C_9
REMARK                            x       y       z     vdW  Elec       q    Type
REMARK                         _______ _______ _______ _____ _____    ______ ____
ROOT
ATOM      1  C   UNL     1      46.703   6.537  12.794  0.00  0.00    +0.000 A 
ATOM      2  C   UNL     1      46.020   6.869  11.615  0.00  0.00    +0.000 A 
ATOM      3  C   UNL     1      45.217   5.925  10.969  0.00  0.00    +0.000 A 
ATOM      4  C   UNL     1      45.096   4.635  11.484  0.00  0.00    +0.000 A 
ATOM      5  C   UNL     1      45.731   4.315  12.685  0.00  0.00    +0.000 A 
ATOM      6  C   UNL     1      46.537   5.255  13.328  0.00  0.00    +0.000 A 
ENDROOT
BRANCH   1   7
ATOM      7  C   UNL     1      47.611   7.530  13.470  0.00  0.00    +0.000 C 
BRANCH   7   8
ATOM      8  N   UNL     1      48.456   8.225  12.509  0.00  0.00    +0.000 NA
ATOM      9  H   UNL     1      49.218   7.611  12.231  0.00  0.00    +0.000 HD
ATOM     10  H   UNL     1      48.886   9.026  12.969  0.00  0.00    +0.000 HD
ENDBRANCH   7   8
ENDBRANCH   1   7
BRANCH   4  11
ATOM     11  O   UNL     1      44.341   3.764  10.744  0.00  0.00    +0.000 OA
BRANCH  11  12
ATOM     12  C   UNL     1      44.273   4.071   9.349  0.00  0.00    +0.000 C 
BRANCH  12  13
ATOM     13  C   UNL     1      45.274   3.272   8.554  0.00  0.00    +0.000 A 
ATOM     14  C   UNL     1      46.199   3.881   7.700  0.00  0.00    +0.000 A 
ATOM     15  C   UNL     1      47.141   3.088   7.067  0.00  0.00    +0.000 A 
ATOM     16  N   UNL     1      47.230   1.749   7.229  0.00  0.00    +0.000 NA
ATOM     17  C   UNL     1      46.338   1.181   8.066  0.00  0.00    +0.000 A 
ATOM     18  C   UNL     1      45.359   1.889   8.744  0.00  0.00    +0.000 A 
ENDBRANCH  12  13
ENDBRANCH  11  12
ENDBRANCH   4  11
TORSDOF 5
ENDMDL
MODEL 5
REMARK VINA RESULT:    -4.814      4.350      5.983
REMARK INTER + INTRA:          -6.717
REMARK INTER:                  -6.301
REMARK INTRA:                  -0.415
REMARK UNBOUND:                -0.636
REMARK  Name = 
REMARK  5 active torsions:
REMARK  status: ('A' for Active; 'I' for Inactive)
REMARK    1  A    between atoms: N_1  and  C_2
REMARK    2  A    between atoms: C_2  and  C_3
REMARK    3  A    between atoms: C_6  and  O_7
REMARK    4  A    between atoms: O_7  and  C_8
REMARK    5  A    between atoms: C_8  and  C_9
REMARK                            x       y       z     vdW  Elec       q    Type
REMARK                         _______ _______ _______ _____ _____    ______ ____
ROOT
ATOM      1  C   UNL     1      44.015   5.490  12.056  0.00  0.00    +0.000 A 
ATOM      2  C   UNL     1      44.877   6.458  12.592  0.00  0.00    +0.000 A 
ATOM      3  C   UNL     1      46.063   6.078  13.228  0.00  0.00    +0.000 A 
ATOM      4  C   UNL     1      46.396   4.729  13.347  0.00  0.00    +0.000 A 
ATOM      5  C   UNL     1      45.568   3.766  12.770  0.00  0.00    +0.000 A 
ATOM      6  C   UNL     1      44.381   4.142  12.139  0.00  0.00    +0.000 A 
ENDROOT
BRANCH   1   7
ATOM      7  C   UNL     1      42.710   5.885  11.415  0.00  0.00    +0.000 C 
BRANCH   7   8
ATOM      8  N   UNL     1      42.670   7.309  11.113  0.00  0.00    +0.000 NA
ATOM      9  H   UNL     1      43.517   7.565  10.609  0.00  0.00    +0.000 HD
ATOM     10  H   UNL     1      42.687   7.830  11.988  0.00  0.00    +0.000 HD
ENDBRANCH   7   8
ENDBRANCH   1   7
BRANCH   4  11
ATOM     11  O   UNL     1      47.543   4.456  14.044  0.00  0.00    +0.000 OA
BRANCH  11  12
ATOM     12  C   UNL     1      47.416   3.416  15.017  0.00  0.00    +0.000 C 
BRANCH  12  13
ATOM     13  C   UNL     1      47.864   3.874  16.382  0.00  0.00    +0.000 A 
ATOM     14  C   UNL     1      48.009   2.986  17.452  0.00  0.00    +0.000 A 
ATOM     15  C   UNL     1      48.503   3.467  18.652  0.00  0.00    +0.000 A 
ATOM     16  N   UNL     1      48.865   4.753  18.858  0.00  0.00    +0.000 NA
ATOM     17  C   UNL     1      48.728   5.593  17.811  0.00  0.00    +0.000 A 
ATOM     18  C   UNL     1      48.243   5.207  16.572  0.00  0.00    +0.000 A 
ENDBRANCH  12  13
ENDBRANCH  11  12
ENDBRANCH   4  11
TORSDOF 5
ENDMDL
MODEL 6
REMARK VINA RESULT:    -4.812      3.390      5.067
REMARK INTER + INTRA:          -6.713
REMARK INTER:                  -6.371
REMARK INTRA:                  -0.343
REMARK UNBOUND:                -0.636
REMARK  Name = 
REMARK  5 active torsions:
REMARK  status: ('A' for Active; 'I' for Inactive)
REMARK    1  A    between atoms: N_1  and  C_2
REMARK    2  A    between atoms: C_2  and  C_3
REMARK    3  A    between atoms: C_6  and  O_7
REMARK    4  A    between atoms: O_7  and  C_8
REMARK    5  A    between atoms: C_8  and  C_9
REMARK                            x       y       z     vdW  Elec       q    Type
REMARK                         _______ _______ _______ _____ _____    ______ ____
ROOT
ATOM      1  C   UNL     1      44.956   4.502  10.459  0.00  0.00    +0.000 A 
ATOM      2  C   UNL     1      44.938   3.564  11.501  0.00  0.00    +0.000 A 
ATOM      3  C   UNL     1      45.594   3.829  12.707  0.00  0.00    +0.000 A 
ATOM      4  C   UNL     1      46.287   5.027  12.882  0.00  0.00    +0.000 A 
ATOM      5  C   UNL     1      46.265   5.985  11.867  0.00  0.00    +0.000 A 
ATOM      6  C   UNL     1      45.615   5.720  10.661  0.00  0.00    +0.000 A 
ENDROOT
BRANCH   1   7
ATOM      7  C   UNL     1      44.297   4.205   9.138  0.00  0.00    +0.000 C 
BRANCH   7   8
ATOM      8  N   UNL     1      44.309   2.780   8.840  0.00  0.00    +0.000 NA
ATOM      9  H   UNL     1      43.960   2.269   9.648  0.00  0.00    +0.000 HD
ATOM     10  H   UNL     1      45.275   2.482   8.706  0.00  0.00    +0.000 HD
ENDBRANCH   7   8
ENDBRANCH   1   7
BRANCH   4  11
ATOM     11  O   UNL     1      46.953   5.164  14.071  0.00  0.00    +0.000 OA
BRANCH  11  12
ATOM     12  C   UNL     1      47.098   3.952  14.816  0.00  0.00    +0.000 C 
BRANCH  12  13
ATOM     13  C   UNL     1      47.699   4.204  16.175  0.00  0.00    +0.000 A 
ATOM     14  C   UNL     1      47.738   3.216  17.164  0.00  0.00    +0.000 A 
ATOM     15  C   UNL     1      48.380   3.497  18.358  0.00  0.00    +0.000 A 
ATOM     16  N   UNL     1      48.985   4.674  18.631  0.00  0.00    +0.000 NA
ATOM     17  C   UNL     1      48.947   5.611  17.661  0.00  0.00    +0.000 A 
ATOM     18  C   UNL     1      48.330   5.425  16.435  0.00  0.00    +0.000 A 
ENDBRANCH  12  13
ENDBRANCH  11  12
ENDBRANCH   4  11
TORSDOF 5
ENDMDL
MODEL 7
REMARK VINA RESULT:    -4.755      3.773      5.437
REMARK INTER + INTRA:          -6.641
REMARK INTER:                  -6.125
REMARK INTRA:                  -0.516
REMARK UNBOUND:                -0.636
REMARK  Name = 
REMARK  5 active torsions:
REMARK  status: ('A' for Active; 'I' for Inactive)
REMARK    1  A    between atoms: N_1  and  C_2
REMARK    2  A    between atoms: C_2  and  C_3
REMARK    3  A    between atoms: C_6  and  O_7
REMARK    4  A    between atoms: O_7  and  C_8
REMARK    5  A    between atoms: C_8  and  C_9
REMARK                            x       y       z     vdW  Elec       q    Type
REMARK                         _______ _______ _______ _____ _____    ______ ____
ROOT
ATOM      1  C   UNL     1      44.580   4.191  11.707  0.00  0.00    +0.000 A 
ATOM      2  C   UNL     1      44.960   5.080  10.691  0.00  0.00    +0.000 A 
ATOM      3  C   UNL     1      45.977   6.014  10.908  0.00  0.00    +0.000 A 
ATOM      4  C   UNL     1      46.617   6.081  12.146  0.00  0.00    +0.000 A 
ATOM      5  C   UNL     1      46.278   5.165  13.142  0.00  0.00    +0.000 A 
ATOM      6  C   UNL     1      45.260   4.236  12.929  0.00  0.00    +0.000 A 
ENDROOT
BRANCH   1   7
ATOM      7  C   UNL     1      43.450   3.216  11.501  0.00  0.00    +0.000 C 
BRANCH   7   8
ATOM      8  N   UNL     1      43.520   2.107  12.442  0.00  0.00    +0.000 NA
ATOM      9  H   UNL     1      44.319   1.522  12.205  0.00  0.00    +0.000 HD
ATOM     10  H   UNL     1      42.692   1.525  12.324  0.00  0.00    +0.000 HD
ENDBRANCH   7   8
ENDBRANCH   1   7
BRANCH   4  11
ATOM     11  O   UNL     1      47.553   7.072  12.281  0.00  0.00    +0.000 OA
BRANCH  11  12
ATOM     12  C   UNL     1      47.215   8.085  13.233  0.00  0.00    +0.000 C 
BRANCH  12  13
ATOM     13  C   UNL     1      46.573   9.278  12.571  0.00  0.00    +0.000 A 
ATOM     14  C   UNL     1      47.330  10.279  11.954  0.00  0.00    +0.000 A 
ATOM     15  C   UNL     1      46.668  11.302  11.296  0.00  0.00    +0.000 A 
ATOM     16  N   UNL     1      45.323  11.391  11.203  0.00  0.00    +0.000 NA
ATOM     17  C   UNL     1      44.610  10.410  11.793  0.00  0.00    +0.000 A 
ATOM     18  C   UNL     1      45.180   9.347  12.475  0.00  0.00    +0.000 A 
ENDBRANCH  12  13
ENDBRANCH  11  12
ENDBRANCH   4  11
TORSDOF 5
ENDMDL
MODEL 8
REMARK VINA RESULT:    -4.693      3.701      5.309
REMARK INTER + INTRA:          -6.563
REMARK INTER:                  -6.266
REMARK INTRA:                  -0.297
REMARK UNBOUND:                -0.636
REMARK  Name = 
REMARK  5 active torsions:
REMARK  status: ('A' for Active; 'I' for Inactive)
REMARK    1  A    between atoms: N_1  and  C_2
REMARK    2  A    between atoms: C_2  and  C_3
REMARK    3  A    between atoms: C_6  and  O_7
REMARK    4  A    between atoms: O_7  and  C_8
REMARK    5  A    between atoms: C_8  and  C_9
REMARK                            x       y       z     vdW  Elec       q    Type
REMARK                         _______ _______ _______ _____ _____    ______ ____
ROOT
ATOM      1  C   UNL     1      44.759   4.664  11.161  0.00  0.00    +0.000 A 
ATOM      2  C   UNL     1      45.492   5.820  11.467  0.00  0.00    +0.000 A 
ATOM      3  C   UNL     1      46.428   5.814  12.505  0.00  0.00    +0.000 A 
ATOM      4  C   UNL     1      46.635   4.659  13.258  0.00  0.00    +0.000 A 
ATOM      5  C   UNL     1      45.946   3.492  12.924  0.00  0.00    +0.000 A 
ATOM      6  C   UNL     1      45.008   3.497  11.892  0.00  0.00    +0.000 A 
ENDROOT
BRANCH   1   7
ATOM      7  C   UNL     1      43.712   4.674  10.079  0.00  0.00    +0.000 C 
BRANCH   7   8
ATOM      8  N   UNL     1      44.268   4.288   8.790  0.00  0.00    +0.000 NA
ATOM      9  H   UNL     1      45.265   4.116   8.897  0.00  0.00    +0.000 HD
ATOM     10  H   UNL     1      44.179   5.074   8.147  0.00  0.00    +0.000 HD
ENDBRANCH   7   8
ENDBRANCH   1   7
BRANCH   4  11
ATOM     11  O   UNL     1      47.523   4.772  14.295  0.00  0.00    +0.000 OA
BRANCH  11  12
ATOM     12  C   UNL     1      47.155   4.055  15.476  0.00  0.00    +0.000 C 
BRANCH  12  13
ATOM     13  C   UNL     1      48.025   4.432  16.648  0.00  0.00    +0.000 A 
ATOM     14  C   UNL     1      48.717   5.646  16.697  0.00  0.00    +0.000 A 
ATOM     15  C   UNL     1      49.430   5.958  17.843  0.00  0.00    +0.000 A 
ATOM     16  N   UNL     1      49.494   5.160  18.931  0.00  0.00    +0.000 NA
ATOM     17  C   UNL     1      48.810   3.999  18.870  0.00  0.00    +0.000 A 
ATOM     18  C   UNL     1      48.070   3.599  17.770  0.00  0.00    +0.000 A 
ENDBRANCH  12  13
ENDBRANCH  11  12
ENDBRANCH   4  11
TORSDOF 5
ENDMDL
MODEL 9
REMARK VINA RESULT:    -4.488      4.646      6.040
REMARK INTER + INTRA:          -6.305
REMARK INTER:                  -5.734
REMARK INTRA:                  -0.570
REMARK UNBOUND:                -0.636
REMARK  Name = 
REMARK  5 active torsions:
REMARK  status: ('A' for Active; 'I' for Inactive)
REMARK    1  A    between atoms: N_1  and  C_2
REMARK    2  A    between atoms: C_2  and  C_3
REMARK    3  A    between atoms: C_6  and  O_7
REMARK    4  A    between atoms: O_7  and  C_8
REMARK    5  A    between atoms: C_8  and  C_9
REMARK                            x       y       z     vdW  Elec       q    Type
REMARK                         _______ _______ _______ _____ _____    ______ ____
ROOT
ATOM      1  C   UNL     1      44.427   5.577  12.358  0.00  0.00    +0.000 A 
ATOM      2  C   UNL     1      45.278   6.502  11.735  0.00  0.00    +0.000 A 
ATOM      3  C   UNL     1      46.640   6.536  12.045  0.00  0.00    +0.000 A 
ATOM      4  C   UNL     1      47.168   5.657  12.991  0.00  0.00    +0.000 A 
ATOM      5  C   UNL     1      46.336   4.700  13.575  0.00  0.00    +0.000 A 
ATOM      6  C   UNL     1      44.975   4.668  13.270  0.00  0.00    +0.000 A 
ENDROOT
BRANCH   1   7
ATOM      7  C   UNL     1      42.949   5.566  12.069  0.00  0.00    +0.000 C 
BRANCH   7   8
ATOM      8  N   UNL     1      42.589   6.571  11.079  0.00  0.00    +0.000 NA
ATOM      9  H   UNL     1      42.704   7.496  11.487  0.00  0.00    +0.000 HD
ATOM     10  H   UNL     1      41.598   6.474  10.860  0.00  0.00    +0.000 HD
ENDBRANCH   7   8
ENDBRANCH   1   7
BRANCH   4  11
ATOM     11  O   UNL     1      48.499   5.813  13.275  0.00  0.00    +0.000 OA
BRANCH  11  12
ATOM     12  C   UNL     1      48.896   7.159  13.549  0.00  0.00    +0.000 C 
BRANCH  12  13
ATOM     13  C   UNL     1      48.716   7.506  15.005  0.00  0.00    +0.000 A 
ATOM     14  C   UNL     1      48.990   6.589  16.024  0.00  0.00    +0.000 A 
ATOM     15  C   UNL     1      48.880   7.007  17.340  0.00  0.00    +0.000 A 
ATOM     16  N   UNL     1      48.530   8.259  17.707  0.00  0.00    +0.000 NA
ATOM     17  C   UNL     1      48.281   9.133  16.709  0.00  0.00    +0.000 A 
ATOM     18  C   UNL     1      48.363   8.810  15.364  0.00  0.00    +0.000 A 
ENDBRANCH  12  13
ENDBRANCH  11  12
ENDBRANCH   4  11
TORSDOF 5
ENDMDL
