MODEL 1
REMARK VINA RESULT:    -8.852      0.000      0.000
REMARK INTER + INTRA:         -11.860
REMARK INTER:                 -10.922
REMARK INTRA:                  -0.937
REMARK UNBOUND:                -0.937
REMARK  Name = 
REMARK  8 active torsions:
REMARK  status: ('A' for Active; 'I' for Inactive)
REMARK    1  A    between atoms: C_1  and  C_2
REMARK    2  A    between atoms: C_7  and  C_8
REMARK    3  A    between atoms: C_8  and  C_9
REMARK    4  A    between atoms: C_8  and  C_10
REMARK    5  A    between atoms: C_8  and  C_11
REMARK    6  A    between atoms: C_11  and  N_12
REMARK    7  A    between atoms: C_16  and  C_17
REMARK    8  A    between atoms: C_26  and  C_27
REMARK                            x       y       z     vdW  Elec       q    Type
REMARK                         _______ _______ _______ _____ _____    ______ ____
ROOT
ATOM      1  C   UNL     1      44.112   4.541  12.252  0.00  0.00    +0.000 C 
ATOM      2  C   UNL     1      45.126   3.402  12.495  0.00  0.00    +0.000 C 
ATOM      3  C   UNL     1      43.193   4.694  13.481  0.00  0.00    +0.000 C 
ENDROOT
BRANCH   1  10
ATOM      4  C   UNL     1      48.675  10.483  12.695  0.00  0.00    +0.000 C 
ATOM      5  C   UNL     1      49.615   9.317  12.412  0.00  0.00    +0.000 C 
ATOM      6  C   UNL     1      49.019   8.248  11.480  0.00  0.00    +0.000 C 
ATOM      7  N   UNL     1      48.249   7.226  12.188  0.00  0.00    +0.000 N 
ATOM      8  C   UNL     1      46.879   7.154  12.025  0.00  0.00    +0.000 A 
ATOM      9  C   UNL     1      46.242   5.933  12.186  0.00  0.00    +0.000 A 
ATOM     10  C   UNL     1      44.867   5.867  12.035  0.00  0.00    +0.000 A 
ATOM     11  N   UNL     1      44.159   6.971  11.724  0.00  0.00    +0.000 NA
ATOM     12  C   UNL     1      44.859   8.105  11.559  0.00  0.00    +0.000 A 
ATOM     13  N   UNL     1      46.185   8.249  11.683  0.00  0.00    +0.000 NA
ATOM     14  C   UNL     1      48.859   6.703  13.414  0.00  0.00    +0.000 C 
ATOM     15  C   UNL     1      49.393   7.828  14.322  0.00  0.00    +0.000 C 
ATOM     16  C   UNL     1      48.317   8.491  15.177  0.00  0.00    +0.000 C 
ATOM     17  O   UNL     1      50.193   8.784  13.614  0.00  0.00    +0.000 OA
ENDBRANCH   1  10
BRANCH   1  18
ATOM     18  C   UNL     1      43.264   4.227  10.985  0.00  0.00    +0.000 C 
BRANCH  18  19
ATOM     19  N   UNL     1      43.806   4.785   9.746  0.00  0.00    +0.000 N 
ATOM     20  C   UNL     1      44.745   4.026   9.054  0.00  0.00    +0.000 A 
ATOM     21  C   UNL     1      44.744   2.626   8.999  0.00  0.00    +0.000 A 
ATOM     22  N   UNL     1      45.635   1.881   8.295  0.00  0.00    +0.000 NA
ATOM     23  C   UNL     1      46.542   2.612   7.598  0.00  0.00    +0.000 A 
ATOM     24  C   UNL     1      46.553   3.998   7.625  0.00  0.00    +0.000 A 
ATOM     25  N   UNL     1      45.664   4.729   8.354  0.00  0.00    +0.000 NA
ATOM     26  H   UNL     1      44.170   5.736   9.785  0.00  0.00    +0.000 HD
BRANCH  23  27
ATOM     27  C   UNL     1      47.540   1.869   6.788  0.00  0.00    +0.000 C 
ATOM     28  N   UNL     1      48.642   2.573   6.388  0.00  0.00    +0.000 N 
ATOM     29  O   UNL     1      47.387   0.687   6.491  0.00  0.00    +0.000 OA
ATOM     30  H   UNL     1      48.750   3.547   6.653  0.00  0.00    +0.000 HD
ATOM     31  H   UNL     1      49.360   2.109   5.849  0.00  0.00    +0.000 HD
ENDBRANCH  23  27
ENDBRANCH  18  19
ENDBRANCH   1  18
TORSDOF 4
ENDMDL
MODEL 2
REMARK VINA RESULT:    -7.988      1.276      2.213
REMARK INTER + INTRA:         -10.794
REMARK INTER:                 -10.157
REMARK INTRA:                  -0.636
REMARK UNBOUND:                -0.937
REMARK  Name = 
REMARK  8 active torsions:
REMARK  status: ('A' for Active; 'I' for Inactive)
REMARK    1  A    between atoms: C_1  and  C_2
REMARK    2  A    between atoms: C_7  and  C_8
REMARK    3  A    between atoms: C_8  and  C_9
REMARK    4  A    between atoms: C_8  and  C_10
REMARK    5  A    between atoms: C_8  and  C_11
REMARK    6  A    between atoms: C_11  and  N_12
REMARK    7  A    between atoms: C_16  and  C_17
REMARK    8  A    between atoms: C_26  and  C_27
REMARK                            x       y       z     vdW  Elec       q    Type
REMARK                         _______ _______ _______ _____ _____    ______ ____
ROOT
ATOM      1  C   UNL     1      43.716   5.530  12.148  0.00  0.00    +0.000 C 
ATOM      2  C   UNL     1      42.625   5.173  13.182  0.00  0.00    +0.000 C 
ATOM      3  C   UNL     1      43.324   6.819  11.398  0.00  0.00    +0.000 C 
ENDROOT
BRANCH   1  10
ATOM      4  C   UNL     1      50.594   7.715  14.209  0.00  0.00    +0.000 C 
ATOM      5  C   UNL     1      49.784   9.006  14.205  0.00  0.00    +0.000 C 
ATOM      6  C   UNL     1      48.325   8.826  14.661  0.00  0.00    +0.000 C 
ATOM      7  N   UNL     1      47.418   8.461  13.573  0.00  0.00    +0.000 N 
ATOM      8  C   UNL     1      46.846   7.204  13.540  0.00  0.00    +0.000 A 
ATOM      9  C   UNL     1      45.620   7.036  12.916  0.00  0.00    +0.000 A 
ATOM     10  C   UNL     1      45.055   5.772  12.873  0.00  0.00    +0.000 A 
ATOM     11  N   UNL     1      45.682   4.723  13.441  0.00  0.00    +0.000 NA
ATOM     12  C   UNL     1      46.852   4.980  14.047  0.00  0.00    +0.000 A 
ATOM     13  N   UNL     1      47.459   6.172  14.136  0.00  0.00    +0.000 NA
ATOM     14  C   UNL     1      47.586   9.212  12.325  0.00  0.00    +0.000 C 
ATOM     15  C   UNL     1      49.065   9.313  11.903  0.00  0.00    +0.000 C 
ATOM     16  C   UNL     1      49.587   8.071  11.189  0.00  0.00    +0.000 C 
ATOM     17  O   UNL     1      49.923   9.730  12.973  0.00  0.00    +0.000 OA
ENDBRANCH   1  10
BRANCH   1  18
ATOM     18  C   UNL     1      43.889   4.356  11.141  0.00  0.00    +0.000 C 
BRANCH  18  19
ATOM     19  N   UNL     1      44.179   4.778   9.770  0.00  0.00    +0.000 N 
ATOM     20  C   UNL     1      45.042   3.985   9.020  0.00  0.00    +0.000 A 
ATOM     21  C   UNL     1      45.130   2.591   9.130  0.00  0.00    +0.000 A 
ATOM     22  N   UNL     1      45.943   1.807   8.375  0.00  0.00    +0.000 NA
ATOM     23  C   UNL     1      46.669   2.488   7.452  0.00  0.00    +0.000 A 
ATOM     24  C   UNL     1      46.586   3.865   7.313  0.00  0.00    +0.000 A 
ATOM     25  N   UNL     1      45.781   4.637   8.095  0.00  0.00    +0.000 NA
ATOM     26  H   UNL     1      44.476   5.743   9.634  0.00  0.00    +0.000 HD
BRANCH  23  27
ATOM     27  C   UNL     1      47.569   1.698   6.574  0.00  0.00    +0.000 C 
ATOM     28  N   UNL     1      48.650   2.360   6.060  0.00  0.00    +0.000 N 
ATOM     29  O   UNL     1      47.357   0.515   6.321  0.00  0.00    +0.000 OA
ATOM     30  H   UNL     1      48.808   3.337   6.291  0.00  0.00    +0.000 HD
ATOM     31  H   UNL     1      49.303   1.865   5.471  0.00  0.00    +0.000 HD
ENDBRANCH  23  27
ENDBRANCH  18  19
ENDBRANCH   1  18
TORSDOF 4
ENDMDL
MODEL 3
REMARK VINA RESULT:    -6.691      3.316      5.408
REMARK INTER + INTRA:          -9.193
REMARK INTER:                  -8.315
REMARK INTRA:                  -0.879
REMARK UNBOUND:                -0.937
REMARK  Name = 
REMARK  8 active torsions:
REMARK  status: ('A' for Active; 'I' for Inactive)
REMARK    1  A    between atoms: C_1  and  C_2
REMARK    2  A    between atoms: C_7  and  C_8
REMARK    3  A    between atoms: C_8  and  C_9
REMARK    4  A    between atoms: C_8  and  C_10
REMARK    5  A    between atoms: C_8  and  C_11
REMARK    6  A    between atoms: C_11  and  N_12
REMARK    7  A    between atoms: C_16  and  C_17
REMARK    8  A    between atoms: C_26  and  C_27
REMARK                            x       y       z     vdW  Elec       q    Type
REMARK                         _______ _______ _______ _____ _____    ______ ____
ROOT
ATOM      1  C   UNL     1      48.454   4.429  17.156  0.00  0.00    +0.000 C 
ATOM      2  C   UNL     1      49.207   3.085  17.046  0.00  0.00    +0.000 C 
ATOM      3  C   UNL     1      48.118   4.721  18.632  0.00  0.00    +0.000 C 
ENDROOT
BRANCH   1  10
ATOM      4  C   UNL     1      51.752   9.805  13.087  0.00  0.00    +0.000 C 
ATOM      5  C   UNL     1      50.350  10.344  13.342  0.00  0.00    +0.000 C 
ATOM      6  C   UNL     1      49.781   9.973  14.722  0.00  0.00    +0.000 C 
ATOM      7  N   UNL     1      49.096   8.681  14.740  0.00  0.00    +0.000 N 
ATOM      8  C   UNL     1      49.640   7.619  15.436  0.00  0.00    +0.000 A 
ATOM      9  C   UNL     1      48.799   6.638  15.937  0.00  0.00    +0.000 A 
ATOM     10  C   UNL     1      49.348   5.567  16.623  0.00  0.00    +0.000 A 
ATOM     11  N   UNL     1      50.679   5.486  16.811  0.00  0.00    +0.000 NA
ATOM     12  C   UNL     1      51.418   6.493  16.316  0.00  0.00    +0.000 A 
ATOM     13  N   UNL     1      50.962   7.561  15.648  0.00  0.00    +0.000 NA
ATOM     14  C   UNL     1      48.196   8.422  13.613  0.00  0.00    +0.000 C 
ATOM     15  C   UNL     1      48.844   8.771  12.259  0.00  0.00    +0.000 C 
ATOM     16  C   UNL     1      49.774   7.686  11.725  0.00  0.00    +0.000 C 
ATOM     17  O   UNL     1      49.457  10.067  12.252  0.00  0.00    +0.000 OA
ENDBRANCH   1  10
BRANCH   1  18
ATOM     18  C   UNL     1      47.149   4.371  16.310  0.00  0.00    +0.000 C 
BRANCH  18  19
ATOM     19  N   UNL     1      47.255   3.561  15.096  0.00  0.00    +0.000 N 
ATOM     20  C   UNL     1      46.504   3.952  13.992  0.00  0.00    +0.000 A 
ATOM     21  C   UNL     1      46.214   5.283  13.666  0.00  0.00    +0.000 A 
ATOM     22  N   UNL     1      45.514   5.674  12.570  0.00  0.00    +0.000 NA
ATOM     23  C   UNL     1      45.125   4.652  11.766  0.00  0.00    +0.000 A 
ATOM     24  C   UNL     1      45.415   3.328  12.059  0.00  0.00    +0.000 A 
ATOM     25  N   UNL     1      46.100   2.953  13.176  0.00  0.00    +0.000 NA
ATOM     26  H   UNL     1      47.126   2.555  15.196  0.00  0.00    +0.000 HD
BRANCH  23  27
ATOM     27  C   UNL     1      44.369   5.000  10.536  0.00  0.00    +0.000 C 
ATOM     28  N   UNL     1      45.107   5.163   9.396  0.00  0.00    +0.000 N 
ATOM     29  O   UNL     1      43.149   5.136  10.539  0.00  0.00    +0.000 OA
ATOM     30  H   UNL     1      46.115   5.038   9.417  0.00  0.00    +0.000 HD
ATOM     31  H   UNL     1      44.640   5.384   8.528  0.00  0.00    +0.000 HD
ENDBRANCH  23  27
ENDBRANCH  18  19
ENDBRANCH   1  18
TORSDOF 4
ENDMDL
MODEL 4
REMARK VINA RESULT:    -6.658      5.585      7.361
REMARK INTER + INTRA:          -9.152
REMARK INTER:                  -8.441
REMARK INTRA:                  -0.711
REMARK UNBOUND:                -0.937
REMARK  Name = 
REMARK  8 active torsions:
REMARK  status: ('A' for Active; 'I' for Inactive)
REMARK    1  A    between atoms: C_1  and  C_2
REMARK    2  A    between atoms: C_7  and  C_8
REMARK    3  A    between atoms: C_8  and  C_9
REMARK    4  A    between atoms: C_8  and  C_10
REMARK    5  A    between atoms: C_8  and  C_11
REMARK    6  A    between atoms: C_11  and  N_12
REMARK    7  A    between atoms: C_16  and  C_17
REMARK    8  A    between atoms: C_26  and  C_27
REMARK                            x       y       z     vdW  Elec       q    Type
REMARK                         _______ _______ _______ _____ _____    ______ ____
ROOT
ATOM      1  C   UNL     1      47.800   4.061  17.345  0.00  0.00    +0.000 C 
ATOM      2  C   UNL     1      46.791   2.908  17.531  0.00  0.00    +0.000 C 
ATOM      3  C   UNL     1      47.573   5.136  18.426  0.00  0.00    +0.000 C 
ENDROOT
BRANCH   1  10
ATOM      4  C   UNL     1      55.240   3.156  17.750  0.00  0.00    +0.000 C 
ATOM      5  C   UNL     1      54.908   4.023  18.959  0.00  0.00    +0.000 C 
ATOM      6  C   UNL     1      53.556   3.688  19.614  0.00  0.00    +0.000 C 
ATOM      7  N   UNL     1      52.429   4.401  19.014  0.00  0.00    +0.000 N 
ATOM      8  C   UNL     1      51.477   3.709  18.291  0.00  0.00    +0.000 A 
ATOM      9  C   UNL     1      50.185   4.208  18.223  0.00  0.00    +0.000 A 
ATOM     10  C   UNL     1      49.236   3.518  17.486  0.00  0.00    +0.000 A 
ATOM     11  N   UNL     1      49.560   2.373  16.855  0.00  0.00    +0.000 NA
ATOM     12  C   UNL     1      50.826   1.948  16.995  0.00  0.00    +0.000 A 
ATOM     13  N   UNL     1      51.798   2.553  17.692  0.00  0.00    +0.000 NA
ATOM     14  C   UNL     1      52.646   5.825  18.745  0.00  0.00    +0.000 C 
ATOM     15  C   UNL     1      53.996   6.085  18.048  0.00  0.00    +0.000 C 
ATOM     16  C   UNL     1      53.969   5.837  16.543  0.00  0.00    +0.000 C 
ATOM     17  O   UNL     1      55.093   5.422  18.691  0.00  0.00    +0.000 OA
ENDBRANCH   1  10
BRANCH   1  18
ATOM     18  C   UNL     1      47.631   4.683  15.928  0.00  0.00    +0.000 C 
BRANCH  18  19
ATOM     19  N   UNL     1      47.441   3.701  14.859  0.00  0.00    +0.000 N 
ATOM     20  C   UNL     1      46.621   4.058  13.793  0.00  0.00    +0.000 A 
ATOM     21  C   UNL     1      46.507   5.359  13.286  0.00  0.00    +0.000 A 
ATOM     22  N   UNL     1      45.738   5.708  12.222  0.00  0.00    +0.000 NA
ATOM     23  C   UNL     1      45.085   4.667  11.644  0.00  0.00    +0.000 A 
ATOM     24  C   UNL     1      45.195   3.369  12.119  0.00  0.00    +0.000 A 
ATOM     25  N   UNL     1      45.955   3.042  13.201  0.00  0.00    +0.000 NA
ATOM     26  H   UNL     1      47.166   2.760  15.137  0.00  0.00    +0.000 HD
BRANCH  23  27
ATOM     27  C   UNL     1      44.237   4.965  10.463  0.00  0.00    +0.000 C 
ATOM     28  N   UNL     1      44.838   4.851   9.240  0.00  0.00    +0.000 N 
ATOM     29  O   UNL     1      43.060   5.297  10.575  0.00  0.00    +0.000 OA
ATOM     30  H   UNL     1      45.811   4.568   9.173  0.00  0.00    +0.000 HD
ATOM     31  H   UNL     1      44.300   5.027   8.403  0.00  0.00    +0.000 HD
ENDBRANCH  23  27
ENDBRANCH  18  19
ENDBRANCH   1  18
TORSDOF 4
ENDMDL
MODEL 5
REMARK VINA RESULT:    -6.520      3.838      6.524
REMARK INTER + INTRA:          -8.982
REMARK INTER:                  -8.051
REMARK INTRA:                  -0.931
REMARK UNBOUND:                -0.937
REMARK  Name = 
REMARK  8 active torsions:
REMARK  status: ('A' for Active; 'I' for Inactive)
REMARK    1  A    between atoms: C_1  and  C_2
REMARK    2  A    between atoms: C_7  and  C_8
REMARK    3  A    between atoms: C_8  and  C_9
REMARK    4  A    between atoms: C_8  and  C_10
REMARK    5  A    between atoms: C_8  and  C_11
REMARK    6  A    between atoms: C_11  and  N_12
REMARK    7  A    between atoms: C_16  and  C_17
REMARK    8  A    between atoms: C_26  and  C_27
REMARK                            x       y       z     vdW  Elec       q    Type
REMARK                         _______ _______ _______ _____ _____    ______ ____
ROOT
ATOM      1  C   UNL     1      49.865   8.417  13.312  0.00  0.00    +0.000 C 
ATOM      2  C   UNL     1      49.241   9.687  12.694  0.00  0.00    +0.000 C 
ATOM      3  C   UNL     1      51.403   8.522  13.279  0.00  0.00    +0.000 C 
ENDROOT
BRANCH   1  10
ATOM      4  C   UNL     1      47.457   6.009  20.000  0.00  0.00    +0.000 C 
ATOM      5  C   UNL     1      48.800   5.312  19.820  0.00  0.00    +0.000 C 
ATOM      6  C   UNL     1      49.851   6.165  19.086  0.00  0.00    +0.000 C 
ATOM      7  N   UNL     1      49.788   6.037  17.631  0.00  0.00    +0.000 N 
ATOM      8  C   UNL     1      49.377   7.105  16.858  0.00  0.00    +0.000 A 
ATOM      9  C   UNL     1      49.839   7.216  15.556  0.00  0.00    +0.000 A 
ATOM     10  C   UNL     1      49.414   8.281  14.780  0.00  0.00    +0.000 A 
ATOM     11  N   UNL     1      48.573   9.204  15.286  0.00  0.00    +0.000 NA
ATOM     12  C   UNL     1      48.196   9.035  16.564  0.00  0.00    +0.000 A 
ATOM     13  N   UNL     1      48.566   8.038  17.379  0.00  0.00    +0.000 NA
ATOM     14  C   UNL     1      49.635   4.672  17.117  0.00  0.00    +0.000 C 
ATOM     15  C   UNL     1      48.537   3.891  17.864  0.00  0.00    +0.000 C 
ATOM     16  C   UNL     1      47.124   4.199  17.378  0.00  0.00    +0.000 C 
ATOM     17  O   UNL     1      48.656   3.985  19.290  0.00  0.00    +0.000 OA
ENDBRANCH   1  10
BRANCH   1  18
ATOM     18  C   UNL     1      49.396   7.163  12.518  0.00  0.00    +0.000 C 
BRANCH  18  19
ATOM     19  N   UNL     1      48.142   7.348  11.788  0.00  0.00    +0.000 N 
ATOM     20  C   UNL     1      47.093   6.479  12.077  0.00  0.00    +0.000 A 
ATOM     21  C   UNL     1      46.845   5.935  13.344  0.00  0.00    +0.000 A 
ATOM     22  N   UNL     1      45.803   5.117  13.642  0.00  0.00    +0.000 NA
ATOM     23  C   UNL     1      44.970   4.877  12.597  0.00  0.00    +0.000 A 
ATOM     24  C   UNL     1      45.186   5.417  11.338  0.00  0.00    +0.000 A 
ATOM     25  N   UNL     1      46.250   6.219  11.053  0.00  0.00    +0.000 NA
ATOM     26  H   UNL     1      48.199   7.409  10.773  0.00  0.00    +0.000 HD
BRANCH  23  27
ATOM     27  C   UNL     1      43.795   4.004  12.847  0.00  0.00    +0.000 C 
ATOM     28  N   UNL     1      43.954   2.676  12.566  0.00  0.00    +0.000 N 
ATOM     29  O   UNL     1      42.736   4.449  13.282  0.00  0.00    +0.000 OA
ATOM     30  H   UNL     1      44.843   2.330  12.214  0.00  0.00    +0.000 HD
ATOM     31  H   UNL     1      43.191   2.036  12.734  0.00  0.00    +0.000 HD
ENDBRANCH  23  27
ENDBRANCH  18  19
ENDBRANCH   1  18
TORSDOF 4
ENDMDL
MODEL 6
REMARK VINA RESULT:    -6.432      3.366      7.984
REMARK INTER + INTRA:          -8.873
REMARK INTER:                  -8.082
REMARK INTRA:                  -0.791
REMARK UNBOUND:                -0.937
REMARK  Name = 
REMARK  8 active torsions:
REMARK  status: ('A' for Active; 'I' for Inactive)
REMARK    1  A    between atoms: C_1  and  C_2
REMARK    2  A    between atoms: C_7  and  C_8
REMARK    3  A    between atoms: C_8  and  C_9
REMARK    4  A    between atoms: C_8  and  C_10
REMARK    5  A    between atoms: C_8  and  C_11
REMARK    6  A    between atoms: C_11  and  N_12
REMARK    7  A    between atoms: C_16  and  C_17
REMARK    8  A    between atoms: C_26  and  C_27
REMARK                            x       y       z     vdW  Elec       q    Type
REMARK                         _______ _______ _______ _____ _____    ______ ____
ROOT
ATOM      1  C   UNL     1      49.089   8.541  12.436  0.00  0.00    +0.000 C 
ATOM      2  C   UNL     1      49.862   7.425  11.699  0.00  0.00    +0.000 C 
ATOM      3  C   UNL     1      49.266   9.878  11.690  0.00  0.00    +0.000 C 
ENDROOT
BRANCH   1  10
ATOM      4  C   UNL     1      42.312   5.426  11.604  0.00  0.00    +0.000 C 
ATOM      5  C   UNL     1      43.082   4.413  12.442  0.00  0.00    +0.000 C 
ATOM      6  C   UNL     1      44.067   5.049  13.439  0.00  0.00    +0.000 C 
ATOM      7  N   UNL     1      45.386   5.311  12.863  0.00  0.00    +0.000 N 
ATOM      8  C   UNL     1      45.809   6.611  12.664  0.00  0.00    +0.000 A 
ATOM      9  C   UNL     1      47.166   6.891  12.683  0.00  0.00    +0.000 A 
ATOM     10  C   UNL     1      47.588   8.193  12.470  0.00  0.00    +0.000 A 
ATOM     11  N   UNL     1      46.691   9.176  12.259  0.00  0.00    +0.000 NA
ATOM     12  C   UNL     1      45.396   8.822  12.284  0.00  0.00    +0.000 A 
ATOM     13  N   UNL     1      44.910   7.590  12.488  0.00  0.00    +0.000 NA
ATOM     14  C   UNL     1      45.949   4.234  12.042  0.00  0.00    +0.000 C 
ATOM     15  C   UNL     1      44.924   3.675  11.036  0.00  0.00    +0.000 C 
ATOM     16  C   UNL     1      44.778   4.519   9.774  0.00  0.00    +0.000 C 
ATOM     17  O   UNL     1      43.659   3.372  11.639  0.00  0.00    +0.000 OA
ENDBRANCH   1  10
BRANCH   1  18
ATOM     18  C   UNL     1      49.614   8.667  13.896  0.00  0.00    +0.000 C 
BRANCH  18  19
ATOM     19  N   UNL     1      50.496   7.577  14.314  0.00  0.00    +0.000 N 
ATOM     20  C   UNL     1      50.133   6.851  15.444  0.00  0.00    +0.000 A 
ATOM     21  C   UNL     1      48.810   6.578  15.816  0.00  0.00    +0.000 A 
ATOM     22  N   UNL     1      48.449   5.839  16.897  0.00  0.00    +0.000 NA
ATOM     23  C   UNL     1      49.496   5.340  17.602  0.00  0.00    +0.000 A 
ATOM     24  C   UNL     1      50.813   5.583  17.244  0.00  0.00    +0.000 A 
ATOM     25  N   UNL     1      51.156   6.345  16.168  0.00  0.00    +0.000 NA
ATOM     26  H   UNL     1      51.487   7.792  14.411  0.00  0.00    +0.000 HD
BRANCH  23  27
ATOM     27  C   UNL     1      49.183   4.505  18.790  0.00  0.00    +0.000 C 
ATOM     28  N   UNL     1      49.435   3.166  18.673  0.00  0.00    +0.000 N 
ATOM     29  O   UNL     1      48.721   4.987  19.820  0.00  0.00    +0.000 OA
ATOM     30  H   UNL     1      49.825   2.791  17.813  0.00  0.00    +0.000 HD
ATOM     31  H   UNL     1      49.256   2.556  19.458  0.00  0.00    +0.000 HD
ENDBRANCH  23  27
ENDBRANCH  18  19
ENDBRANCH   1  18
TORSDOF 4
ENDMDL
MODEL 7
REMARK VINA RESULT:    -6.387      3.666      5.963
REMARK INTER + INTRA:          -8.818
REMARK INTER:                  -8.212
REMARK INTRA:                  -0.606
REMARK UNBOUND:                -0.937
REMARK  Name = 
REMARK  8 active torsions:
REMARK  status: ('A' for Active; 'I' for Inactive)
REMARK    1  A    between atoms: C_1  and  C_2
REMARK    2  A    between atoms: C_7  and  C_8
REMARK    3  A    between atoms: C_8  and  C_9
REMARK    4  A    between atoms: C_8  and  C_10
REMARK    5  A    between atoms: C_8  and  C_11
REMARK    6  A    between atoms: C_11  and  N_12
REMARK    7  A    between atoms: C_16  and  C_17
REMARK    8  A    between atoms: C_26  and  C_27
REMARK                            x       y       z     vdW  Elec       q    Type
REMARK                         _______ _______ _______ _____ _____    ______ ____
ROOT
ATOM      1  C   UNL     1      48.518   8.273  13.217  0.00  0.00    +0.000 C 
ATOM      2  C   UNL     1      48.730   9.802  13.215  0.00  0.00    +0.000 C 
ATOM      3  C   UNL     1      49.037   7.670  11.897  0.00  0.00    +0.000 C 
ENDROOT
BRANCH   1  10
ATOM      4  C   UNL     1      50.754   5.382  19.773  0.00  0.00    +0.000 C 
ATOM      5  C   UNL     1      49.727   4.380  19.260  0.00  0.00    +0.000 C 
ATOM      6  C   UNL     1      49.738   4.204  17.731  0.00  0.00    +0.000 C 
ATOM      7  N   UNL     1      48.888   5.166  17.030  0.00  0.00    +0.000 N 
ATOM      8  C   UNL     1      49.457   6.144  16.238  0.00  0.00    +0.000 A 
ATOM      9  C   UNL     1      48.735   6.654  15.170  0.00  0.00    +0.000 A 
ATOM     10  C   UNL     1      49.303   7.644  14.386  0.00  0.00    +0.000 A 
ATOM     11  N   UNL     1      50.544   8.097  14.648  0.00  0.00    +0.000 NA
ATOM     12  C   UNL     1      51.183   7.529  15.684  0.00  0.00    +0.000 A 
ATOM     13  N   UNL     1      50.705   6.567  16.485  0.00  0.00    +0.000 NA
ATOM     14  C   UNL     1      47.563   5.390  17.615  0.00  0.00    +0.000 C 
ATOM     15  C   UNL     1      47.630   5.605  19.140  0.00  0.00    +0.000 C 
ATOM     16  C   UNL     1      48.014   7.024  19.544  0.00  0.00    +0.000 C 
ATOM     17  O   UNL     1      48.421   4.614  19.808  0.00  0.00    +0.000 OA
ENDBRANCH   1  10
BRANCH   1  18
ATOM     18  C   UNL     1      47.004   7.954  13.394  0.00  0.00    +0.000 C 
BRANCH  18  19
ATOM     19  N   UNL     1      46.281   7.759  12.136  0.00  0.00    +0.000 N 
ATOM     20  C   UNL     1      45.730   6.504  11.897  0.00  0.00    +0.000 A 
ATOM     21  C   UNL     1      45.210   5.666  12.894  0.00  0.00    +0.000 A 
ATOM     22  N   UNL     1      44.637   4.457  12.664  0.00  0.00    +0.000 NA
ATOM     23  C   UNL     1      44.572   4.114  11.352  0.00  0.00    +0.000 A 
ATOM     24  C   UNL     1      45.065   4.933  10.348  0.00  0.00    +0.000 A 
ATOM     25  N   UNL     1      45.656   6.134  10.600  0.00  0.00    +0.000 NA
ATOM     26  H   UNL     1      46.756   8.037  11.279  0.00  0.00    +0.000 HD
BRANCH  23  27
ATOM     27  C   UNL     1      43.942   2.812  11.017  0.00  0.00    +0.000 C 
ATOM     28  N   UNL     1      44.480   2.131   9.961  0.00  0.00    +0.000 N 
ATOM     29  O   UNL     1      42.988   2.369  11.652  0.00  0.00    +0.000 OA
ATOM     30  H   UNL     1      45.274   2.514   9.456  0.00  0.00    +0.000 HD
ATOM     31  H   UNL     1      44.100   1.232   9.702  0.00  0.00    +0.000 HD
ENDBRANCH  23  27
ENDBRANCH  18  19
ENDBRANCH   1  18
TORSDOF 4
ENDMDL
MODEL 8
REMARK VINA RESULT:    -6.030      4.068      7.138
REMARK INTER + INTRA:          -8.377
REMARK INTER:                  -7.431
REMARK INTRA:                  -0.946
REMARK UNBOUND:                -0.937
REMARK  Name = 
REMARK  8 active torsions:
REMARK  status: ('A' for Active; 'I' for Inactive)
REMARK    1  A    between atoms: C_1  and  C_2
REMARK    2  A    between atoms: C_7  and  C_8
REMARK    3  A    between atoms: C_8  and  C_9
REMARK    4  A    between atoms: C_8  and  C_10
REMARK    5  A    between atoms: C_8  and  C_11
REMARK    6  A    between atoms: C_11  and  N_12
REMARK    7  A    between atoms: C_16  and  C_17
REMARK    8  A    between atoms: C_26  and  C_27
REMARK                            x       y       z     vdW  Elec       q    Type
REMARK                         _______ _______ _______ _____ _____    ______ ____
ROOT
ATOM      1  C   UNL     1      49.955   8.712  14.169  0.00  0.00    +0.000 C 
ATOM      2  C   UNL     1      49.403  10.095  14.578  0.00  0.00    +0.000 C 
ATOM      3  C   UNL     1      51.421   8.848  13.711  0.00  0.00    +0.000 C 
ENDROOT
BRANCH   1  10
ATOM      4  C   UNL     1      49.223   5.576  20.949  0.00  0.00    +0.000 C 
ATOM      5  C   UNL     1      47.806   6.000  20.584  0.00  0.00    +0.000 C 
ATOM      6  C   UNL     1      47.480   5.863  19.086  0.00  0.00    +0.000 C 
ATOM      7  N   UNL     1      47.845   7.043  18.303  0.00  0.00    +0.000 N 
ATOM      8  C   UNL     1      48.877   6.975  17.387  0.00  0.00    +0.000 A 
ATOM      9  C   UNL     1      48.863   7.820  16.289  0.00  0.00    +0.000 A 
ATOM     10  C   UNL     1      49.906   7.758  15.380  0.00  0.00    +0.000 A 
ATOM     11  N   UNL     1      50.914   6.881  15.553  0.00  0.00    +0.000 NA
ATOM     12  C   UNL     1      50.834   6.081  16.629  0.00  0.00    +0.000 A 
ATOM     13  N   UNL     1      49.860   6.077  17.549  0.00  0.00    +0.000 NA
ATOM     14  C   UNL     1      47.489   8.336  18.896  0.00  0.00    +0.000 C 
ATOM     15  C   UNL     1      47.885   8.422  20.383  0.00  0.00    +0.000 C 
ATOM     16  C   UNL     1      49.355   8.758  20.610  0.00  0.00    +0.000 C 
ATOM     17  O   UNL     1      47.463   7.279  21.139  0.00  0.00    +0.000 OA
ENDBRANCH   1  10
BRANCH   1  18
ATOM     18  C   UNL     1      49.088   8.119  13.021  0.00  0.00    +0.000 C 
BRANCH  18  19
ATOM     19  N   UNL     1      48.981   6.660  13.041  0.00  0.00    +0.000 N 
ATOM     20  C   UNL     1      47.704   6.106  13.032  0.00  0.00    +0.000 A 
ATOM     21  C   UNL     1      46.605   6.667  12.368  0.00  0.00    +0.000 A 
ATOM     22  N   UNL     1      45.365   6.113  12.325  0.00  0.00    +0.000 NA
ATOM     23  C   UNL     1      45.267   4.921  12.967  0.00  0.00    +0.000 A 
ATOM     24  C   UNL     1      46.344   4.340  13.617  0.00  0.00    +0.000 A 
ATOM     25  N   UNL     1      47.576   4.921  13.668  0.00  0.00    +0.000 NA
ATOM     26  H   UNL     1      49.509   6.165  13.758  0.00  0.00    +0.000 HD
BRANCH  23  27
ATOM     27  C   UNL     1      43.946   4.243  12.948  0.00  0.00    +0.000 C 
ATOM     28  N   UNL     1      43.945   2.926  12.582  0.00  0.00    +0.000 N 
ATOM     29  O   UNL     1      42.909   4.831  13.244  0.00  0.00    +0.000 OA
ATOM     30  H   UNL     1      44.817   2.459  12.349  0.00  0.00    +0.000 HD
ATOM     31  H   UNL     1      43.075   2.413  12.570  0.00  0.00    +0.000 HD
ENDBRANCH  23  27
ENDBRANCH  18  19
ENDBRANCH   1  18
TORSDOF 4
ENDMDL
