MODEL 1
REMARK VINA RESULT:    -7.910      0.000      0.000
REMARK INTER + INTRA:         -10.917
REMARK INTER:                 -10.453
REMARK INTRA:                  -0.464
REMARK UNBOUND:                -0.464
REMARK  Name = 
REMARK  6 active torsions:
REMARK  status: ('A' for Active; 'I' for Inactive)
REMARK    1  A    between atoms: N_1  and  C_2
REMARK    2  A    between atoms: C_2  and  C_3
REMARK    3  A    between atoms: C_3  and  C_4
REMARK    4  A    between atoms: C_7  and  C_8
REMARK    5  A    between atoms: C_8  and  N_9
REMARK    6  A    between atoms: C_14  and  C_15
REMARK                            x       y       z     vdW  Elec       q    Type
REMARK                         _______ _______ _______ _____ _____    ______ ____
ROOT
ATOM      1  N   UNL     1      44.641   5.515  11.297  0.00  0.00    +0.000 N 
ATOM      2  C   UNL     1      44.853   6.866  11.218  0.00  0.00    +0.000 A 
ATOM      3  N   UNL     1      45.670   7.292  12.159  0.00  0.00    +0.000 NA
ATOM      4  C   UNL     1      46.002   6.167  12.873  0.00  0.00    +0.000 A 
ATOM      5  C   UNL     1      46.806   6.008  14.009  0.00  0.00    +0.000 A 
ATOM      6  C   UNL     1      46.939   4.712  14.520  0.00  0.00    +0.000 A 
ATOM      7  C   UNL     1      46.296   3.659  13.857  0.00  0.00    +0.000 A 
ATOM      8  N   UNL     1      45.513   3.763  12.748  0.00  0.00    +0.000 NA
ATOM      9  C   UNL     1      45.399   5.039  12.330  0.00  0.00    +0.000 A 
ENDROOT
BRANCH   6  10
ATOM     10  C   UNL     1      47.710   4.387  15.743  0.00  0.00    +0.000 C 
ATOM     11  N   UNL     1      47.865   5.351  16.699  0.00  0.00    +0.000 N 
ATOM     12  O   UNL     1      48.196   3.275  15.911  0.00  0.00    +0.000 OA
ATOM     13  H   UNL     1      47.481   6.283  16.661  0.00  0.00    +0.000 HD
ATOM     14  H   UNL     1      48.373   5.088  17.535  0.00  0.00    +0.000 HD
ENDBRANCH   6  10
BRANCH   1  15
ATOM     15  C   UNL     1      43.773   4.734  10.439  0.00  0.00    +0.000 C 
BRANCH  15  19
ATOM     16  C   UNL     1      46.169   2.210   7.859  0.00  0.00    +0.000 A 
ATOM     17  C   UNL     1      45.293   1.641   8.794  0.00  0.00    +0.000 A 
ATOM     18  C   UNL     1      44.507   2.451   9.617  0.00  0.00    +0.000 A 
ATOM     19  C   UNL     1      44.571   3.847   9.515  0.00  0.00    +0.000 A 
ATOM     20  C   UNL     1      45.433   4.412   8.564  0.00  0.00    +0.000 A 
ATOM     21  C   UNL     1      46.220   3.603   7.743  0.00  0.00    +0.000 A 
BRANCH  16  22
ATOM     22  C   UNL     1      47.053   1.338   7.000  0.00  0.00    +0.000 C 
BRANCH  22  23
ATOM     23  C   UNL     1      48.325   2.056   6.541  0.00  0.00    +0.000 C 
BRANCH  23  24
ATOM     24  N   UNL     1      48.332   2.225   5.087  0.00  0.00    +0.000 NA
ATOM     25  H   UNL     1      47.496   1.794   4.693  0.00  0.00    +0.000 HD
ATOM     26  H   UNL     1      49.125   1.726   4.688  0.00  0.00    +0.000 HD
ENDBRANCH  23  24
ENDBRANCH  22  23
ENDBRANCH  16  22
ENDBRANCH  15  19
ENDBRANCH   1  15
TORSDOF 6
ENDMDL
MODEL 2
REMARK VINA RESULT:    -7.909      1.553      2.180
REMARK INTER + INTRA:         -10.917
REMARK INTER:                 -10.428
REMARK INTRA:                  -0.489
REMARK UNBOUND:                -0.464
REMARK  Name = 
REMARK  6 active torsions:
REMARK  status: ('A' for Active; 'I' for Inactive)
REMARK    1  A    between atoms: N_1  and  C_2
REMARK    2  A    between atoms: C_2  and  C_3
REMARK    3  A    between atoms: C_3  and  C_4
REMARK    4  A    between atoms: C_7  and  C_8
REMARK    5  A    between atoms: C_8  and  N_9
REMARK    6  A    between atoms: C_14  and  C_15
REMARK                            x       y       z     vdW  Elec       q    Type
REMARK                         _______ _______ _______ _____ _____    ______ ____
ROOT
ATOM      1  N   UNL     1      44.364   4.758  11.704  0.00  0.00    +0.000 N 
ATOM      2  C   UNL     1      43.903   4.132  12.832  0.00  0.00    +0.000 A 
ATOM      3  N   UNL     1      44.685   4.347  13.869  0.00  0.00    +0.000 NA
ATOM      4  C   UNL     1      45.691   5.150  13.390  0.00  0.00    +0.000 A 
ATOM      5  C   UNL     1      46.827   5.670  14.023  0.00  0.00    +0.000 A 
ATOM      6  C   UNL     1      47.686   6.456  13.248  0.00  0.00    +0.000 A 
ATOM      7  C   UNL     1      47.350   6.701  11.911  0.00  0.00    +0.000 A 
ATOM      8  N   UNL     1      46.256   6.226  11.255  0.00  0.00    +0.000 NA
ATOM      9  C   UNL     1      45.491   5.449  12.048  0.00  0.00    +0.000 A 
ENDROOT
BRANCH   6  10
ATOM     10  C   UNL     1      48.954   7.034  13.756  0.00  0.00    +0.000 C 
ATOM     11  N   UNL     1      49.567   8.016  13.030  0.00  0.00    +0.000 N 
ATOM     12  O   UNL     1      49.446   6.655  14.812  0.00  0.00    +0.000 OA
ATOM     13  H   UNL     1      49.225   8.408  12.166  0.00  0.00    +0.000 HD
ATOM     14  H   UNL     1      50.416   8.408  13.419  0.00  0.00    +0.000 HD
ENDBRANCH   6  10
BRANCH   1  15
ATOM     15  C   UNL     1      43.762   4.699  10.387  0.00  0.00    +0.000 C 
BRANCH  15  19
ATOM     16  C   UNL     1      46.153   2.182   7.796  0.00  0.00    +0.000 A 
ATOM     17  C   UNL     1      45.345   1.612   8.789  0.00  0.00    +0.000 A 
ATOM     18  C   UNL     1      44.560   2.420   9.617  0.00  0.00    +0.000 A 
ATOM     19  C   UNL     1      44.558   3.812   9.461  0.00  0.00    +0.000 A 
ATOM     20  C   UNL     1      45.353   4.376   8.453  0.00  0.00    +0.000 A 
ATOM     21  C   UNL     1      46.138   3.571   7.627  0.00  0.00    +0.000 A 
BRANCH  16  22
ATOM     22  C   UNL     1      47.038   1.316   6.931  0.00  0.00    +0.000 C 
BRANCH  22  23
ATOM     23  C   UNL     1      48.339   2.016   6.529  0.00  0.00    +0.000 C 
BRANCH  23  24
ATOM     24  N   UNL     1      48.385   2.241   5.083  0.00  0.00    +0.000 NA
ATOM     25  H   UNL     1      47.526   1.891   4.660  0.00  0.00    +0.000 HD
ATOM     26  H   UNL     1      49.145   1.698   4.676  0.00  0.00    +0.000 HD
ENDBRANCH  23  24
ENDBRANCH  22  23
ENDBRANCH  16  22
ENDBRANCH  15  19
ENDBRANCH   1  15
TORSDOF 6
ENDMDL
MODEL 3
REMARK VINA RESULT:    -7.404      2.757      6.895
REMARK INTER + INTRA:         -10.249
REMARK INTER:                  -9.920
REMARK INTRA:                  -0.328
REMARK UNBOUND:                -0.464
REMARK  Name = 
REMARK  6 active torsions:
REMARK  status: ('A' for Active; 'I' for Inactive)
REMARK    1  A    between atoms: N_1  and  C_2
REMARK    2  A    between atoms: C_2  and  C_3
REMARK    3  A    between atoms: C_3  and  C_4
REMARK    4  A    between atoms: C_7  and  C_8
REMARK    5  A    between atoms: C_8  and  N_9
REMARK    6  A    between atoms: C_14  and  C_15
REMARK                            x       y       z     vdW  Elec       q    Type
REMARK                         _______ _______ _______ _____ _____    ______ ____
ROOT
ATOM      1  N   UNL     1      43.931   4.377  10.359  0.00  0.00    +0.000 N 
ATOM      2  C   UNL     1      43.400   3.275  10.976  0.00  0.00    +0.000 A 
ATOM      3  N   UNL     1      43.906   2.155  10.503  0.00  0.00    +0.000 NA
ATOM      4  C   UNL     1      44.803   2.552   9.543  0.00  0.00    +0.000 A 
ATOM      5  C   UNL     1      45.612   1.801   8.679  0.00  0.00    +0.000 A 
ATOM      6  C   UNL     1      46.423   2.511   7.787  0.00  0.00    +0.000 A 
ATOM      7  C   UNL     1      46.405   3.911   7.829  0.00  0.00    +0.000 A 
ATOM      8  N   UNL     1      45.644   4.682   8.654  0.00  0.00    +0.000 NA
ATOM      9  C   UNL     1      44.863   3.938   9.461  0.00  0.00    +0.000 A 
ENDROOT
BRANCH   6  10
ATOM     10  C   UNL     1      47.294   1.864   6.777  0.00  0.00    +0.000 C 
ATOM     11  N   UNL     1      48.309   2.591   6.221  0.00  0.00    +0.000 N 
ATOM     12  O   UNL     1      47.124   0.697   6.446  0.00  0.00    +0.000 OA
ATOM     13  H   UNL     1      48.541   3.546   6.449  0.00  0.00    +0.000 HD
ATOM     14  H   UNL     1      48.903   2.111   5.555  0.00  0.00    +0.000 HD
ENDBRANCH   6  10
BRANCH   1  15
ATOM     15  C   UNL     1      43.571   5.757  10.616  0.00  0.00    +0.000 C 
BRANCH  15  19
ATOM     16  C   UNL     1      46.589   7.653  13.079  0.00  0.00    +0.000 A 
ATOM     17  C   UNL     1      45.816   8.415  12.192  0.00  0.00    +0.000 A 
ATOM     18  C   UNL     1      44.831   7.810  11.407  0.00  0.00    +0.000 A 
ATOM     19  C   UNL     1      44.589   6.432  11.502  0.00  0.00    +0.000 A 
ATOM     20  C   UNL     1      45.351   5.678  12.405  0.00  0.00    +0.000 A 
ATOM     21  C   UNL     1      46.336   6.281  13.188  0.00  0.00    +0.000 A 
BRANCH  16  22
ATOM     22  C   UNL     1      47.685   8.296  13.895  0.00  0.00    +0.000 C 
BRANCH  22  23
ATOM     23  C   UNL     1      48.524   7.274  14.667  0.00  0.00    +0.000 C 
BRANCH  23  24
ATOM     24  N   UNL     1      49.819   7.066  14.018  0.00  0.00    +0.000 NA
ATOM     25  H   UNL     1      50.271   7.968  13.869  0.00  0.00    +0.000 HD
ATOM     26  H   UNL     1      49.678   6.661  13.094  0.00  0.00    +0.000 HD
ENDBRANCH  23  24
ENDBRANCH  22  23
ENDBRANCH  16  22
ENDBRANCH  15  19
ENDBRANCH   1  15
TORSDOF 6
ENDMDL
MODEL 4
REMARK VINA RESULT:    -7.324      0.720      1.254
REMARK INTER + INTRA:         -10.143
REMARK INTER:                  -9.647
REMARK INTRA:                  -0.496
REMARK UNBOUND:                -0.464
REMARK  Name = 
REMARK  6 active torsions:
REMARK  status: ('A' for Active; 'I' for Inactive)
REMARK    1  A    between atoms: N_1  and  C_2
REMARK    2  A    between atoms: C_2  and  C_3
REMARK    3  A    between atoms: C_3  and  C_4
REMARK    4  A    between atoms: C_7  and  C_8
REMARK    5  A    between atoms: C_8  and  N_9
REMARK    6  A    between atoms: C_14  and  C_15
REMARK                            x       y       z     vdW  Elec       q    Type
REMARK                         _______ _______ _______ _____ _____    ______ ____
ROOT
ATOM      1  N   UNL     1      45.252   5.855  11.672  0.00  0.00    +0.000 N 
ATOM      2  C   UNL     1      45.738   7.126  11.519  0.00  0.00    +0.000 A 
ATOM      3  N   UNL     1      46.606   7.438  12.460  0.00  0.00    +0.000 NA
ATOM      4  C   UNL     1      46.686   6.317  13.250  0.00  0.00    +0.000 A 
ATOM      5  C   UNL     1      47.417   6.073  14.419  0.00  0.00    +0.000 A 
ATOM      6  C   UNL     1      47.271   4.812  15.011  0.00  0.00    +0.000 A 
ATOM      7  C   UNL     1      46.440   3.871  14.391  0.00  0.00    +0.000 A 
ATOM      8  N   UNL     1      45.718   4.060  13.252  0.00  0.00    +0.000 NA
ATOM      9  C   UNL     1      45.876   5.302  12.756  0.00  0.00    +0.000 A 
ENDROOT
BRANCH   6  10
ATOM     10  C   UNL     1      47.936   4.417  16.276  0.00  0.00    +0.000 C 
ATOM     11  N   UNL     1      47.656   5.121  17.413  0.00  0.00    +0.000 N 
ATOM     12  O   UNL     1      48.715   3.473  16.316  0.00  0.00    +0.000 OA
ATOM     13  H   UNL     1      47.011   5.894  17.482  0.00  0.00    +0.000 HD
ATOM     14  H   UNL     1      48.105   4.808  18.266  0.00  0.00    +0.000 HD
ENDBRANCH   6  10
BRANCH   1  15
ATOM     15  C   UNL     1      44.260   5.212  10.834  0.00  0.00    +0.000 C 
BRANCH  15  19
ATOM     16  C   UNL     1      45.997   2.504   7.933  0.00  0.00    +0.000 A 
ATOM     17  C   UNL     1      46.185   3.888   7.813  0.00  0.00    +0.000 A 
ATOM     18  C   UNL     1      45.640   4.764   8.756  0.00  0.00    +0.000 A 
ATOM     19  C   UNL     1      44.905   4.274   9.844  0.00  0.00    +0.000 A 
ATOM     20  C   UNL     1      44.736   2.888   9.970  0.00  0.00    +0.000 A 
ATOM     21  C   UNL     1      45.280   2.012   9.029  0.00  0.00    +0.000 A 
BRANCH  16  22
ATOM     22  C   UNL     1      46.546   1.558   6.891  0.00  0.00    +0.000 C 
BRANCH  22  23
ATOM     23  C   UNL     1      47.243   2.287   5.739  0.00  0.00    +0.000 C 
BRANCH  23  24
ATOM     24  N   UNL     1      48.640   1.867   5.626  0.00  0.00    +0.000 NA
ATOM     25  H   UNL     1      48.726   1.180   4.877  0.00  0.00    +0.000 HD
ATOM     26  H   UNL     1      48.926   1.393   6.481  0.00  0.00    +0.000 HD
ENDBRANCH  23  24
ENDBRANCH  22  23
ENDBRANCH  16  22
ENDBRANCH  15  19
ENDBRANCH   1  15
TORSDOF 6
ENDMDL
MODEL 5
REMARK VINA RESULT:    -7.275      2.573      3.773
REMARK INTER + INTRA:         -10.078
REMARK INTER:                  -9.795
REMARK INTRA:                  -0.284
REMARK UNBOUND:                -0.464
REMARK  Name = 
REMARK  6 active torsions:
REMARK  status: ('A' for Active; 'I' for Inactive)
REMARK    1  A    between atoms: N_1  and  C_2
REMARK    2  A    between atoms: C_2  and  C_3
REMARK    3  A    between atoms: C_3  and  C_4
REMARK    4  A    between atoms: C_7  and  C_8
REMARK    5  A    between atoms: C_8  and  N_9
REMARK    6  A    between atoms: C_14  and  C_15
REMARK                            x       y       z     vdW  Elec       q    Type
REMARK                         _______ _______ _______ _____ _____    ______ ____
ROOT
ATOM      1  N   UNL     1      44.995   5.220  12.171  0.00  0.00    +0.000 N 
ATOM      2  C   UNL     1      46.007   4.838  13.010  0.00  0.00    +0.000 A 
ATOM      3  N   UNL     1      46.710   5.867  13.435  0.00  0.00    +0.000 NA
ATOM      4  C   UNL     1      46.122   6.961  12.847  0.00  0.00    +0.000 A 
ATOM      5  C   UNL     1      46.459   8.319  12.900  0.00  0.00    +0.000 A 
ATOM      6  C   UNL     1      45.660   9.203  12.166  0.00  0.00    +0.000 A 
ATOM      7  C   UNL     1      44.567   8.691  11.457  0.00  0.00    +0.000 A 
ATOM      8  N   UNL     1      44.196   7.383  11.383  0.00  0.00    +0.000 NA
ATOM      9  C   UNL     1      45.026   6.584  12.082  0.00  0.00    +0.000 A 
ENDROOT
BRANCH   6  10
ATOM     10  C   UNL     1      45.916  10.661  12.078  0.00  0.00    +0.000 C 
ATOM     11  N   UNL     1      44.850  11.516  12.056  0.00  0.00    +0.000 N 
ATOM     12  O   UNL     1      47.057  11.104  12.035  0.00  0.00    +0.000 OA
ATOM     13  H   UNL     1      43.879  11.246  12.113  0.00  0.00    +0.000 HD
ATOM     14  H   UNL     1      45.060  12.506  12.023  0.00  0.00    +0.000 HD
ENDBRANCH   6  10
BRANCH   1  15
ATOM     15  C   UNL     1      44.059   4.338  11.502  0.00  0.00    +0.000 C 
BRANCH  15  19
ATOM     16  C   UNL     1      45.722   3.021   7.725  0.00  0.00    +0.000 A 
ATOM     17  C   UNL     1      45.081   2.109   8.574  0.00  0.00    +0.000 A 
ATOM     18  C   UNL     1      44.529   2.533   9.786  0.00  0.00    +0.000 A 
ATOM     19  C   UNL     1      44.597   3.879  10.169  0.00  0.00    +0.000 A 
ATOM     20  C   UNL     1      45.222   4.792   9.307  0.00  0.00    +0.000 A 
ATOM     21  C   UNL     1      45.774   4.369   8.097  0.00  0.00    +0.000 A 
BRANCH  16  22
ATOM     22  C   UNL     1      46.360   2.559   6.436  0.00  0.00    +0.000 C 
BRANCH  22  23
ATOM     23  C   UNL     1      47.531   1.600   6.667  0.00  0.00    +0.000 C 
BRANCH  23  24
ATOM     24  N   UNL     1      48.615   1.862   5.720  0.00  0.00    +0.000 NA
ATOM     25  H   UNL     1      49.506   1.617   6.150  0.00  0.00    +0.000 HD
ATOM     26  H   UNL     1      48.660   2.860   5.519  0.00  0.00    +0.000 HD
ENDBRANCH  23  24
ENDBRANCH  22  23
ENDBRANCH  16  22
ENDBRANCH  15  19
ENDBRANCH   1  15
TORSDOF 6
ENDMDL
MODEL 6
REMARK VINA RESULT:    -6.356      1.460      2.035
REMARK INTER + INTRA:          -8.864
REMARK INTER:                  -8.591
REMARK INTRA:                  -0.273
REMARK UNBOUND:                -0.464
REMARK  Name = 
REMARK  6 active torsions:
REMARK  status: ('A' for Active; 'I' for Inactive)
REMARK    1  A    between atoms: N_1  and  C_2
REMARK    2  A    between atoms: C_2  and  C_3
REMARK    3  A    between atoms: C_3  and  C_4
REMARK    4  A    between atoms: C_7  and  C_8
REMARK    5  A    between atoms: C_8  and  N_9
REMARK    6  A    between atoms: C_14  and  C_15
REMARK                            x       y       z     vdW  Elec       q    Type
REMARK                         _______ _______ _______ _____ _____    ______ ____
ROOT
ATOM      1  N   UNL     1      45.751   5.970  12.635  0.00  0.00    +0.000 N 
ATOM      2  C   UNL     1      46.312   7.180  12.323  0.00  0.00    +0.000 A 
ATOM      3  N   UNL     1      47.299   7.490  13.138  0.00  0.00    +0.000 NA
ATOM      4  C   UNL     1      47.380   6.433  14.011  0.00  0.00    +0.000 A 
ATOM      5  C   UNL     1      48.215   6.221  15.115  0.00  0.00    +0.000 A 
ATOM      6  C   UNL     1      48.041   5.028  15.826  0.00  0.00    +0.000 A 
ATOM      7  C   UNL     1      47.079   4.114  15.380  0.00  0.00    +0.000 A 
ATOM      8  N   UNL     1      46.251   4.272  14.310  0.00  0.00    +0.000 NA
ATOM      9  C   UNL     1      46.447   5.454  13.693  0.00  0.00    +0.000 A 
ENDROOT
BRANCH   6  10
ATOM     10  C   UNL     1      48.809   4.680  17.046  0.00  0.00    +0.000 C 
ATOM     11  N   UNL     1      49.117   3.369  17.277  0.00  0.00    +0.000 N 
ATOM     12  O   UNL     1      49.175   5.544  17.833  0.00  0.00    +0.000 OA
ATOM     13  H   UNL     1      48.880   2.595  16.675  0.00  0.00    +0.000 HD
ATOM     14  H   UNL     1      49.665   3.168  18.104  0.00  0.00    +0.000 HD
ENDBRANCH   6  10
BRANCH   1  15
ATOM     15  C   UNL     1      44.627   5.348  11.963  0.00  0.00    +0.000 C 
BRANCH  15  19
ATOM     16  C   UNL     1      45.757   3.342   8.294  0.00  0.00    +0.000 A 
ATOM     17  C   UNL     1      45.960   4.721   8.440  0.00  0.00    +0.000 A 
ATOM     18  C   UNL     1      45.612   5.369   9.628  0.00  0.00    +0.000 A 
ATOM     19  C   UNL     1      45.064   4.650  10.699  0.00  0.00    +0.000 A 
ATOM     20  C   UNL     1      44.881   3.268  10.556  0.00  0.00    +0.000 A 
ATOM     21  C   UNL     1      45.228   2.620   9.369  0.00  0.00    +0.000 A 
BRANCH  16  22
ATOM     22  C   UNL     1      46.090   2.646   6.995  0.00  0.00    +0.000 C 
BRANCH  22  23
ATOM     23  C   UNL     1      47.584   2.690   6.667  0.00  0.00    +0.000 C 
BRANCH  23  24
ATOM     24  N   UNL     1      48.064   1.374   6.242  0.00  0.00    +0.000 NA
ATOM     25  H   UNL     1      47.410   0.978   5.569  0.00  0.00    +0.000 HD
ATOM     26  H   UNL     1      48.073   0.740   7.039  0.00  0.00    +0.000 HD
ENDBRANCH  23  24
ENDBRANCH  22  23
ENDBRANCH  16  22
ENDBRANCH  15  19
ENDBRANCH   1  15
TORSDOF 6
ENDMDL
MODEL 7
REMARK VINA RESULT:    -6.336      3.520      7.853
REMARK INTER + INTRA:          -8.837
REMARK INTER:                  -8.761
REMARK INTRA:                  -0.076
REMARK UNBOUND:                -0.464
REMARK  Name = 
REMARK  6 active torsions:
REMARK  status: ('A' for Active; 'I' for Inactive)
REMARK    1  A    between atoms: N_1  and  C_2
REMARK    2  A    between atoms: C_2  and  C_3
REMARK    3  A    between atoms: C_3  and  C_4
REMARK    4  A    between atoms: C_7  and  C_8
REMARK    5  A    between atoms: C_8  and  N_9
REMARK    6  A    between atoms: C_14  and  C_15
REMARK                            x       y       z     vdW  Elec       q    Type
REMARK                         _______ _______ _______ _____ _____    ______ ____
ROOT
ATOM      1  N   UNL     1      47.343   5.030  15.197  0.00  0.00    +0.000 N 
ATOM      2  C   UNL     1      48.199   6.096  15.105  0.00  0.00    +0.000 A 
ATOM      3  N   UNL     1      48.126   6.684  13.929  0.00  0.00    +0.000 NA
ATOM      4  C   UNL     1      47.180   5.969  13.235  0.00  0.00    +0.000 A 
ATOM      5  C   UNL     1      46.710   6.106  11.923  0.00  0.00    +0.000 A 
ATOM      6  C   UNL     1      45.736   5.197  11.497  0.00  0.00    +0.000 A 
ATOM      7  C   UNL     1      45.270   4.236  12.403  0.00  0.00    +0.000 A 
ATOM      8  N   UNL     1      45.690   4.070  13.687  0.00  0.00    +0.000 NA
ATOM      9  C   UNL     1      46.651   4.953  14.021  0.00  0.00    +0.000 A 
ENDROOT
BRANCH   6  10
ATOM     10  C   UNL     1      45.176   5.177  10.124  0.00  0.00    +0.000 C 
ATOM     11  N   UNL     1      43.845   4.913   9.960  0.00  0.00    +0.000 N 
ATOM     12  O   UNL     1      45.880   5.403   9.147  0.00  0.00    +0.000 OA
ATOM     13  H   UNL     1      43.185   4.741  10.703  0.00  0.00    +0.000 HD
ATOM     14  H   UNL     1      43.489   4.934   9.012  0.00  0.00    +0.000 HD
ENDBRANCH   6  10
BRANCH   1  15
ATOM     15  C   UNL     1      47.197   4.148  16.338  0.00  0.00    +0.000 C 
BRANCH  15  19
ATOM     16  C   UNL     1      51.089   2.697  17.571  0.00  0.00    +0.000 A 
ATOM     17  C   UNL     1      50.691   4.006  17.875  0.00  0.00    +0.000 A 
ATOM     18  C   UNL     1      49.430   4.473  17.493  0.00  0.00    +0.000 A 
ATOM     19  C   UNL     1      48.537   3.637  16.809  0.00  0.00    +0.000 A 
ATOM     20  C   UNL     1      48.931   2.322  16.525  0.00  0.00    +0.000 A 
ATOM     21  C   UNL     1      50.190   1.855  16.905  0.00  0.00    +0.000 A 
BRANCH  16  22
ATOM     22  C   UNL     1      52.467   2.204  17.942  0.00  0.00    +0.000 C 
BRANCH  22  23
ATOM     23  C   UNL     1      52.779   0.825  17.354  0.00  0.00    +0.000 C 
BRANCH  23  24
ATOM     24  N   UNL     1      52.783  -0.199  18.400  0.00  0.00    +0.000 NA
ATOM     25  H   UNL     1      51.945  -0.772  18.314  0.00  0.00    +0.000 HD
ATOM     26  H   UNL     1      52.732   0.246  19.315  0.00  0.00    +0.000 HD
ENDBRANCH  23  24
ENDBRANCH  22  23
ENDBRANCH  16  22
ENDBRANCH  15  19
ENDBRANCH   1  15
TORSDOF 6
ENDMDL
MODEL 8
REMARK VINA RESULT:    -5.612      4.423      6.891
REMARK INTER + INTRA:          -7.881
REMARK INTER:                  -7.332
REMARK INTRA:                  -0.549
REMARK UNBOUND:                -0.464
REMARK  Name = 
REMARK  6 active torsions:
REMARK  status: ('A' for Active; 'I' for Inactive)
REMARK    1  A    between atoms: N_1  and  C_2
REMARK    2  A    between atoms: C_2  and  C_3
REMARK    3  A    between atoms: C_3  and  C_4
REMARK    4  A    between atoms: C_7  and  C_8
REMARK    5  A    between atoms: C_8  and  N_9
REMARK    6  A    between atoms: C_14  and  C_15
REMARK                            x       y       z     vdW  Elec       q    Type
REMARK                         _______ _______ _______ _____ _____    ______ ____
ROOT
ATOM      1  N   UNL     1      47.523   6.703  13.380  0.00  0.00    +0.000 N 
ATOM      2  C   UNL     1      47.896   5.962  14.470  0.00  0.00    +0.000 A 
ATOM      3  N   UNL     1      47.338   4.769  14.468  0.00  0.00    +0.000 NA
ATOM      4  C   UNL     1      46.576   4.739  13.325  0.00  0.00    +0.000 A 
ATOM      5  C   UNL     1      45.731   3.745  12.815  0.00  0.00    +0.000 A 
ATOM      6  C   UNL     1      45.070   4.025  11.614  0.00  0.00    +0.000 A 
ATOM      7  C   UNL     1      45.312   5.252  10.984  0.00  0.00    +0.000 A 
ATOM      8  N   UNL     1      46.129   6.243  11.436  0.00  0.00    +0.000 NA
ATOM      9  C   UNL     1      46.705   5.923  12.611  0.00  0.00    +0.000 A 
ENDROOT
BRANCH   6  10
ATOM     10  C   UNL     1      44.104   3.100  10.973  0.00  0.00    +0.000 C 
ATOM     11  N   UNL     1      44.551   2.256   9.996  0.00  0.00    +0.000 N 
ATOM     12  O   UNL     1      42.928   3.076  11.313  0.00  0.00    +0.000 OA
ATOM     13  H   UNL     1      45.503   2.188   9.669  0.00  0.00    +0.000 HD
ATOM     14  H   UNL     1      43.872   1.618   9.598  0.00  0.00    +0.000 HD
ENDBRANCH   6  10
BRANCH   1  15
ATOM     15  C   UNL     1      47.926   8.066  13.094  0.00  0.00    +0.000 C 
BRANCH  15  19
ATOM     16  C   UNL     1      52.069   8.366  11.865  0.00  0.00    +0.000 A 
ATOM     17  C   UNL     1      51.678   8.775  13.147  0.00  0.00    +0.000 A 
ATOM     18  C   UNL     1      50.346   8.665  13.554  0.00  0.00    +0.000 A 
ATOM     19  C   UNL     1      49.378   8.133  12.690  0.00  0.00    +0.000 A 
ATOM     20  C   UNL     1      49.777   7.707  11.416  0.00  0.00    +0.000 A 
ATOM     21  C   UNL     1      51.108   7.817  11.009  0.00  0.00    +0.000 A 
BRANCH  16  22
ATOM     22  C   UNL     1      53.499   8.526  11.407  0.00  0.00    +0.000 C 
BRANCH  22  23
ATOM     23  C   UNL     1      54.511   8.035  12.445  0.00  0.00    +0.000 C 
BRANCH  23  24
ATOM     24  N   UNL     1      54.594   6.573  12.443  0.00  0.00    +0.000 NA
ATOM     25  H   UNL     1      53.913   6.196  13.101  0.00  0.00    +0.000 HD
ATOM     26  H   UNL     1      55.509   6.282  12.781  0.00  0.00    +0.000 HD
ENDBRANCH  23  24
ENDBRANCH  22  23
ENDBRANCH  16  22
ENDBRANCH  15  19
ENDBRANCH   1  15
TORSDOF 6
ENDMDL
MODEL 9
REMARK VINA RESULT:    -5.387      3.345      4.481
REMARK INTER + INTRA:          -7.584
REMARK INTER:                  -7.118
REMARK INTRA:                  -0.466
REMARK UNBOUND:                -0.464
REMARK  Name = 
REMARK  6 active torsions:
REMARK  status: ('A' for Active; 'I' for Inactive)
REMARK    1  A    between atoms: N_1  and  C_2
REMARK    2  A    between atoms: C_2  and  C_3
REMARK    3  A    between atoms: C_3  and  C_4
REMARK    4  A    between atoms: C_7  and  C_8
REMARK    5  A    between atoms: C_8  and  N_9
REMARK    6  A    between atoms: C_14  and  C_15
REMARK                            x       y       z     vdW  Elec       q    Type
REMARK                         _______ _______ _______ _____ _____    ______ ____
ROOT
ATOM      1  N   UNL     1      46.516   6.368  13.269  0.00  0.00    +0.000 N 
ATOM      2  C   UNL     1      47.418   5.613  13.971  0.00  0.00    +0.000 A 
ATOM      3  N   UNL     1      48.543   6.264  14.184  0.00  0.00    +0.000 NA
ATOM      4  C   UNL     1      48.357   7.491  13.597  0.00  0.00    +0.000 A 
ATOM      5  C   UNL     1      49.221   8.586  13.472  0.00  0.00    +0.000 A 
ATOM      6  C   UNL     1      48.733   9.709  12.794  0.00  0.00    +0.000 A 
ATOM      7  C   UNL     1      47.418   9.687  12.315  0.00  0.00    +0.000 A 
ATOM      8  N   UNL     1      46.539   8.652  12.420  0.00  0.00    +0.000 NA
ATOM      9  C   UNL     1      47.083   7.592  13.051  0.00  0.00    +0.000 A 
ENDROOT
BRANCH   6  10
ATOM     10  C   UNL     1      49.540  10.926  12.533  0.00  0.00    +0.000 C 
ATOM     11  N   UNL     1      50.382  11.378  13.510  0.00  0.00    +0.000 N 
ATOM     12  O   UNL     1      49.471  11.516  11.462  0.00  0.00    +0.000 OA
ATOM     13  H   UNL     1      50.525  10.945  14.409  0.00  0.00    +0.000 HD
ATOM     14  H   UNL     1      50.940  12.195  13.289  0.00  0.00    +0.000 HD
ENDBRANCH   6  10
BRANCH   1  15
ATOM     15  C   UNL     1      45.198   5.944  12.839  0.00  0.00    +0.000 C 
BRANCH  15  19
ATOM     16  C   UNL     1      45.262   3.781   9.086  0.00  0.00    +0.000 A 
ATOM     17  C   UNL     1      45.650   5.127   9.135  0.00  0.00    +0.000 A 
ATOM     18  C   UNL     1      45.646   5.824  10.347  0.00  0.00    +0.000 A 
ATOM     19  C   UNL     1      45.265   5.187  11.535  0.00  0.00    +0.000 A 
ATOM     20  C   UNL     1      44.898   3.835  11.484  0.00  0.00    +0.000 A 
ATOM     21  C   UNL     1      44.901   3.138  10.275  0.00  0.00    +0.000 A 
BRANCH  16  22
ATOM     22  C   UNL     1      45.222   3.038   7.771  0.00  0.00    +0.000 C 
BRANCH  22  23
ATOM     23  C   UNL     1      46.390   3.400   6.851  0.00  0.00    +0.000 C 
BRANCH  23  24
ATOM     24  N   UNL     1      46.945   2.204   6.216  0.00  0.00    +0.000 NA
ATOM     25  H   UNL     1      46.299   1.871   5.501  0.00  0.00    +0.000 HD
ATOM     26  H   UNL     1      47.020   1.455   6.903  0.00  0.00    +0.000 HD
ENDBRANCH  23  24
ENDBRANCH  22  23
ENDBRANCH  16  22
ENDBRANCH  15  19
ENDBRANCH   1  15
TORSDOF 6
ENDMDL
