MODEL 1
REMARK VINA RESULT:    -8.061      0.000      0.000
REMARK INTER + INTRA:         -12.375
REMARK INTER:                 -11.360
REMARK INTRA:                  -1.016
REMARK UNBOUND:                -1.016
REMARK  Name = 
REMARK  7 active torsions:
REMARK  status: ('A' for Active; 'I' for Inactive)
REMARK    1  A    between atoms: C_2  and  C_19
REMARK    2  A    between atoms: N_3  and  C_4
REMARK    3  A    between atoms: C_4  and  C_5
REMARK    4  A    between atoms: C_8  and  C_9
REMARK    5  A    between atoms: C_9  and  O_10
REMARK    6  A    between atoms: O_10  and  C_11
REMARK    7  A    between atoms: C_11  and  C_12
REMARK                            x       y       z     vdW  Elec       q    Type
REMARK                         _______ _______ _______ _____ _____    ______ ____
ROOT
ATOM      1  O   UNL     1      49.034   6.467  13.211  0.00  0.00    +0.000 OA
ATOM      2  C   UNL     1      48.312   6.636  14.190  0.00  0.00    +0.000 C 
ATOM      3  N   UNL     1      46.996   7.007  14.065  0.00  0.00    +0.000 N 
ATOM      4  H   UNL     1      46.498   7.333  14.889  0.00  0.00    +0.000 HD
ENDROOT
BRANCH   2   5
ATOM      5  C   UNL     1      48.803   6.417  15.555  0.00  0.00    +0.000 A 
ATOM      6  C   UNL     1      49.742   7.283  16.099  0.00  0.00    +0.000 A 
ATOM      7  S   UNL     1      50.218   6.864  17.683  0.00  0.00    +0.000 S 
ATOM      8  C   UNL     1      49.149   5.540  17.713  0.00  0.00    +0.000 A 
ATOM      9  N   UNL     1      49.039   4.753  18.818  0.00  0.00    +0.000 NA
ATOM     10  C   UNL     1      48.168   3.804  18.713  0.00  0.00    +0.000 A 
ATOM     11  N   UNL     1      47.396   3.572  17.603  0.00  0.00    +0.000 N 
ATOM     12  C   UNL     1      47.492   4.324  16.457  0.00  0.00    +0.000 A 
ATOM     13  O   UNL     1      46.815   4.066  15.466  0.00  0.00    +0.000 OA
ATOM     14  C   UNL     1      48.452   5.408  16.526  0.00  0.00    +0.000 A 
ATOM     15  H   UNL     1      46.737   2.807  17.580  0.00  0.00    +0.000 HD
ENDBRANCH   2   5
BRANCH   3  16
ATOM     16  C   UNL     1      46.457   7.381  12.784  0.00  0.00    +0.000 C 
BRANCH  16  17
ATOM     17  C   UNL     1      45.849   6.208  12.077  0.00  0.00    +0.000 A 
ATOM     18  C   UNL     1      45.246   5.179  12.791  0.00  0.00    +0.000 A 
ATOM     19  N   UNL     1      44.667   4.097  12.226  0.00  0.00    +0.000 NA
ATOM     20  C   UNL     1      44.692   4.016  10.872  0.00  0.00    +0.000 A 
ATOM     21  C   UNL     1      45.298   4.983  10.075  0.00  0.00    +0.000 A 
ATOM     22  C   UNL     1      45.891   6.085  10.687  0.00  0.00    +0.000 A 
BRANCH  20  23
ATOM     23  C   UNL     1      44.094   2.778  10.245  0.00  0.00    +0.000 C 
BRANCH  23  24
ATOM     24  O   UNL     1      44.515   2.591   8.889  0.00  0.00    +0.000 OA
BRANCH  24  25
ATOM     25  C   UNL     1      45.616   1.690   8.785  0.00  0.00    +0.000 C 
BRANCH  25  26
ATOM     26  C   UNL     1      46.437   2.019   7.569  0.00  0.00    +0.000 C 
ATOM     27  C   UNL     1      46.170   3.188   6.711  0.00  0.00    +0.000 C 
ATOM     28  C   UNL     1      47.182   3.098   5.708  0.00  0.00    +0.000 C 
ATOM     29  C   UNL     1      47.886   1.997   6.006  0.00  0.00    +0.000 C 
ATOM     30  N   UNL     1      47.449   1.310   7.126  0.00  0.00    +0.000 NA
ENDBRANCH  25  26
ENDBRANCH  24  25
ENDBRANCH  23  24
ENDBRANCH  20  23
ENDBRANCH  16  17
ENDBRANCH   3  16
TORSDOF 7
ENDMDL
MODEL 2
REMARK VINA RESULT:    -7.431      2.563      3.116
REMARK INTER + INTRA:         -11.487
REMARK INTER:                 -10.559
REMARK INTRA:                  -0.929
REMARK UNBOUND:                -1.016
REMARK  Name = 
REMARK  7 active torsions:
REMARK  status: ('A' for Active; 'I' for Inactive)
REMARK    1  A    between atoms: C_2  and  C_19
REMARK    2  A    between atoms: N_3  and  C_4
REMARK    3  A    between atoms: C_4  and  C_5
REMARK    4  A    between atoms: C_8  and  C_9
REMARK    5  A    between atoms: C_9  and  O_10
REMARK    6  A    between atoms: O_10  and  C_11
REMARK    7  A    between atoms: C_11  and  C_12
REMARK                            x       y       z     vdW  Elec       q    Type
REMARK                         _______ _______ _______ _____ _____    ______ ____
ROOT
ATOM      1  O   UNL     1      49.801   5.451  16.401  0.00  0.00    +0.000 OA
ATOM      2  C   UNL     1      48.765   6.063  16.653  0.00  0.00    +0.000 C 
ATOM      3  N   UNL     1      47.906   6.472  15.664  0.00  0.00    +0.000 N 
ATOM      4  H   UNL     1      47.178   7.143  15.892  0.00  0.00    +0.000 HD
ENDROOT
BRANCH   2   5
ATOM      5  C   UNL     1      48.366   6.364  18.032  0.00  0.00    +0.000 A 
ATOM      6  C   UNL     1      48.340   5.350  18.981  0.00  0.00    +0.000 A 
ATOM      7  S   UNL     1      47.829   5.874  20.522  0.00  0.00    +0.000 S 
ATOM      8  C   UNL     1      47.675   7.481  19.986  0.00  0.00    +0.000 A 
ATOM      9  N   UNL     1      47.290   8.470  20.838  0.00  0.00    +0.000 NA
ATOM     10  C   UNL     1      47.244   9.647  20.306  0.00  0.00    +0.000 A 
ATOM     11  N   UNL     1      47.549   9.924  18.997  0.00  0.00    +0.000 N 
ATOM     12  C   UNL     1      47.916   8.954  18.095  0.00  0.00    +0.000 A 
ATOM     13  O   UNL     1      48.144   9.228  16.921  0.00  0.00    +0.000 OA
ATOM     14  C   UNL     1      47.990   7.615  18.647  0.00  0.00    +0.000 A 
ATOM     15  H   UNL     1      47.485  10.866  18.638  0.00  0.00    +0.000 HD
ENDBRANCH   2   5
BRANCH   3  16
ATOM     16  C   UNL     1      48.271   6.350  14.277  0.00  0.00    +0.000 C 
BRANCH  16  17
ATOM     17  C   UNL     1      47.224   5.619  13.492  0.00  0.00    +0.000 A 
ATOM     18  C   UNL     1      46.815   4.344  13.864  0.00  0.00    +0.000 A 
ATOM     19  N   UNL     1      45.870   3.627  13.216  0.00  0.00    +0.000 NA
ATOM     20  C   UNL     1      45.298   4.197  12.126  0.00  0.00    +0.000 A 
ATOM     21  C   UNL     1      45.664   5.457  11.661  0.00  0.00    +0.000 A 
ATOM     22  C   UNL     1      46.644   6.169  12.348  0.00  0.00    +0.000 A 
BRANCH  20  23
ATOM     23  C   UNL     1      44.283   3.371  11.370  0.00  0.00    +0.000 C 
BRANCH  23  24
ATOM     24  O   UNL     1      44.492   3.406   9.953  0.00  0.00    +0.000 OA
BRANCH  24  25
ATOM     25  C   UNL     1      44.590   2.100   9.390  0.00  0.00    +0.000 C 
BRANCH  25  26
ATOM     26  C   UNL     1      45.714   2.053   8.392  0.00  0.00    +0.000 C 
ATOM     27  C   UNL     1      46.113   3.214   7.575  0.00  0.00    +0.000 C 
ATOM     28  C   UNL     1      47.200   2.712   6.797  0.00  0.00    +0.000 C 
ATOM     29  C   UNL     1      47.339   1.429   7.161  0.00  0.00    +0.000 C 
ATOM     30  N   UNL     1      46.440   0.994   8.120  0.00  0.00    +0.000 NA
ENDBRANCH  25  26
ENDBRANCH  24  25
ENDBRANCH  23  24
ENDBRANCH  20  23
ENDBRANCH  16  17
ENDBRANCH   3  16
TORSDOF 7
ENDMDL
MODEL 3
REMARK VINA RESULT:    -6.890      3.325      4.623
REMARK INTER + INTRA:         -10.726
REMARK INTER:                  -9.719
REMARK INTRA:                  -1.007
REMARK UNBOUND:                -1.016
REMARK  Name = 
REMARK  7 active torsions:
REMARK  status: ('A' for Active; 'I' for Inactive)
REMARK    1  A    between atoms: C_2  and  C_19
REMARK    2  A    between atoms: N_3  and  C_4
REMARK    3  A    between atoms: C_4  and  C_5
REMARK    4  A    between atoms: C_8  and  C_9
REMARK    5  A    between atoms: C_9  and  O_10
REMARK    6  A    between atoms: O_10  and  C_11
REMARK    7  A    between atoms: C_11  and  C_12
REMARK                            x       y       z     vdW  Elec       q    Type
REMARK                         _______ _______ _______ _____ _____    ______ ____
ROOT
ATOM      1  O   UNL     1      51.725   6.191  16.567  0.00  0.00    +0.000 OA
ATOM      2  C   UNL     1      51.385   5.297  17.338  0.00  0.00    +0.000 C 
ATOM      3  N   UNL     1      50.077   5.126  17.718  0.00  0.00    +0.000 N 
ATOM      4  H   UNL     1      49.870   4.515  18.503  0.00  0.00    +0.000 HD
ENDROOT
BRANCH   2   5
ATOM      5  C   UNL     1      52.353   4.332  17.872  0.00  0.00    +0.000 A 
ATOM      6  C   UNL     1      53.477   4.784  18.549  0.00  0.00    +0.000 A 
ATOM      7  S   UNL     1      54.504   3.529  19.078  0.00  0.00    +0.000 S 
ATOM      8  C   UNL     1      53.455   2.338  18.464  0.00  0.00    +0.000 A 
ATOM      9  N   UNL     1      53.737   1.014  18.610  0.00  0.00    +0.000 NA
ATOM     10  C   UNL     1      52.840   0.221  18.124  0.00  0.00    +0.000 A 
ATOM     11  N   UNL     1      51.687   0.632  17.505  0.00  0.00    +0.000 N 
ATOM     12  C   UNL     1      51.374   1.956  17.312  0.00  0.00    +0.000 A 
ATOM     13  O   UNL     1      50.353   2.291  16.720  0.00  0.00    +0.000 OA
ATOM     14  C   UNL     1      52.347   2.889  17.848  0.00  0.00    +0.000 A 
ATOM     15  H   UNL     1      51.028  -0.039  17.137  0.00  0.00    +0.000 HD
ENDBRANCH   2   5
BRANCH   3  16
ATOM     16  C   UNL     1      49.076   6.097  17.363  0.00  0.00    +0.000 C 
BRANCH  16  17
ATOM     17  C   UNL     1      48.271   5.654  16.179  0.00  0.00    +0.000 A 
ATOM     18  C   UNL     1      47.513   4.489  16.228  0.00  0.00    +0.000 A 
ATOM     19  N   UNL     1      46.754   4.031  15.208  0.00  0.00    +0.000 NA
ATOM     20  C   UNL     1      46.746   4.759  14.064  0.00  0.00    +0.000 A 
ATOM     21  C   UNL     1      47.496   5.923  13.912  0.00  0.00    +0.000 A 
ATOM     22  C   UNL     1      48.272   6.367  14.979  0.00  0.00    +0.000 A 
BRANCH  20  23
ATOM     23  C   UNL     1      45.941   4.215  12.907  0.00  0.00    +0.000 C 
BRANCH  23  24
ATOM     24  O   UNL     1      45.701   5.199  11.894  0.00  0.00    +0.000 OA
BRANCH  24  25
ATOM     25  C   UNL     1      44.443   5.015  11.248  0.00  0.00    +0.000 C 
BRANCH  25  26
ATOM     26  C   UNL     1      44.593   4.068  10.090  0.00  0.00    +0.000 C 
ATOM     27  C   UNL     1      45.316   4.418   8.854  0.00  0.00    +0.000 C 
ATOM     28  C   UNL     1      45.205   3.235   8.061  0.00  0.00    +0.000 C 
ATOM     29  C   UNL     1      44.492   2.374   8.800  0.00  0.00    +0.000 C 
ATOM     30  N   UNL     1      44.093   2.856  10.035  0.00  0.00    +0.000 NA
ENDBRANCH  25  26
ENDBRANCH  24  25
ENDBRANCH  23  24
ENDBRANCH  20  23
ENDBRANCH  16  17
ENDBRANCH   3  16
TORSDOF 7
ENDMDL
MODEL 4
REMARK VINA RESULT:    -6.604      3.117      4.172
REMARK INTER + INTRA:         -10.323
REMARK INTER:                  -9.295
REMARK INTRA:                  -1.028
REMARK UNBOUND:                -1.016
REMARK  Name = 
REMARK  7 active torsions:
REMARK  status: ('A' for Active; 'I' for Inactive)
REMARK    1  A    between atoms: C_2  and  C_19
REMARK    2  A    between atoms: N_3  and  C_4
REMARK    3  A    between atoms: C_4  and  C_5
REMARK    4  A    between atoms: C_8  and  C_9
REMARK    5  A    between atoms: C_9  and  O_10
REMARK    6  A    between atoms: O_10  and  C_11
REMARK    7  A    between atoms: C_11  and  C_12
REMARK                            x       y       z     vdW  Elec       q    Type
REMARK                         _______ _______ _______ _____ _____    ______ ____
ROOT
ATOM      1  O   UNL     1      47.903   8.783  15.287  0.00  0.00    +0.000 OA
ATOM      2  C   UNL     1      48.290   8.968  14.136  0.00  0.00    +0.000 C 
ATOM      3  N   UNL     1      47.416   9.043  13.080  0.00  0.00    +0.000 N 
ATOM      4  H   UNL     1      47.783   8.992  12.134  0.00  0.00    +0.000 HD
ENDROOT
BRANCH   2   5
ATOM      5  C   UNL     1      49.711   9.158  13.824  0.00  0.00    +0.000 A 
ATOM      6  C   UNL     1      50.499   9.956  14.643  0.00  0.00    +0.000 A 
ATOM      7  S   UNL     1      52.116  10.084  14.117  0.00  0.00    +0.000 S 
ATOM      8  C   UNL     1      51.831   9.037  12.806  0.00  0.00    +0.000 A 
ATOM      9  N   UNL     1      52.833   8.697  11.951  0.00  0.00    +0.000 NA
ATOM     10  C   UNL     1      52.484   7.871  11.020  0.00  0.00    +0.000 A 
ATOM     11  N   UNL     1      51.222   7.354  10.868  0.00  0.00    +0.000 N 
ATOM     12  C   UNL     1      50.174   7.690  11.691  0.00  0.00    +0.000 A 
ATOM     13  O   UNL     1      49.047   7.241  11.505  0.00  0.00    +0.000 OA
ATOM     14  C   UNL     1      50.517   8.610  12.759  0.00  0.00    +0.000 A 
ATOM     15  H   UNL     1      51.009   6.718  10.113  0.00  0.00    +0.000 HD
ENDBRANCH   2   5
BRANCH   3  16
ATOM     16  C   UNL     1      46.022   8.734  13.258  0.00  0.00    +0.000 C 
BRANCH  16  17
ATOM     17  C   UNL     1      45.676   7.391  12.687  0.00  0.00    +0.000 A 
ATOM     18  C   UNL     1      46.150   6.224  13.275  0.00  0.00    +0.000 A 
ATOM     19  N   UNL     1      45.873   4.979  12.827  0.00  0.00    +0.000 NA
ATOM     20  C   UNL     1      45.088   4.876  11.726  0.00  0.00    +0.000 A 
ATOM     21  C   UNL     1      44.591   5.990  11.054  0.00  0.00    +0.000 A 
ATOM     22  C   UNL     1      44.898   7.259  11.536  0.00  0.00    +0.000 A 
BRANCH  20  23
ATOM     23  C   UNL     1      44.826   3.486  11.195  0.00  0.00    +0.000 C 
BRANCH  23  24
ATOM     24  O   UNL     1      44.655   3.464   9.773  0.00  0.00    +0.000 OA
BRANCH  24  25
ATOM     25  C   UNL     1      44.672   2.139   9.247  0.00  0.00    +0.000 C 
BRANCH  25  26
ATOM     26  C   UNL     1      45.819   1.982   8.287  0.00  0.00    +0.000 C 
ATOM     27  C   UNL     1      46.319   3.083   7.444  0.00  0.00    +0.000 C 
ATOM     28  C   UNL     1      47.392   2.481   6.719  0.00  0.00    +0.000 C 
ATOM     29  C   UNL     1      47.433   1.206   7.131  0.00  0.00    +0.000 C 
ATOM     30  N   UNL     1      46.479   0.867   8.075  0.00  0.00    +0.000 NA
ENDBRANCH  25  26
ENDBRANCH  24  25
ENDBRANCH  23  24
ENDBRANCH  20  23
ENDBRANCH  16  17
ENDBRANCH   3  16
TORSDOF 7
ENDMDL
MODEL 5
REMARK VINA RESULT:    -6.568      2.062      2.703
REMARK INTER + INTRA:         -10.271
REMARK INTER:                  -9.232
REMARK INTRA:                  -1.039
REMARK UNBOUND:                -1.016
REMARK  Name = 
REMARK  7 active torsions:
REMARK  status: ('A' for Active; 'I' for Inactive)
REMARK    1  A    between atoms: C_2  and  C_19
REMARK    2  A    between atoms: N_3  and  C_4
REMARK    3  A    between atoms: C_4  and  C_5
REMARK    4  A    between atoms: C_8  and  C_9
REMARK    5  A    between atoms: C_9  and  O_10
REMARK    6  A    between atoms: O_10  and  C_11
REMARK    7  A    between atoms: C_11  and  C_12
REMARK                            x       y       z     vdW  Elec       q    Type
REMARK                         _______ _______ _______ _____ _____    ______ ____
ROOT
ATOM      1  O   UNL     1      47.920   9.402  12.132  0.00  0.00    +0.000 OA
ATOM      2  C   UNL     1      47.722   9.049  13.292  0.00  0.00    +0.000 C 
ATOM      3  N   UNL     1      46.569   8.407  13.668  0.00  0.00    +0.000 N 
ATOM      4  H   UNL     1      46.358   8.318  14.658  0.00  0.00    +0.000 HD
ENDROOT
BRANCH   2   5
ATOM      5  C   UNL     1      48.726   9.260  14.341  0.00  0.00    +0.000 A 
ATOM      6  C   UNL     1      49.176  10.544  14.619  0.00  0.00    +0.000 A 
ATOM      7  S   UNL     1      50.357  10.600  15.849  0.00  0.00    +0.000 S 
ATOM      8  C   UNL     1      50.270   8.917  16.085  0.00  0.00    +0.000 A 
ATOM      9  N   UNL     1      51.026   8.303  17.036  0.00  0.00    +0.000 NA
ATOM     10  C   UNL     1      50.837   7.028  17.128  0.00  0.00    +0.000 A 
ATOM     11  N   UNL     1      49.960   6.311  16.354  0.00  0.00    +0.000 N 
ATOM     12  C   UNL     1      49.197   6.884  15.365  0.00  0.00    +0.000 A 
ATOM     13  O   UNL     1      48.451   6.209  14.663  0.00  0.00    +0.000 OA
ATOM     14  C   UNL     1      49.367   8.318  15.227  0.00  0.00    +0.000 A 
ATOM     15  H   UNL     1      49.864   5.312  16.468  0.00  0.00    +0.000 HD
ENDBRANCH   2   5
BRANCH   3  16
ATOM     16  C   UNL     1      45.468   8.277  12.750  0.00  0.00    +0.000 C 
BRANCH  16  17
ATOM     17  C   UNL     1      45.273   6.855  12.319  0.00  0.00    +0.000 A 
ATOM     18  C   UNL     1      45.325   6.503  10.975  0.00  0.00    +0.000 A 
ATOM     19  N   UNL     1      45.171   5.244  10.511  0.00  0.00    +0.000 NA
ATOM     20  C   UNL     1      44.942   4.269  11.425  0.00  0.00    +0.000 A 
ATOM     21  C   UNL     1      44.844   4.530  12.789  0.00  0.00    +0.000 A 
ATOM     22  C   UNL     1      45.002   5.838  13.237  0.00  0.00    +0.000 A 
BRANCH  20  23
ATOM     23  C   UNL     1      44.714   2.870  10.898  0.00  0.00    +0.000 C 
BRANCH  23  24
ATOM     24  O   UNL     1      44.563   2.837   9.475  0.00  0.00    +0.000 OA
BRANCH  24  25
ATOM     25  C   UNL     1      45.213   1.712   8.888  0.00  0.00    +0.000 C 
BRANCH  25  26
ATOM     26  C   UNL     1      46.113   2.162   7.772  0.00  0.00    +0.000 C 
ATOM     27  C   UNL     1      47.217   1.338   7.247  0.00  0.00    +0.000 C 
ATOM     28  C   UNL     1      47.777   2.153   6.217  0.00  0.00    +0.000 C 
ATOM     29  C   UNL     1      47.052   3.281   6.219  0.00  0.00    +0.000 C 
ATOM     30  N   UNL     1      46.041   3.323   7.163  0.00  0.00    +0.000 NA
ENDBRANCH  25  26
ENDBRANCH  24  25
ENDBRANCH  23  24
ENDBRANCH  20  23
ENDBRANCH  16  17
ENDBRANCH   3  16
TORSDOF 7
ENDMDL
MODEL 6
REMARK VINA RESULT:    -6.458      3.234      4.131
REMARK INTER + INTRA:         -10.116
REMARK INTER:                  -9.288
REMARK INTRA:                  -0.828
REMARK UNBOUND:                -1.016
REMARK  Name = 
REMARK  7 active torsions:
REMARK  status: ('A' for Active; 'I' for Inactive)
REMARK    1  A    between atoms: C_2  and  C_19
REMARK    2  A    between atoms: N_3  and  C_4
REMARK    3  A    between atoms: C_4  and  C_5
REMARK    4  A    between atoms: C_8  and  C_9
REMARK    5  A    between atoms: C_9  and  O_10
REMARK    6  A    between atoms: O_10  and  C_11
REMARK    7  A    between atoms: C_11  and  C_12
REMARK                            x       y       z     vdW  Elec       q    Type
REMARK                         _______ _______ _______ _____ _____    ______ ____
ROOT
ATOM      1  O   UNL     1      46.897  10.364  11.923  0.00  0.00    +0.000 OA
ATOM      2  C   UNL     1      47.637   9.406  12.128  0.00  0.00    +0.000 C 
ATOM      3  N   UNL     1      47.145   8.157  12.415  0.00  0.00    +0.000 N 
ATOM      4  H   UNL     1      47.780   7.450  12.775  0.00  0.00    +0.000 HD
ENDROOT
BRANCH   2   5
ATOM      5  C   UNL     1      49.097   9.530  12.042  0.00  0.00    +0.000 A 
ATOM      6  C   UNL     1      49.666  10.347  11.074  0.00  0.00    +0.000 A 
ATOM      7  S   UNL     1      51.371  10.352  11.103  0.00  0.00    +0.000 S 
ATOM      8  C   UNL     1      51.406   9.303  12.443  0.00  0.00    +0.000 A 
ATOM      9  N   UNL     1      52.586   8.918  13.000  0.00  0.00    +0.000 NA
ATOM     10  C   UNL     1      52.464   8.146  14.029  0.00  0.00    +0.000 A 
ATOM     11  N   UNL     1      51.268   7.723  14.551  0.00  0.00    +0.000 N 
ATOM     12  C   UNL     1      50.054   8.064  14.004  0.00  0.00    +0.000 A 
ATOM     13  O   UNL     1      49.002   7.638  14.471  0.00  0.00    +0.000 OA
ATOM     14  C   UNL     1      50.136   8.938  12.850  0.00  0.00    +0.000 A 
ATOM     15  H   UNL     1      51.239   7.111  15.353  0.00  0.00    +0.000 HD
ENDBRANCH   2   5
BRANCH   3  16
ATOM     16  C   UNL     1      45.740   7.960  12.659  0.00  0.00    +0.000 C 
BRANCH  16  17
ATOM     17  C   UNL     1      45.278   6.619  12.173  0.00  0.00    +0.000 A 
ATOM     18  C   UNL     1      45.435   6.251  10.841  0.00  0.00    +0.000 A 
ATOM     19  N   UNL     1      45.055   5.059  10.331  0.00  0.00    +0.000 NA
ATOM     20  C   UNL     1      44.475   4.176  11.181  0.00  0.00    +0.000 A 
ATOM     21  C   UNL     1      44.251   4.467  12.525  0.00  0.00    +0.000 A 
ATOM     22  C   UNL     1      44.648   5.706  13.020  0.00  0.00    +0.000 A 
BRANCH  20  23
ATOM     23  C   UNL     1      44.001   2.866  10.597  0.00  0.00    +0.000 C 
BRANCH  23  24
ATOM     24  O   UNL     1      44.312   2.741   9.204  0.00  0.00    +0.000 OA
BRANCH  24  25
ATOM     25  C   UNL     1      45.372   1.816   8.969  0.00  0.00    +0.000 C 
BRANCH  25  26
ATOM     26  C   UNL     1      46.157   2.232   7.756  0.00  0.00    +0.000 C 
ATOM     27  C   UNL     1      47.233   1.410   7.173  0.00  0.00    +0.000 C 
ATOM     28  C   UNL     1      47.675   2.186   6.059  0.00  0.00    +0.000 C 
ATOM     29  C   UNL     1      46.921   3.295   6.073  0.00  0.00    +0.000 C 
ATOM     30  N   UNL     1      45.997   3.359   7.101  0.00  0.00    +0.000 NA
ENDBRANCH  25  26
ENDBRANCH  24  25
ENDBRANCH  23  24
ENDBRANCH  20  23
ENDBRANCH  16  17
ENDBRANCH   3  16
TORSDOF 7
ENDMDL
MODEL 7
REMARK VINA RESULT:    -6.269      3.956      8.781
REMARK INTER + INTRA:          -9.851
REMARK INTER:                  -8.787
REMARK INTRA:                  -1.064
REMARK UNBOUND:                -1.016
REMARK  Name = 
REMARK  7 active torsions:
REMARK  status: ('A' for Active; 'I' for Inactive)
REMARK    1  A    between atoms: C_2  and  C_19
REMARK    2  A    between atoms: N_3  and  C_4
REMARK    3  A    between atoms: C_4  and  C_5
REMARK    4  A    between atoms: C_8  and  C_9
REMARK    5  A    between atoms: C_9  and  O_10
REMARK    6  A    between atoms: O_10  and  C_11
REMARK    7  A    between atoms: C_11  and  C_12
REMARK                            x       y       z     vdW  Elec       q    Type
REMARK                         _______ _______ _______ _____ _____    ______ ____
ROOT
ATOM      1  O   UNL     1      47.202   3.083  13.997  0.00  0.00    +0.000 OA
ATOM      2  C   UNL     1      46.756   4.132  14.454  0.00  0.00    +0.000 C 
ATOM      3  N   UNL     1      46.767   4.400  15.800  0.00  0.00    +0.000 N 
ATOM      4  H   UNL     1      46.212   5.175  16.150  0.00  0.00    +0.000 HD
ENDROOT
BRANCH   2   5
ATOM      5  C   UNL     1      46.216   5.182  13.582  0.00  0.00    +0.000 A 
ATOM      6  C   UNL     1      46.974   6.315  13.314  0.00  0.00    +0.000 A 
ATOM      7  S   UNL     1      46.182   7.440  12.305  0.00  0.00    +0.000 S 
ATOM      8  C   UNL     1      44.822   6.428  12.151  0.00  0.00    +0.000 A 
ATOM      9  N   UNL     1      43.762   6.792  11.379  0.00  0.00    +0.000 NA
ATOM     10  C   UNL     1      42.813   5.917  11.328  0.00  0.00    +0.000 A 
ATOM     11  N   UNL     1      42.829   4.709  11.978  0.00  0.00    +0.000 N 
ATOM     12  C   UNL     1      43.866   4.312  12.789  0.00  0.00    +0.000 A 
ATOM     13  O   UNL     1      43.832   3.242  13.388  0.00  0.00    +0.000 OA
ATOM     14  C   UNL     1      44.961   5.258  12.873  0.00  0.00    +0.000 A 
ATOM     15  H   UNL     1      42.050   4.070  11.905  0.00  0.00    +0.000 HD
ENDBRANCH   2   5
BRANCH   3  16
ATOM     16  C   UNL     1      47.144   3.385  16.747  0.00  0.00    +0.000 C 
BRANCH  16  17
ATOM     17  C   UNL     1      48.575   3.529  17.171  0.00  0.00    +0.000 A 
ATOM     18  C   UNL     1      49.033   4.711  17.742  0.00  0.00    +0.000 A 
ATOM     19  N   UNL     1      50.303   4.913  18.159  0.00  0.00    +0.000 NA
ATOM     20  C   UNL     1      51.179   3.891  17.997  0.00  0.00    +0.000 A 
ATOM     21  C   UNL     1      50.818   2.681  17.409  0.00  0.00    +0.000 A 
ATOM     22  C   UNL     1      49.504   2.505  16.985  0.00  0.00    +0.000 A 
BRANCH  20  23
ATOM     23  C   UNL     1      52.611   4.139  18.413  0.00  0.00    +0.000 C 
BRANCH  23  24
ATOM     24  O   UNL     1      53.368   4.814  17.402  0.00  0.00    +0.000 OA
BRANCH  24  25
ATOM     25  C   UNL     1      53.764   6.123  17.807  0.00  0.00    +0.000 C 
BRANCH  25  26
ATOM     26  C   UNL     1      52.797   7.141  17.271  0.00  0.00    +0.000 C 
ATOM     27  C   UNL     1      52.204   7.056  15.924  0.00  0.00    +0.000 C 
ATOM     28  C   UNL     1      51.365   8.210  15.859  0.00  0.00    +0.000 C 
ATOM     29  C   UNL     1      51.518   8.831  17.038  0.00  0.00    +0.000 C 
ATOM     30  N   UNL     1      52.394   8.213  17.913  0.00  0.00    +0.000 NA
ENDBRANCH  25  26
ENDBRANCH  24  25
ENDBRANCH  23  24
ENDBRANCH  20  23
ENDBRANCH  16  17
ENDBRANCH   3  16
TORSDOF 7
ENDMDL
MODEL 8
REMARK VINA RESULT:    -5.607      5.194      7.283
REMARK INTER + INTRA:          -8.918
REMARK INTER:                  -8.013
REMARK INTRA:                  -0.905
REMARK UNBOUND:                -1.016
REMARK  Name = 
REMARK  7 active torsions:
REMARK  status: ('A' for Active; 'I' for Inactive)
REMARK    1  A    between atoms: C_2  and  C_19
REMARK    2  A    between atoms: N_3  and  C_4
REMARK    3  A    between atoms: C_4  and  C_5
REMARK    4  A    between atoms: C_8  and  C_9
REMARK    5  A    between atoms: C_9  and  O_10
REMARK    6  A    between atoms: O_10  and  C_11
REMARK    7  A    between atoms: C_11  and  C_12
REMARK                            x       y       z     vdW  Elec       q    Type
REMARK                         _______ _______ _______ _____ _____    ______ ____
ROOT
ATOM      1  O   UNL     1      53.330   8.436  11.737  0.00  0.00    +0.000 OA
ATOM      2  C   UNL     1      52.486   8.458  10.844  0.00  0.00    +0.000 C 
ATOM      3  N   UNL     1      51.155   8.667  11.109  0.00  0.00    +0.000 N 
ATOM      4  H   UNL     1      50.474   8.475  10.380  0.00  0.00    +0.000 HD
ENDROOT
BRANCH   2   5
ATOM      5  C   UNL     1      52.855   8.297   9.433  0.00  0.00    +0.000 A 
ATOM      6  C   UNL     1      52.825   9.394   8.582  0.00  0.00    +0.000 A 
ATOM      7  S   UNL     1      53.260   9.021   6.976  0.00  0.00    +0.000 S 
ATOM      8  C   UNL     1      53.551   7.392   7.374  0.00  0.00    +0.000 A 
ATOM      9  N   UNL     1      53.986   6.508   6.436  0.00  0.00    +0.000 NA
ATOM     10  C   UNL     1      54.196   5.314   6.883  0.00  0.00    +0.000 A 
ATOM     11  N   UNL     1      54.009   4.924   8.185  0.00  0.00    +0.000 N 
ATOM     12  C   UNL     1      53.546   5.775   9.160  0.00  0.00    +0.000 A 
ATOM     13  O   UNL     1      53.352   5.386  10.307  0.00  0.00    +0.000 OA
ATOM     14  C   UNL     1      53.303   7.132   8.709  0.00  0.00    +0.000 A 
ATOM     15  H   UNL     1      54.183   3.971   8.471  0.00  0.00    +0.000 HD
ENDBRANCH   2   5
BRANCH   3  16
ATOM     16  C   UNL     1      50.672   8.696  12.464  0.00  0.00    +0.000 C 
BRANCH  16  17
ATOM     17  C   UNL     1      49.475   7.812  12.644  0.00  0.00    +0.000 A 
ATOM     18  C   UNL     1      49.313   7.059  13.802  0.00  0.00    +0.000 A 
ATOM     19  N   UNL     1      48.258   6.249  14.042  0.00  0.00    +0.000 NA
ATOM     20  C   UNL     1      47.308   6.166  13.079  0.00  0.00    +0.000 A 
ATOM     21  C   UNL     1      47.399   6.859  11.875  0.00  0.00    +0.000 A 
ATOM     22  C   UNL     1      48.500   7.682  11.654  0.00  0.00    +0.000 A 
BRANCH  20  23
ATOM     23  C   UNL     1      46.158   5.217  13.326  0.00  0.00    +0.000 C 
BRANCH  23  24
ATOM     24  O   UNL     1      44.991   5.559  12.569  0.00  0.00    +0.000 OA
BRANCH  24  25
ATOM     25  C   UNL     1      44.187   4.419  12.270  0.00  0.00    +0.000 C 
BRANCH  25  26
ATOM     26  C   UNL     1      44.461   3.950  10.869  0.00  0.00    +0.000 C 
ATOM     27  C   UNL     1      45.071   4.809   9.838  0.00  0.00    +0.000 C 
ATOM     28  C   UNL     1      45.141   3.954   8.695  0.00  0.00    +0.000 C 
ATOM     29  C   UNL     1      44.612   2.787   9.088  0.00  0.00    +0.000 C 
ATOM     30  N   UNL     1      44.176   2.757  10.402  0.00  0.00    +0.000 NA
ENDBRANCH  25  26
ENDBRANCH  24  25
ENDBRANCH  23  24
ENDBRANCH  20  23
ENDBRANCH  16  17
ENDBRANCH   3  16
TORSDOF 7
ENDMDL
