MODEL 1
REMARK VINA RESULT:    -8.443      0.000      0.000
REMARK INTER + INTRA:         -13.757
REMARK INTER:                 -12.391
REMARK INTRA:                  -1.366
REMARK UNBOUND:                -1.366
REMARK  Name = 
REMARK  9 active torsions:
REMARK  status: ('A' for Active; 'I' for Inactive)
REMARK    1  A    between atoms: C_1  and  O_2
REMARK    2  A    between atoms: O_2  and  C_3
REMARK    3  A    between atoms: C_10  and  C_11
REMARK    4  A    between atoms: N_13  and  C_14
REMARK    5  A    between atoms: C_14  and  C_15
REMARK    6  A    between atoms: C_18  and  C_19
REMARK    7  A    between atoms: C_19  and  N_20
REMARK    8  A    between atoms: N_20  and  C_21
REMARK    9  A    between atoms: C_21  and  C_22
REMARK                            x       y       z     vdW  Elec       q    Type
REMARK                         _______ _______ _______ _____ _____    ______ ____
ROOT
ATOM      1  C   UNL     1      46.979   6.600  12.839  0.00  0.00    +0.000 A 
ATOM      2  C   UNL     1      46.522   5.538  13.630  0.00  0.00    +0.000 A 
ATOM      3  C   UNL     1      45.648   4.579  13.102  0.00  0.00    +0.000 A 
ATOM      4  C   UNL     1      45.203   4.666  11.771  0.00  0.00    +0.000 A 
ATOM      5  C   UNL     1      45.706   5.698  10.972  0.00  0.00    +0.000 A 
ATOM      6  C   UNL     1      46.598   6.643  11.493  0.00  0.00    +0.000 A 
ENDROOT
BRANCH   1   7
ATOM      7  C   UNL     1      47.854   7.681  13.422  0.00  0.00    +0.000 C 
BRANCH   7  10
ATOM      8  C   UNL     1      49.027   7.174  15.521  0.00  0.00    +0.000 C 
ATOM      9  O   UNL     1      50.027   6.820  14.910  0.00  0.00    +0.000 OA
ATOM     10  N   UNL     1      47.906   7.614  14.859  0.00  0.00    +0.000 N 
ATOM     11  H   UNL     1      47.052   7.789  15.370  0.00  0.00    +0.000 HD
BRANCH   8  19
ATOM     12  C   UNL     1      48.900   4.651  17.877  0.00  0.00    +0.000 A 
ATOM     13  N   UNL     1      48.765   3.895  18.987  0.00  0.00    +0.000 NA
ATOM     14  C   UNL     1      48.667   4.504  20.166  0.00  0.00    +0.000 A 
ATOM     15  N   UNL     1      48.688   5.814  20.385  0.00  0.00    +0.000 NA
ATOM     16  C   UNL     1      48.802   6.536  19.256  0.00  0.00    +0.000 A 
ATOM     17  S   UNL     1      48.852   8.229  19.356  0.00  0.00    +0.000 S 
ATOM     18  C   UNL     1      48.975   8.373  17.668  0.00  0.00    +0.000 A 
ATOM     19  C   UNL     1      48.978   7.156  16.994  0.00  0.00    +0.000 A 
ATOM     20  C   UNL     1      48.900   6.053  17.955  0.00  0.00    +0.000 A 
BRANCH  12  22
ATOM     21  C   UNL     1      47.904   3.310  16.246  0.00  0.00    +0.000 C 
ATOM     22  O   UNL     1      49.080   3.999  16.673  0.00  0.00    +0.000 OA
ENDBRANCH  12  22
ENDBRANCH   8  19
ENDBRANCH   7  10
ENDBRANCH   1   7
BRANCH   4  23
ATOM     23  C   UNL     1      44.194   3.685  11.206  0.00  0.00    +0.000 C 
BRANCH  23  24
ATOM     24  N   UNL     1      44.861   2.483  10.715  0.00  0.00    +0.000 NA
ATOM     25  H   UNL     1      44.644   1.713  11.349  0.00  0.00    +0.000 HD
BRANCH  24  26
ATOM     26  C   UNL     1      44.433   2.095   9.365  0.00  0.00    +0.000 C 
BRANCH  26  27
ATOM     27  C   UNL     1      45.570   2.222   8.374  0.00  0.00    +0.000 A 
ATOM     28  C   UNL     1      46.419   1.145   8.061  0.00  0.00    +0.000 A 
ATOM     29  C   UNL     1      47.432   1.283   7.107  0.00  0.00    +0.000 A 
ATOM     30  C   UNL     1      47.632   2.505   6.471  0.00  0.00    +0.000 A 
ATOM     31  C   UNL     1      46.829   3.595   6.802  0.00  0.00    +0.000 A 
ATOM     32  C   UNL     1      45.818   3.449   7.750  0.00  0.00    +0.000 A 
ATOM     33  F   UNL     1      45.061   4.515   8.050  0.00  0.00    +0.000 F 
ENDBRANCH  26  27
ENDBRANCH  24  26
ENDBRANCH  23  24
ENDBRANCH   4  23
TORSDOF 8
ENDMDL
MODEL 2
REMARK VINA RESULT:    -8.362      0.986      1.567
REMARK INTER + INTRA:         -13.640
REMARK INTER:                 -12.297
REMARK INTRA:                  -1.342
REMARK UNBOUND:                -1.366
REMARK  Name = 
REMARK  9 active torsions:
REMARK  status: ('A' for Active; 'I' for Inactive)
REMARK    1  A    between atoms: C_1  and  O_2
REMARK    2  A    between atoms: O_2  and  C_3
REMARK    3  A    between atoms: C_10  and  C_11
REMARK    4  A    between atoms: N_13  and  C_14
REMARK    5  A    between atoms: C_14  and  C_15
REMARK    6  A    between atoms: C_18  and  C_19
REMARK    7  A    between atoms: C_19  and  N_20
REMARK    8  A    between atoms: N_20  and  C_21
REMARK    9  A    between atoms: C_21  and  C_22
REMARK                            x       y       z     vdW  Elec       q    Type
REMARK                         _______ _______ _______ _____ _____    ______ ____
ROOT
ATOM      1  C   UNL     1      46.742   6.012  12.647  0.00  0.00    +0.000 A 
ATOM      2  C   UNL     1      46.192   6.331  11.399  0.00  0.00    +0.000 A 
ATOM      3  C   UNL     1      45.125   5.587  10.878  0.00  0.00    +0.000 A 
ATOM      4  C   UNL     1      44.587   4.502  11.592  0.00  0.00    +0.000 A 
ATOM      5  C   UNL     1      45.105   4.225  12.861  0.00  0.00    +0.000 A 
ATOM      6  C   UNL     1      46.156   4.982  13.392  0.00  0.00    +0.000 A 
ENDROOT
BRANCH   1   7
ATOM      7  C   UNL     1      47.943   6.754  13.178  0.00  0.00    +0.000 C 
BRANCH   7  10
ATOM      8  C   UNL     1      49.082   6.953  15.346  0.00  0.00    +0.000 C 
ATOM      9  O   UNL     1      50.179   6.968  14.801  0.00  0.00    +0.000 OA
ATOM     10  N   UNL     1      47.924   6.848  14.614  0.00  0.00    +0.000 N 
ATOM     11  H   UNL     1      47.038   6.718  15.083  0.00  0.00    +0.000 HD
BRANCH   8  19
ATOM     12  C   UNL     1      48.860   4.632  17.895  0.00  0.00    +0.000 A 
ATOM     13  N   UNL     1      48.673   3.968  19.055  0.00  0.00    +0.000 NA
ATOM     14  C   UNL     1      48.498   4.671  20.171  0.00  0.00    +0.000 A 
ATOM     15  N   UNL     1      48.485   5.994  20.280  0.00  0.00    +0.000 NA
ATOM     16  C   UNL     1      48.652   6.623  19.103  0.00  0.00    +0.000 A 
ATOM     17  S   UNL     1      48.669   8.319  19.063  0.00  0.00    +0.000 S 
ATOM     18  C   UNL     1      48.887   8.324  17.378  0.00  0.00    +0.000 A 
ATOM     19  C   UNL     1      48.948   7.057  16.811  0.00  0.00    +0.000 A 
ATOM     20  C   UNL     1      48.833   6.036  17.854  0.00  0.00    +0.000 A 
BRANCH  12  22
ATOM     21  C   UNL     1      47.942   3.274  16.231  0.00  0.00    +0.000 C 
ATOM     22  O   UNL     1      49.120   3.886  16.762  0.00  0.00    +0.000 OA
ENDBRANCH  12  22
ENDBRANCH   8  19
ENDBRANCH   7  10
ENDBRANCH   1   7
BRANCH   4  23
ATOM     23  C   UNL     1      43.486   3.636  11.011  0.00  0.00    +0.000 C 
BRANCH  23  24
ATOM     24  N   UNL     1      43.775   3.298   9.620  0.00  0.00    +0.000 NA
ATOM     25  H   UNL     1      44.214   4.106   9.178  0.00  0.00    +0.000 HD
BRANCH  24  26
ATOM     26  C   UNL     1      44.682   2.153   9.480  0.00  0.00    +0.000 C 
BRANCH  26  27
ATOM     27  C   UNL     1      45.641   2.354   8.326  0.00  0.00    +0.000 A 
ATOM     28  C   UNL     1      45.845   3.609   7.727  0.00  0.00    +0.000 A 
ATOM     29  C   UNL     1      46.772   3.769   6.693  0.00  0.00    +0.000 A 
ATOM     30  C   UNL     1      47.491   2.673   6.222  0.00  0.00    +0.000 A 
ATOM     31  C   UNL     1      47.270   1.414   6.774  0.00  0.00    +0.000 A 
ATOM     32  C   UNL     1      46.347   1.262   7.808  0.00  0.00    +0.000 A 
ATOM     33  F   UNL     1      46.153   0.039   8.321  0.00  0.00    +0.000 F 
ENDBRANCH  26  27
ENDBRANCH  24  26
ENDBRANCH  23  24
ENDBRANCH   4  23
TORSDOF 8
ENDMDL
MODEL 3
REMARK VINA RESULT:    -8.115      1.681      2.757
REMARK INTER + INTRA:         -13.276
REMARK INTER:                 -11.956
REMARK INTRA:                  -1.321
REMARK UNBOUND:                -1.366
REMARK  Name = 
REMARK  9 active torsions:
REMARK  status: ('A' for Active; 'I' for Inactive)
REMARK    1  A    between atoms: C_1  and  O_2
REMARK    2  A    between atoms: O_2  and  C_3
REMARK    3  A    between atoms: C_10  and  C_11
REMARK    4  A    between atoms: N_13  and  C_14
REMARK    5  A    between atoms: C_14  and  C_15
REMARK    6  A    between atoms: C_18  and  C_19
REMARK    7  A    between atoms: C_19  and  N_20
REMARK    8  A    between atoms: N_20  and  C_21
REMARK    9  A    between atoms: C_21  and  C_22
REMARK                            x       y       z     vdW  Elec       q    Type
REMARK                         _______ _______ _______ _____ _____    ______ ____
ROOT
ATOM      1  C   UNL     1      47.376   6.060  13.383  0.00  0.00    +0.000 A 
ATOM      2  C   UNL     1      46.926   6.594  12.169  0.00  0.00    +0.000 A 
ATOM      3  C   UNL     1      45.953   5.928  11.413  0.00  0.00    +0.000 A 
ATOM      4  C   UNL     1      45.410   4.708  11.853  0.00  0.00    +0.000 A 
ATOM      5  C   UNL     1      45.823   4.209  13.092  0.00  0.00    +0.000 A 
ATOM      6  C   UNL     1      46.780   4.886  13.859  0.00  0.00    +0.000 A 
ENDROOT
BRANCH   1   7
ATOM      7  C   UNL     1      48.483   6.726  14.162  0.00  0.00    +0.000 C 
BRANCH   7  10
ATOM      8  C   UNL     1      48.925   6.344  16.548  0.00  0.00    +0.000 C 
ATOM      9  O   UNL     1      49.942   5.713  16.288  0.00  0.00    +0.000 OA
ATOM     10  N   UNL     1      48.145   6.879  15.552  0.00  0.00    +0.000 N 
ATOM     11  H   UNL     1      47.250   7.293  15.777  0.00  0.00    +0.000 HD
BRANCH   8  19
ATOM     12  C   UNL     1      47.746   9.099  18.267  0.00  0.00    +0.000 A 
ATOM     13  N   UNL     1      47.352  10.004  19.188  0.00  0.00    +0.000 NA
ATOM     14  C   UNL     1      47.195   9.605  20.447  0.00  0.00    +0.000 A 
ATOM     15  N   UNL     1      47.386   8.379  20.920  0.00  0.00    +0.000 NA
ATOM     16  C   UNL     1      47.798   7.509  19.981  0.00  0.00    +0.000 A 
ATOM     17  S   UNL     1      48.082   5.893  20.413  0.00  0.00    +0.000 S 
ATOM     18  C   UNL     1      48.541   5.499  18.826  0.00  0.00    +0.000 A 
ATOM     19  C   UNL     1      48.494   6.570  17.940  0.00  0.00    +0.000 A 
ATOM     20  C   UNL     1      48.021   7.771  18.632  0.00  0.00    +0.000 A 
BRANCH  12  22
ATOM     21  C   UNL     1      49.059  10.177  16.665  0.00  0.00    +0.000 C 
ATOM     22  O   UNL     1      47.826   9.513  16.952  0.00  0.00    +0.000 OA
ENDBRANCH  12  22
ENDBRANCH   8  19
ENDBRANCH   7  10
ENDBRANCH   1   7
BRANCH   4  23
ATOM     23  C   UNL     1      44.414   3.932  11.011  0.00  0.00    +0.000 C 
BRANCH  23  24
ATOM     24  N   UNL     1      44.937   2.609  10.682  0.00  0.00    +0.000 NA
ATOM     25  H   UNL     1      44.610   1.950  11.388  0.00  0.00    +0.000 HD
BRANCH  24  26
ATOM     26  C   UNL     1      44.496   2.125   9.369  0.00  0.00    +0.000 C 
BRANCH  26  27
ATOM     27  C   UNL     1      45.608   2.229   8.346  0.00  0.00    +0.000 A 
ATOM     28  C   UNL     1      46.447   1.143   8.035  0.00  0.00    +0.000 A 
ATOM     29  C   UNL     1      47.435   1.259   7.053  0.00  0.00    +0.000 A 
ATOM     30  C   UNL     1      47.621   2.468   6.386  0.00  0.00    +0.000 A 
ATOM     31  C   UNL     1      46.828   3.566   6.714  0.00  0.00    +0.000 A 
ATOM     32  C   UNL     1      45.842   3.442   7.691  0.00  0.00    +0.000 A 
ATOM     33  F   UNL     1      45.094   4.515   7.987  0.00  0.00    +0.000 F 
ENDBRANCH  26  27
ENDBRANCH  24  26
ENDBRANCH  23  24
ENDBRANCH   4  23
TORSDOF 8
ENDMDL
MODEL 4
REMARK VINA RESULT:    -7.573      2.360      3.009
REMARK INTER + INTRA:         -12.481
REMARK INTER:                 -11.329
REMARK INTRA:                  -1.153
REMARK UNBOUND:                -1.366
REMARK  Name = 
REMARK  9 active torsions:
REMARK  status: ('A' for Active; 'I' for Inactive)
REMARK    1  A    between atoms: C_1  and  O_2
REMARK    2  A    between atoms: O_2  and  C_3
REMARK    3  A    between atoms: C_10  and  C_11
REMARK    4  A    between atoms: N_13  and  C_14
REMARK    5  A    between atoms: C_14  and  C_15
REMARK    6  A    between atoms: C_18  and  C_19
REMARK    7  A    between atoms: C_19  and  N_20
REMARK    8  A    between atoms: N_20  and  C_21
REMARK    9  A    between atoms: C_21  and  C_22
REMARK                            x       y       z     vdW  Elec       q    Type
REMARK                         _______ _______ _______ _____ _____    ______ ____
ROOT
ATOM      1  C   UNL     1      47.912   7.020  14.248  0.00  0.00    +0.000 A 
ATOM      2  C   UNL     1      47.474   5.712  14.004  0.00  0.00    +0.000 A 
ATOM      3  C   UNL     1      46.797   5.395  12.820  0.00  0.00    +0.000 A 
ATOM      4  C   UNL     1      46.536   6.382  11.854  0.00  0.00    +0.000 A 
ATOM      5  C   UNL     1      47.023   7.673  12.079  0.00  0.00    +0.000 A 
ATOM      6  C   UNL     1      47.721   7.986  13.253  0.00  0.00    +0.000 A 
ENDROOT
BRANCH   1   7
ATOM      7  C   UNL     1      48.568   7.388  15.556  0.00  0.00    +0.000 C 
BRANCH   7  10
ATOM      8  C   UNL     1      49.945   6.263  17.251  0.00  0.00    +0.000 C 
ATOM      9  O   UNL     1      49.432   6.922  18.147  0.00  0.00    +0.000 OA
ATOM     10  N   UNL     1      49.574   6.434  15.939  0.00  0.00    +0.000 N 
ATOM     11  H   UNL     1      50.089   5.970  15.203  0.00  0.00    +0.000 HD
BRANCH   8  19
ATOM     12  C   UNL     1      50.048   2.820  16.990  0.00  0.00    +0.000 A 
ATOM     13  N   UNL     1      50.337   1.504  17.070  0.00  0.00    +0.000 NA
ATOM     14  C   UNL     1      51.527   1.140  17.543  0.00  0.00    +0.000 A 
ATOM     15  N   UNL     1      52.495   1.948  17.958  0.00  0.00    +0.000 NA
ATOM     16  C   UNL     1      52.165   3.250  17.885  0.00  0.00    +0.000 A 
ATOM     17  S   UNL     1      53.293   4.421  18.369  0.00  0.00    +0.000 S 
ATOM     18  C   UNL     1      52.208   5.680  18.019  0.00  0.00    +0.000 A 
ATOM     19  C   UNL     1      50.978   5.249  17.535  0.00  0.00    +0.000 A 
ATOM     20  C   UNL     1      50.965   3.789  17.430  0.00  0.00    +0.000 A 
BRANCH  12  22
ATOM     21  C   UNL     1      47.771   3.172  17.372  0.00  0.00    +0.000 C 
ATOM     22  O   UNL     1      48.841   3.180  16.424  0.00  0.00    +0.000 OA
ENDBRANCH  12  22
ENDBRANCH   8  19
ENDBRANCH   7  10
ENDBRANCH   1   7
BRANCH   4  23
ATOM     23  C   UNL     1      45.734   6.076  10.603  0.00  0.00    +0.000 C 
BRANCH  23  24
ATOM     24  N   UNL     1      45.236   4.704  10.631  0.00  0.00    +0.000 NA
ATOM     25  H   UNL     1      44.552   4.626  11.385  0.00  0.00    +0.000 HD
BRANCH  24  26
ATOM     26  C   UNL     1      44.582   4.302   9.380  0.00  0.00    +0.000 C 
BRANCH  26  27
ATOM     27  C   UNL     1      45.474   3.388   8.567  0.00  0.00    +0.000 A 
ATOM     28  C   UNL     1      46.393   3.880   7.623  0.00  0.00    +0.000 A 
ATOM     29  C   UNL     1      47.235   3.012   6.920  0.00  0.00    +0.000 A 
ATOM     30  C   UNL     1      47.154   1.637   7.129  0.00  0.00    +0.000 A 
ATOM     31  C   UNL     1      46.218   1.130   8.027  0.00  0.00    +0.000 A 
ATOM     32  C   UNL     1      45.385   2.002   8.727  0.00  0.00    +0.000 A 
ATOM     33  F   UNL     1      44.493   1.486   9.586  0.00  0.00    +0.000 F 
ENDBRANCH  26  27
ENDBRANCH  24  26
ENDBRANCH  23  24
ENDBRANCH   4  23
TORSDOF 8
ENDMDL
MODEL 5
REMARK VINA RESULT:    -6.851      2.207      2.897
REMARK INTER + INTRA:         -11.422
REMARK INTER:                 -10.459
REMARK INTRA:                  -0.962
REMARK UNBOUND:                -1.366
REMARK  Name = 
REMARK  9 active torsions:
REMARK  status: ('A' for Active; 'I' for Inactive)
REMARK    1  A    between atoms: C_1  and  O_2
REMARK    2  A    between atoms: O_2  and  C_3
REMARK    3  A    between atoms: C_10  and  C_11
REMARK    4  A    between atoms: N_13  and  C_14
REMARK    5  A    between atoms: C_14  and  C_15
REMARK    6  A    between atoms: C_18  and  C_19
REMARK    7  A    between atoms: C_19  and  N_20
REMARK    8  A    between atoms: N_20  and  C_21
REMARK    9  A    between atoms: C_21  and  C_22
REMARK                            x       y       z     vdW  Elec       q    Type
REMARK                         _______ _______ _______ _____ _____    ______ ____
ROOT
ATOM      1  C   UNL     1      47.117   6.874  13.181  0.00  0.00    +0.000 A 
ATOM      2  C   UNL     1      46.529   7.549  12.104  0.00  0.00    +0.000 A 
ATOM      3  C   UNL     1      45.553   6.925  11.316  0.00  0.00    +0.000 A 
ATOM      4  C   UNL     1      45.149   5.605  11.584  0.00  0.00    +0.000 A 
ATOM      5  C   UNL     1      45.700   4.957  12.693  0.00  0.00    +0.000 A 
ATOM      6  C   UNL     1      46.659   5.589  13.495  0.00  0.00    +0.000 A 
ENDROOT
BRANCH   1   7
ATOM      7  C   UNL     1      48.226   7.507  13.983  0.00  0.00    +0.000 C 
BRANCH   7  10
ATOM      8  C   UNL     1      49.155   7.116  16.224  0.00  0.00    +0.000 C 
ATOM      9  O   UNL     1      49.162   8.318  16.462  0.00  0.00    +0.000 OA
ATOM     10  N   UNL     1      48.708   6.632  15.019  0.00  0.00    +0.000 N 
ATOM     11  H   UNL     1      48.819   5.652  14.794  0.00  0.00    +0.000 HD
BRANCH   8  19
ATOM     12  C   UNL     1      52.223   5.701  16.943  0.00  0.00    +0.000 A 
ATOM     13  N   UNL     1      53.251   4.944  17.381  0.00  0.00    +0.000 NA
ATOM     14  C   UNL     1      53.024   4.061  18.351  0.00  0.00    +0.000 A 
ATOM     15  N   UNL     1      51.866   3.832  18.960  0.00  0.00    +0.000 NA
ATOM     16  C   UNL     1      50.862   4.589  18.484  0.00  0.00    +0.000 A 
ATOM     17  S   UNL     1      49.312   4.429  19.158  0.00  0.00    +0.000 S 
ATOM     18  C   UNL     1      48.680   5.600  18.101  0.00  0.00    +0.000 A 
ATOM     19  C   UNL     1      49.615   6.131  17.220  0.00  0.00    +0.000 A 
ATOM     20  C   UNL     1      50.931   5.540  17.471  0.00  0.00    +0.000 A 
BRANCH  12  22
ATOM     21  C   UNL     1      52.856   7.919  16.576  0.00  0.00    +0.000 C 
ATOM     22  O   UNL     1      52.495   6.666  15.993  0.00  0.00    +0.000 OA
ENDBRANCH  12  22
ENDBRANCH   8  19
ENDBRANCH   7  10
ENDBRANCH   1   7
BRANCH   4  23
ATOM     23  C   UNL     1      44.154   4.884  10.694  0.00  0.00    +0.000 C 
BRANCH  23  24
ATOM     24  N   UNL     1      44.673   4.757   9.336  0.00  0.00    +0.000 NA
ATOM     25  H   UNL     1      45.675   4.949   9.355  0.00  0.00    +0.000 HD
BRANCH  24  26
ATOM     26  C   UNL     1      44.477   3.419   8.766  0.00  0.00    +0.000 C 
BRANCH  26  27
ATOM     27  C   UNL     1      45.710   2.957   8.018  0.00  0.00    +0.000 A 
ATOM     28  C   UNL     1      46.533   3.846   7.304  0.00  0.00    +0.000 A 
ATOM     29  C   UNL     1      47.690   3.394   6.662  0.00  0.00    +0.000 A 
ATOM     30  C   UNL     1      48.029   2.043   6.699  0.00  0.00    +0.000 A 
ATOM     31  C   UNL     1      47.200   1.143   7.364  0.00  0.00    +0.000 A 
ATOM     32  C   UNL     1      46.051   1.600   8.006  0.00  0.00    +0.000 A 
ATOM     33  F   UNL     1      45.271   0.711   8.638  0.00  0.00    +0.000 F 
ENDBRANCH  26  27
ENDBRANCH  24  26
ENDBRANCH  23  24
ENDBRANCH   4  23
TORSDOF 8
ENDMDL
MODEL 6
REMARK VINA RESULT:    -6.775      4.001      8.286
REMARK INTER + INTRA:         -11.310
REMARK INTER:                  -9.408
REMARK INTRA:                  -1.902
REMARK UNBOUND:                -1.366
REMARK  Name = 
REMARK  9 active torsions:
REMARK  status: ('A' for Active; 'I' for Inactive)
REMARK    1  A    between atoms: C_1  and  O_2
REMARK    2  A    between atoms: O_2  and  C_3
REMARK    3  A    between atoms: C_10  and  C_11
REMARK    4  A    between atoms: N_13  and  C_14
REMARK    5  A    between atoms: C_14  and  C_15
REMARK    6  A    between atoms: C_18  and  C_19
REMARK    7  A    between atoms: C_19  and  N_20
REMARK    8  A    between atoms: N_20  and  C_21
REMARK    9  A    between atoms: C_21  and  C_22
REMARK                            x       y       z     vdW  Elec       q    Type
REMARK                         _______ _______ _______ _____ _____    ______ ____
ROOT
ATOM      1  C   UNL     1      48.543   7.858  13.402  0.00  0.00    +0.000 A 
ATOM      2  C   UNL     1      48.183   8.922  14.239  0.00  0.00    +0.000 A 
ATOM      3  C   UNL     1      48.240   8.786  15.632  0.00  0.00    +0.000 A 
ATOM      4  C   UNL     1      48.653   7.578  16.221  0.00  0.00    +0.000 A 
ATOM      5  C   UNL     1      49.063   6.539  15.380  0.00  0.00    +0.000 A 
ATOM      6  C   UNL     1      49.028   6.682  13.987  0.00  0.00    +0.000 A 
ENDROOT
BRANCH   1   7
ATOM      7  C   UNL     1      48.406   7.967  11.904  0.00  0.00    +0.000 C 
BRANCH   7  10
ATOM      8  C   UNL     1      46.290   6.883  11.286  0.00  0.00    +0.000 C 
ATOM      9  O   UNL     1      45.646   7.839  11.700  0.00  0.00    +0.000 OA
ATOM     10  N   UNL     1      47.662   6.867  11.351  0.00  0.00    +0.000 N 
ATOM     11  H   UNL     1      48.170   6.025  11.116  0.00  0.00    +0.000 HD
BRANCH   8  19
ATOM     12  C   UNL     1      44.433   4.273  12.581  0.00  0.00    +0.000 A 
ATOM     13  N   UNL     1      43.765   3.123  12.811  0.00  0.00    +0.000 NA
ATOM     14  C   UNL     1      43.492   2.327  11.781  0.00  0.00    +0.000 A 
ATOM     15  N   UNL     1      43.811   2.539  10.509  0.00  0.00    +0.000 NA
ATOM     16  C   UNL     1      44.494   3.682  10.320  0.00  0.00    +0.000 A 
ATOM     17  S   UNL     1      44.973   4.111   8.749  0.00  0.00    +0.000 S 
ATOM     18  C   UNL     1      45.718   5.530   9.314  0.00  0.00    +0.000 A 
ATOM     19  C   UNL     1      45.627   5.709  10.690  0.00  0.00    +0.000 A 
ATOM     20  C   UNL     1      44.867   4.609  11.287  0.00  0.00    +0.000 A 
BRANCH  12  22
ATOM     21  C   UNL     1      45.915   4.933  14.261  0.00  0.00    +0.000 C 
ATOM     22  O   UNL     1      44.637   5.123  13.650  0.00  0.00    +0.000 OA
ENDBRANCH  12  22
ENDBRANCH   8  19
ENDBRANCH   7  10
ENDBRANCH   1   7
BRANCH   4  23
ATOM     23  C   UNL     1      48.644   7.385  17.725  0.00  0.00    +0.000 C 
BRANCH  23  24
ATOM     24  N   UNL     1      47.452   6.653  18.145  0.00  0.00    +0.000 NA
ATOM     25  H   UNL     1      46.980   6.303  17.312  0.00  0.00    +0.000 HD
BRANCH  24  26
ATOM     26  C   UNL     1      47.754   5.508  19.012  0.00  0.00    +0.000 C 
BRANCH  26  27
ATOM     27  C   UNL     1      48.315   4.351  18.214  0.00  0.00    +0.000 A 
ATOM     28  C   UNL     1      47.518   3.572  17.357  0.00  0.00    +0.000 A 
ATOM     29  C   UNL     1      48.077   2.538  16.598  0.00  0.00    +0.000 A 
ATOM     30  C   UNL     1      49.435   2.248  16.704  0.00  0.00    +0.000 A 
ATOM     31  C   UNL     1      50.230   2.981  17.582  0.00  0.00    +0.000 A 
ATOM     32  C   UNL     1      49.668   4.013  18.332  0.00  0.00    +0.000 A 
ATOM     33  F   UNL     1      50.456   4.702  19.170  0.00  0.00    +0.000 F 
ENDBRANCH  26  27
ENDBRANCH  24  26
ENDBRANCH  23  24
ENDBRANCH   4  23
TORSDOF 8
ENDMDL
MODEL 7
REMARK VINA RESULT:    -6.764      3.928      8.407
REMARK INTER + INTRA:         -11.293
REMARK INTER:                  -8.926
REMARK INTRA:                  -2.367
REMARK UNBOUND:                -1.366
REMARK  Name = 
REMARK  9 active torsions:
REMARK  status: ('A' for Active; 'I' for Inactive)
REMARK    1  A    between atoms: C_1  and  O_2
REMARK    2  A    between atoms: O_2  and  C_3
REMARK    3  A    between atoms: C_10  and  C_11
REMARK    4  A    between atoms: N_13  and  C_14
REMARK    5  A    between atoms: C_14  and  C_15
REMARK    6  A    between atoms: C_18  and  C_19
REMARK    7  A    between atoms: C_19  and  N_20
REMARK    8  A    between atoms: N_20  and  C_21
REMARK    9  A    between atoms: C_21  and  C_22
REMARK                            x       y       z     vdW  Elec       q    Type
REMARK                         _______ _______ _______ _____ _____    ______ ____
ROOT
ATOM      1  C   UNL     1      48.861   8.159  15.862  0.00  0.00    +0.000 A 
ATOM      2  C   UNL     1      48.218   8.708  16.979  0.00  0.00    +0.000 A 
ATOM      3  C   UNL     1      48.623   8.365  18.275  0.00  0.00    +0.000 A 
ATOM      4  C   UNL     1      49.677   7.458  18.485  0.00  0.00    +0.000 A 
ATOM      5  C   UNL     1      50.349   6.957  17.366  0.00  0.00    +0.000 A 
ATOM      6  C   UNL     1      49.960   7.317  16.070  0.00  0.00    +0.000 A 
ENDROOT
BRANCH   1   7
ATOM      7  C   UNL     1      48.379   8.457  14.464  0.00  0.00    +0.000 C 
BRANCH   7  10
ATOM      8  C   UNL     1      47.693   6.428  13.260  0.00  0.00    +0.000 C 
ATOM      9  O   UNL     1      48.846   6.210  12.911  0.00  0.00    +0.000 OA
ATOM     10  N   UNL     1      47.376   7.521  14.031  0.00  0.00    +0.000 N 
ATOM     11  H   UNL     1      46.408   7.750  14.210  0.00  0.00    +0.000 HD
BRANCH   8  19
ATOM     12  C   UNL     1      44.573   6.923  11.861  0.00  0.00    +0.000 A 
ATOM     13  N   UNL     1      43.303   6.828  11.414  0.00  0.00    +0.000 NA
ATOM     14  C   UNL     1      42.730   5.628  11.374  0.00  0.00    +0.000 A 
ATOM     15  N   UNL     1      43.280   4.474  11.733  0.00  0.00    +0.000 NA
ATOM     16  C   UNL     1      44.537   4.609  12.192  0.00  0.00    +0.000 A 
ATOM     17  S   UNL     1      45.392   3.229  12.687  0.00  0.00    +0.000 S 
ATOM     18  C   UNL     1      46.750   4.162  13.102  0.00  0.00    +0.000 A 
ATOM     19  C   UNL     1      46.590   5.526  12.882  0.00  0.00    +0.000 A 
ATOM     20  C   UNL     1      45.268   5.787  12.310  0.00  0.00    +0.000 A 
BRANCH  12  22
ATOM     21  C   UNL     1      44.366   9.144  11.171  0.00  0.00    +0.000 C 
ATOM     22  O   UNL     1      45.178   8.164  11.821  0.00  0.00    +0.000 OA
ENDBRANCH  12  22
ENDBRANCH   8  19
ENDBRANCH   7  10
ENDBRANCH   1   7
BRANCH   4  23
ATOM     23  C   UNL     1      50.076   7.013  19.879  0.00  0.00    +0.000 C 
BRANCH  23  24
ATOM     24  N   UNL     1      50.300   5.571  19.916  0.00  0.00    +0.000 NA
ATOM     25  H   UNL     1      50.886   5.357  20.724  0.00  0.00    +0.000 HD
BRANCH  24  26
ATOM     26  C   UNL     1      49.059   4.797  20.036  0.00  0.00    +0.000 C 
BRANCH  26  27
ATOM     27  C   UNL     1      48.675   4.172  18.711  0.00  0.00    +0.000 A 
ATOM     28  C   UNL     1      49.459   3.183  18.091  0.00  0.00    +0.000 A 
ATOM     29  C   UNL     1      49.052   2.594  16.889  0.00  0.00    +0.000 A 
ATOM     30  C   UNL     1      47.871   3.001  16.274  0.00  0.00    +0.000 A 
ATOM     31  C   UNL     1      47.105   4.011  16.853  0.00  0.00    +0.000 A 
ATOM     32  C   UNL     1      47.514   4.592  18.053  0.00  0.00    +0.000 A 
ATOM     33  F   UNL     1      46.758   5.562  18.587  0.00  0.00    +0.000 F 
ENDBRANCH  26  27
ENDBRANCH  24  26
ENDBRANCH  23  24
ENDBRANCH   4  23
TORSDOF 8
ENDMDL
MODEL 8
REMARK VINA RESULT:    -6.313      4.153      8.427
REMARK INTER + INTRA:         -10.632
REMARK INTER:                  -8.348
REMARK INTRA:                  -2.283
REMARK UNBOUND:                -1.366
REMARK  Name = 
REMARK  9 active torsions:
REMARK  status: ('A' for Active; 'I' for Inactive)
REMARK    1  A    between atoms: C_1  and  O_2
REMARK    2  A    between atoms: O_2  and  C_3
REMARK    3  A    between atoms: C_10  and  C_11
REMARK    4  A    between atoms: N_13  and  C_14
REMARK    5  A    between atoms: C_14  and  C_15
REMARK    6  A    between atoms: C_18  and  C_19
REMARK    7  A    between atoms: C_19  and  N_20
REMARK    8  A    between atoms: N_20  and  C_21
REMARK    9  A    between atoms: C_21  and  C_22
REMARK                            x       y       z     vdW  Elec       q    Type
REMARK                         _______ _______ _______ _____ _____    ______ ____
ROOT
ATOM      1  C   UNL     1      49.485   8.279  16.184  0.00  0.00    +0.000 A 
ATOM      2  C   UNL     1      48.290   8.613  16.834  0.00  0.00    +0.000 A 
ATOM      3  C   UNL     1      48.205   8.585  18.232  0.00  0.00    +0.000 A 
ATOM      4  C   UNL     1      49.314   8.215  19.013  0.00  0.00    +0.000 A 
ATOM      5  C   UNL     1      50.518   7.935  18.360  0.00  0.00    +0.000 A 
ATOM      6  C   UNL     1      50.610   7.985  16.964  0.00  0.00    +0.000 A 
ENDROOT
BRANCH   1   7
ATOM      7  C   UNL     1      49.562   8.226  14.679  0.00  0.00    +0.000 C 
BRANCH   7  10
ATOM      8  C   UNL     1      47.883   7.077  13.301  0.00  0.00    +0.000 C 
ATOM      9  O   UNL     1      48.650   6.146  13.090  0.00  0.00    +0.000 OA
ATOM     10  N   UNL     1      48.257   8.147  14.077  0.00  0.00    +0.000 N 
ATOM     11  H   UNL     1      47.657   8.959  14.144  0.00  0.00    +0.000 HD
BRANCH   8  19
ATOM     12  C   UNL     1      45.232   4.865  13.414  0.00  0.00    +0.000 A 
ATOM     13  N   UNL     1      44.089   4.171  13.223  0.00  0.00    +0.000 NA
ATOM     14  C   UNL     1      43.136   4.709  12.465  0.00  0.00    +0.000 A 
ATOM     15  N   UNL     1      43.179   5.888  11.856  0.00  0.00    +0.000 NA
ATOM     16  C   UNL     1      44.339   6.541  12.050  0.00  0.00    +0.000 A 
ATOM     17  S   UNL     1      44.558   8.070  11.347  0.00  0.00    +0.000 S 
ATOM     18  C   UNL     1      46.126   8.193  11.991  0.00  0.00    +0.000 A 
ATOM     19  C   UNL     1      46.518   7.091  12.743  0.00  0.00    +0.000 A 
ATOM     20  C   UNL     1      45.431   6.112  12.798  0.00  0.00    +0.000 A 
BRANCH  12  22
ATOM     21  C   UNL     1      46.923   3.272  13.655  0.00  0.00    +0.000 C 
ATOM     22  O   UNL     1      46.175   4.326  14.266  0.00  0.00    +0.000 OA
ENDBRANCH  12  22
ENDBRANCH   8  19
ENDBRANCH   7  10
ENDBRANCH   1   7
BRANCH   4  23
ATOM     23  C   UNL     1      49.219   8.100  20.523  0.00  0.00    +0.000 C 
BRANCH  23  24
ATOM     24  N   UNL     1      49.537   6.743  20.959  0.00  0.00    +0.000 NA
ATOM     25  H   UNL     1      49.788   6.774  21.947  0.00  0.00    +0.000 HD
BRANCH  24  26
ATOM     26  C   UNL     1      48.416   5.809  20.802  0.00  0.00    +0.000 C 
BRANCH  26  27
ATOM     27  C   UNL     1      48.496   5.077  19.480  0.00  0.00    +0.000 A 
ATOM     28  C   UNL     1      49.654   4.395  19.066  0.00  0.00    +0.000 A 
ATOM     29  C   UNL     1      49.680   3.690  17.859  0.00  0.00    +0.000 A 
ATOM     30  C   UNL     1      48.559   3.678  17.032  0.00  0.00    +0.000 A 
ATOM     31  C   UNL     1      47.418   4.385  17.406  0.00  0.00    +0.000 A 
ATOM     32  C   UNL     1      47.398   5.082  18.613  0.00  0.00    +0.000 A 
ATOM     33  F   UNL     1      46.287   5.754  18.947  0.00  0.00    +0.000 F 
ENDBRANCH  26  27
ENDBRANCH  24  26
ENDBRANCH  23  24
ENDBRANCH   4  23
TORSDOF 8
ENDMDL
MODEL 9
REMARK VINA RESULT:    -6.288      3.564      5.821
REMARK INTER + INTRA:         -10.595
REMARK INTER:                  -9.959
REMARK INTRA:                  -0.636
REMARK UNBOUND:                -1.366
REMARK  Name = 
REMARK  9 active torsions:
REMARK  status: ('A' for Active; 'I' for Inactive)
REMARK    1  A    between atoms: C_1  and  O_2
REMARK    2  A    between atoms: O_2  and  C_3
REMARK    3  A    between atoms: C_10  and  C_11
REMARK    4  A    between atoms: N_13  and  C_14
REMARK    5  A    between atoms: C_14  and  C_15
REMARK    6  A    between atoms: C_18  and  C_19
REMARK    7  A    between atoms: C_19  and  N_20
REMARK    8  A    between atoms: N_20  and  C_21
REMARK    9  A    between atoms: C_21  and  C_22
REMARK                            x       y       z     vdW  Elec       q    Type
REMARK                         _______ _______ _______ _____ _____    ______ ____
ROOT
ATOM      1  C   UNL     1      47.517   5.913  13.632  0.00  0.00    +0.000 A 
ATOM      2  C   UNL     1      46.814   6.375  12.511  0.00  0.00    +0.000 A 
ATOM      3  C   UNL     1      45.810   5.593  11.927  0.00  0.00    +0.000 A 
ATOM      4  C   UNL     1      45.489   4.326  12.446  0.00  0.00    +0.000 A 
ATOM      5  C   UNL     1      46.157   3.896  13.597  0.00  0.00    +0.000 A 
ATOM      6  C   UNL     1      47.145   4.687  14.195  0.00  0.00    +0.000 A 
ENDROOT
BRANCH   1   7
ATOM      7  C   UNL     1      48.655   6.711  14.217  0.00  0.00    +0.000 C 
BRANCH   7  10
ATOM      8  C   UNL     1      50.597   8.032  13.495  0.00  0.00    +0.000 C 
ATOM      9  O   UNL     1      51.004   8.118  14.648  0.00  0.00    +0.000 OA
ATOM     10  N   UNL     1      49.441   7.354  13.197  0.00  0.00    +0.000 N 
ATOM     11  H   UNL     1      49.058   7.393  12.261  0.00  0.00    +0.000 HD
BRANCH   8  19
ATOM     12  C   UNL     1      49.886  10.589  11.284  0.00  0.00    +0.000 A 
ATOM     13  N   UNL     1      49.844  11.467  10.259  0.00  0.00    +0.000 NA
ATOM     14  C   UNL     1      50.874  11.515   9.418  0.00  0.00    +0.000 A 
ATOM     15  N   UNL     1      51.976  10.777   9.472  0.00  0.00    +0.000 NA
ATOM     16  C   UNL     1      51.975   9.900  10.491  0.00  0.00    +0.000 A 
ATOM     17  S   UNL     1      53.314   8.881  10.712  0.00  0.00    +0.000 S 
ATOM     18  C   UNL     1      52.592   8.145  12.061  0.00  0.00    +0.000 A 
ATOM     19  C   UNL     1      51.332   8.643  12.373  0.00  0.00    +0.000 A 
ATOM     20  C   UNL     1      50.976   9.717  11.442  0.00  0.00    +0.000 A 
BRANCH  12  22
ATOM     21  C   UNL     1      47.576  10.395  11.567  0.00  0.00    +0.000 C 
ATOM     22  O   UNL     1      48.844  10.609  12.190  0.00  0.00    +0.000 OA
ENDBRANCH  12  22
ENDBRANCH   8  19
ENDBRANCH   7  10
ENDBRANCH   1   7
BRANCH   4  23
ATOM     23  C   UNL     1      44.462   3.431  11.779  0.00  0.00    +0.000 C 
BRANCH  23  24
ATOM     24  N   UNL     1      44.429   3.666  10.339  0.00  0.00    +0.000 NA
ATOM     25  H   UNL     1      45.257   4.205  10.082  0.00  0.00    +0.000 HD
BRANCH  24  26
ATOM     26  C   UNL     1      44.432   2.427   9.552  0.00  0.00    +0.000 C 
BRANCH  26  27
ATOM     27  C   UNL     1      45.562   2.422   8.544  0.00  0.00    +0.000 A 
ATOM     28  C   UNL     1      46.214   1.239   8.152  0.00  0.00    +0.000 A 
ATOM     29  C   UNL     1      47.224   1.263   7.185  0.00  0.00    +0.000 A 
ATOM     30  C   UNL     1      47.618   2.472   6.614  0.00  0.00    +0.000 A 
ATOM     31  C   UNL     1      47.013   3.658   7.025  0.00  0.00    +0.000 A 
ATOM     32  C   UNL     1      46.004   3.626   7.986  0.00  0.00    +0.000 A 
ATOM     33  F   UNL     1      45.439   4.782   8.362  0.00  0.00    +0.000 F 
ENDBRANCH  26  27
ENDBRANCH  24  26
ENDBRANCH  23  24
ENDBRANCH   4  23
TORSDOF 8
ENDMDL
