MODEL 1
REMARK VINA RESULT:    -7.869      0.000      0.000
REMARK INTER + INTRA:         -12.084
REMARK INTER:                 -11.090
REMARK INTRA:                  -0.995
REMARK UNBOUND:                -0.995
REMARK  Name = 
REMARK  7 active torsions:
REMARK  status: ('A' for Active; 'I' for Inactive)
REMARK    1  A    between atoms: C_2  and  C_3
REMARK    2  A    between atoms: C_6  and  N_7
REMARK    3  A    between atoms: N_7  and  C_8
REMARK    4  A    between atoms: C_8  and  C_9
REMARK    5  A    between atoms: C_9  and  C_12
REMARK    6  A    between atoms: C_16  and  O_17
REMARK    7  A    between atoms: O_17  and  C_18
REMARK                            x       y       z     vdW  Elec       q    Type
REMARK                         _______ _______ _______ _____ _____    ______ ____
ROOT
ATOM      1  C   UNL     1      44.649   5.408  12.118  0.00  0.00    +0.000 C 
ATOM      2  F   UNL     1      43.696   5.907  12.960  0.00  0.00    +0.000 F 
ATOM      3  F   UNL     1      44.491   4.047  12.171  0.00  0.00    +0.000 F 
ENDROOT
BRANCH   1   4
ATOM      4  C   UNL     1      46.047   5.834  12.535  0.00  0.00    +0.000 A 
ATOM      5  C   UNL     1      46.819   6.663  11.713  0.00  0.00    +0.000 A 
ATOM      6  C   UNL     1      48.081   7.091  12.134  0.00  0.00    +0.000 A 
ATOM      7  C   UNL     1      48.596   6.677  13.368  0.00  0.00    +0.000 A 
ATOM      8  C   UNL     1      47.861   5.808  14.172  0.00  0.00    +0.000 A 
ATOM      9  C   UNL     1      46.583   5.409  13.763  0.00  0.00    +0.000 A 
BRANCH   8  10
ATOM     10  O   UNL     1      48.280   5.315  15.386  0.00  0.00    +0.000 OA
BRANCH  10  11
ATOM     11  C   UNL     1      47.426   4.387  16.097  0.00  0.00    +0.000 C 
ATOM     12  C   UNL     1      47.379   4.511  17.640  0.00  0.00    +0.000 C 
ATOM     13  C   UNL     1      47.469   2.981  17.737  0.00  0.00    +0.000 C 
ATOM     14  C   UNL     1      48.017   2.965  16.301  0.00  0.00    +0.000 C 
ENDBRANCH  10  11
ENDBRANCH   8  10
ENDBRANCH   1   4
BRANCH   1  15
ATOM     15  C   UNL     1      44.326   5.865  10.668  0.00  0.00    +0.000 C 
BRANCH  15  16
ATOM     16  N   UNL     1      43.883   4.747   9.812  0.00  0.00    +0.000 N 
ATOM     17  H   UNL     1      43.245   4.102  10.273  0.00  0.00    +0.000 HD
BRANCH  16  21
ATOM     18  C   UNL     1      46.681   2.726   7.465  0.00  0.00    +0.000 A 
ATOM     19  C   UNL     1      46.561   4.107   7.484  0.00  0.00    +0.000 A 
ATOM     20  N   UNL     1      45.679   4.783   8.265  0.00  0.00    +0.000 NA
ATOM     21  C   UNL     1      44.871   4.071   9.086  0.00  0.00    +0.000 A 
ATOM     22  C   UNL     1      44.955   2.668   9.138  0.00  0.00    +0.000 A 
ATOM     23 CL   UNL     1      43.948   1.736  10.190  0.00  0.00    +0.000 Cl
ATOM     24  C   UNL     1      45.860   1.992   8.316  0.00  0.00    +0.000 A 
BRANCH  18  26
ATOM     25  N   UNL     1      48.368   1.572   5.876  0.00  0.00    +0.000 NA
ATOM     26  C   UNL     1      47.613   2.086   6.589  0.00  0.00    +0.000 C 
ENDBRANCH  18  26
ENDBRANCH  16  21
ENDBRANCH  15  16
ENDBRANCH   1  15
TORSDOF 7
ENDMDL
MODEL 2
REMARK VINA RESULT:    -7.206      3.881      8.030
REMARK INTER + INTRA:         -11.150
REMARK INTER:                 -10.422
REMARK INTRA:                  -0.728
REMARK UNBOUND:                -0.995
REMARK  Name = 
REMARK  7 active torsions:
REMARK  status: ('A' for Active; 'I' for Inactive)
REMARK    1  A    between atoms: C_2  and  C_3
REMARK    2  A    between atoms: C_6  and  N_7
REMARK    3  A    between atoms: N_7  and  C_8
REMARK    4  A    between atoms: C_8  and  C_9
REMARK    5  A    between atoms: C_9  and  C_12
REMARK    6  A    between atoms: C_16  and  O_17
REMARK    7  A    between atoms: O_17  and  C_18
REMARK                            x       y       z     vdW  Elec       q    Type
REMARK                         _______ _______ _______ _____ _____    ______ ____
ROOT
ATOM      1  C   UNL     1      45.525   6.185  11.552  0.00  0.00    +0.000 C 
ATOM      2  F   UNL     1      44.599   7.178  11.403  0.00  0.00    +0.000 F 
ATOM      3  F   UNL     1      46.682   6.696  11.021  0.00  0.00    +0.000 F 
ENDROOT
BRANCH   1   4
ATOM      4  C   UNL     1      45.096   4.906  10.852  0.00  0.00    +0.000 A 
ATOM      5  C   UNL     1      44.440   3.889  11.555  0.00  0.00    +0.000 A 
ATOM      6  C   UNL     1      44.002   2.742  10.887  0.00  0.00    +0.000 A 
ATOM      7  C   UNL     1      44.235   2.588   9.515  0.00  0.00    +0.000 A 
ATOM      8  C   UNL     1      44.934   3.568   8.814  0.00  0.00    +0.000 A 
ATOM      9  C   UNL     1      45.342   4.731   9.479  0.00  0.00    +0.000 A 
BRANCH   8  10
ATOM     10  O   UNL     1      45.245   3.508   7.475  0.00  0.00    +0.000 OA
BRANCH  10  11
ATOM     11  C   UNL     1      46.626   3.323   7.084  0.00  0.00    +0.000 C 
ATOM     12  C   UNL     1      46.913   3.131   5.574  0.00  0.00    +0.000 C 
ATOM     13  C   UNL     1      47.884   1.997   5.931  0.00  0.00    +0.000 C 
ATOM     14  C   UNL     1      47.190   1.892   7.299  0.00  0.00    +0.000 C 
ENDBRANCH  10  11
ENDBRANCH   8  10
ENDBRANCH   1   4
BRANCH   1  15
ATOM     15  C   UNL     1      45.766   5.947  13.069  0.00  0.00    +0.000 C 
BRANCH  15  16
ATOM     16  N   UNL     1      46.957   5.112  13.324  0.00  0.00    +0.000 N 
ATOM     17  H   UNL     1      46.932   4.205  12.863  0.00  0.00    +0.000 HD
BRANCH  16  21
ATOM     18  C   UNL     1      48.057   4.928  17.346  0.00  0.00    +0.000 A 
ATOM     19  C   UNL     1      47.211   4.007  16.747  0.00  0.00    +0.000 A 
ATOM     20  N   UNL     1      46.867   4.033  15.434  0.00  0.00    +0.000 NA
ATOM     21  C   UNL     1      47.389   5.008  14.652  0.00  0.00    +0.000 A 
ATOM     22  C   UNL     1      48.275   5.961  15.186  0.00  0.00    +0.000 A 
ATOM     23 CL   UNL     1      48.969   7.206  14.206  0.00  0.00    +0.000 Cl
ATOM     24  C   UNL     1      48.605   5.925  16.542  0.00  0.00    +0.000 A 
BRANCH  18  26
ATOM     25  N   UNL     1      48.574   4.794  19.879  0.00  0.00    +0.000 NA
ATOM     26  C   UNL     1      48.345   4.853  18.745  0.00  0.00    +0.000 C 
ENDBRANCH  18  26
ENDBRANCH  16  21
ENDBRANCH  15  16
ENDBRANCH   1  15
TORSDOF 7
ENDMDL
MODEL 3
REMARK VINA RESULT:    -7.141      3.407      7.398
REMARK INTER + INTRA:         -11.058
REMARK INTER:                 -10.027
REMARK INTRA:                  -1.030
REMARK UNBOUND:                -0.995
REMARK  Name = 
REMARK  7 active torsions:
REMARK  status: ('A' for Active; 'I' for Inactive)
REMARK    1  A    between atoms: C_2  and  C_3
REMARK    2  A    between atoms: C_6  and  N_7
REMARK    3  A    between atoms: N_7  and  C_8
REMARK    4  A    between atoms: C_8  and  C_9
REMARK    5  A    between atoms: C_9  and  C_12
REMARK    6  A    between atoms: C_16  and  O_17
REMARK    7  A    between atoms: O_17  and  C_18
REMARK                            x       y       z     vdW  Elec       q    Type
REMARK                         _______ _______ _______ _____ _____    ______ ____
ROOT
ATOM      1  C   UNL     1      45.535   7.206  12.018  0.00  0.00    +0.000 C 
ATOM      2  F   UNL     1      44.952   7.147  13.252  0.00  0.00    +0.000 F 
ATOM      3  F   UNL     1      45.146   8.415  11.500  0.00  0.00    +0.000 F 
ENDROOT
BRANCH   1   4
ATOM      4  C   UNL     1      45.103   6.046  11.136  0.00  0.00    +0.000 A 
ATOM      5  C   UNL     1      43.993   5.263  11.473  0.00  0.00    +0.000 A 
ATOM      6  C   UNL     1      43.575   4.235  10.625  0.00  0.00    +0.000 A 
ATOM      7  C   UNL     1      44.273   3.961   9.443  0.00  0.00    +0.000 A 
ATOM      8  C   UNL     1      45.413   4.697   9.122  0.00  0.00    +0.000 A 
ATOM      9  C   UNL     1      45.809   5.749   9.957  0.00  0.00    +0.000 A 
BRANCH   8  10
ATOM     10  O   UNL     1      46.191   4.496   8.006  0.00  0.00    +0.000 OA
BRANCH  10  11
ATOM     11  C   UNL     1      46.005   3.288   7.231  0.00  0.00    +0.000 C 
ATOM     12  C   UNL     1      46.781   2.028   7.691  0.00  0.00    +0.000 C 
ATOM     13  C   UNL     1      47.134   1.746   6.224  0.00  0.00    +0.000 C 
ATOM     14  C   UNL     1      46.816   3.216   5.909  0.00  0.00    +0.000 C 
ENDBRANCH  10  11
ENDBRANCH   8  10
ENDBRANCH   1   4
BRANCH   1  15
ATOM     15  C   UNL     1      47.079   7.242  12.194  0.00  0.00    +0.000 C 
BRANCH  15  16
ATOM     16  N   UNL     1      47.635   5.920  12.542  0.00  0.00    +0.000 N 
ATOM     17  H   UNL     1      47.262   5.154  11.985  0.00  0.00    +0.000 HD
BRANCH  16  21
ATOM     18  C   UNL     1      48.018   4.839  16.555  0.00  0.00    +0.000 A 
ATOM     19  C   UNL     1      48.531   6.016  16.033  0.00  0.00    +0.000 A 
ATOM     20  N   UNL     1      48.390   6.399  14.738  0.00  0.00    +0.000 NA
ATOM     21  C   UNL     1      47.694   5.592  13.902  0.00  0.00    +0.000 A 
ATOM     22  C   UNL     1      47.123   4.394  14.369  0.00  0.00    +0.000 A 
ATOM     23 CL   UNL     1      46.216   3.354  13.326  0.00  0.00    +0.000 Cl
ATOM     24  C   UNL     1      47.293   4.012  15.701  0.00  0.00    +0.000 A 
BRANCH  18  26
ATOM     25  N   UNL     1      48.418   4.202  19.032  0.00  0.00    +0.000 NA
ATOM     26  C   UNL     1      48.239   4.490  17.924  0.00  0.00    +0.000 C 
ENDBRANCH  18  26
ENDBRANCH  16  21
ENDBRANCH  15  16
ENDBRANCH   1  15
TORSDOF 7
ENDMDL
MODEL 4
REMARK VINA RESULT:    -6.815      4.165      8.050
REMARK INTER + INTRA:         -10.599
REMARK INTER:                  -9.910
REMARK INTRA:                  -0.689
REMARK UNBOUND:                -0.995
REMARK  Name = 
REMARK  7 active torsions:
REMARK  status: ('A' for Active; 'I' for Inactive)
REMARK    1  A    between atoms: C_2  and  C_3
REMARK    2  A    between atoms: C_6  and  N_7
REMARK    3  A    between atoms: N_7  and  C_8
REMARK    4  A    between atoms: C_8  and  C_9
REMARK    5  A    between atoms: C_9  and  C_12
REMARK    6  A    between atoms: C_16  and  O_17
REMARK    7  A    between atoms: O_17  and  C_18
REMARK                            x       y       z     vdW  Elec       q    Type
REMARK                         _______ _______ _______ _____ _____    ______ ____
ROOT
ATOM      1  C   UNL     1      45.793   5.798  12.567  0.00  0.00    +0.000 C 
ATOM      2  F   UNL     1      44.850   6.137  13.494  0.00  0.00    +0.000 F 
ATOM      3  F   UNL     1      46.178   6.987  12.002  0.00  0.00    +0.000 F 
ENDROOT
BRANCH   1   4
ATOM      4  C   UNL     1      45.243   4.830  11.532  0.00  0.00    +0.000 A 
ATOM      5  C   UNL     1      44.349   3.819  11.901  0.00  0.00    +0.000 A 
ATOM      6  C   UNL     1      43.808   2.971  10.931  0.00  0.00    +0.000 A 
ATOM      7  C   UNL     1      44.172   3.108   9.586  0.00  0.00    +0.000 A 
ATOM      8  C   UNL     1      45.103   4.076   9.213  0.00  0.00    +0.000 A 
ATOM      9  C   UNL     1      45.617   4.945  10.182  0.00  0.00    +0.000 A 
BRANCH   8  10
ATOM     10  O   UNL     1      45.555   4.279   7.929  0.00  0.00    +0.000 OA
BRANCH  10  11
ATOM     11  C   UNL     1      45.796   3.131   7.082  0.00  0.00    +0.000 C 
ATOM     12  C   UNL     1      46.755   2.042   7.625  0.00  0.00    +0.000 C 
ATOM     13  C   UNL     1      47.414   1.973   6.240  0.00  0.00    +0.000 C 
ATOM     14  C   UNL     1      46.818   3.357   5.934  0.00  0.00    +0.000 C 
ENDBRANCH  10  11
ENDBRANCH   8  10
ENDBRANCH   1   4
BRANCH   1  15
ATOM     15  C   UNL     1      47.028   5.202  13.301  0.00  0.00    +0.000 C 
BRANCH  15  16
ATOM     16  N   UNL     1      46.815   5.093  14.758  0.00  0.00    +0.000 N 
ATOM     17  H   UNL     1      45.954   5.524  15.084  0.00  0.00    +0.000 HD
BRANCH  16  21
ATOM     18  C   UNL     1      50.183   5.893  17.090  0.00  0.00    +0.000 A 
ATOM     19  C   UNL     1      49.859   6.614  15.951  0.00  0.00    +0.000 A 
ATOM     20  N   UNL     1      48.752   6.388  15.197  0.00  0.00    +0.000 NA
ATOM     21  C   UNL     1      47.900   5.409  15.584  0.00  0.00    +0.000 A 
ATOM     22  C   UNL     1      48.151   4.655  16.745  0.00  0.00    +0.000 A 
ATOM     23 CL   UNL     1      47.071   3.410  17.271  0.00  0.00    +0.000 Cl
ATOM     24  C   UNL     1      49.303   4.894  17.497  0.00  0.00    +0.000 A 
BRANCH  18  26
ATOM     25  N   UNL     1      52.360   6.399  18.396  0.00  0.00    +0.000 NA
ATOM     26  C   UNL     1      51.386   6.170  17.811  0.00  0.00    +0.000 C 
ENDBRANCH  18  26
ENDBRANCH  16  21
ENDBRANCH  15  16
ENDBRANCH   1  15
TORSDOF 7
ENDMDL
MODEL 5
REMARK VINA RESULT:    -6.775      2.056      3.855
REMARK INTER + INTRA:         -10.542
REMARK INTER:                  -9.565
REMARK INTRA:                  -0.978
REMARK UNBOUND:                -0.995
REMARK  Name = 
REMARK  7 active torsions:
REMARK  status: ('A' for Active; 'I' for Inactive)
REMARK    1  A    between atoms: C_2  and  C_3
REMARK    2  A    between atoms: C_6  and  N_7
REMARK    3  A    between atoms: N_7  and  C_8
REMARK    4  A    between atoms: C_8  and  C_9
REMARK    5  A    between atoms: C_9  and  C_12
REMARK    6  A    between atoms: C_16  and  O_17
REMARK    7  A    between atoms: O_17  and  C_18
REMARK                            x       y       z     vdW  Elec       q    Type
REMARK                         _______ _______ _______ _____ _____    ______ ____
ROOT
ATOM      1  C   UNL     1      44.420   4.353  12.557  0.00  0.00    +0.000 C 
ATOM      2  F   UNL     1      43.651   5.150  11.759  0.00  0.00    +0.000 F 
ATOM      3  F   UNL     1      43.621   4.050  13.630  0.00  0.00    +0.000 F 
ENDROOT
BRANCH   1   4
ATOM      4  C   UNL     1      45.701   5.052  12.983  0.00  0.00    +0.000 A 
ATOM      5  C   UNL     1      46.336   4.715  14.184  0.00  0.00    +0.000 A 
ATOM      6  C   UNL     1      47.542   5.326  14.537  0.00  0.00    +0.000 A 
ATOM      7  C   UNL     1      48.115   6.297  13.707  0.00  0.00    +0.000 A 
ATOM      8  C   UNL     1      47.465   6.681  12.535  0.00  0.00    +0.000 A 
ATOM      9  C   UNL     1      46.275   6.043  12.168  0.00  0.00    +0.000 A 
BRANCH   8  10
ATOM     10  O   UNL     1      47.919   7.643  11.663  0.00  0.00    +0.000 OA
BRANCH  10  11
ATOM     11  C   UNL     1      48.993   8.519  12.083  0.00  0.00    +0.000 C 
ATOM     12  C   UNL     1      49.041   9.931  11.448  0.00  0.00    +0.000 C 
ATOM     13  C   UNL     1      50.558   9.769  11.273  0.00  0.00    +0.000 C 
ATOM     14  C   UNL     1      50.369   8.250  11.414  0.00  0.00    +0.000 C 
ENDBRANCH  10  11
ENDBRANCH   8  10
ENDBRANCH   1   4
BRANCH   1  15
ATOM     15  C   UNL     1      44.721   3.028  11.803  0.00  0.00    +0.000 C 
BRANCH  15  16
ATOM     16  N   UNL     1      44.091   2.986  10.468  0.00  0.00    +0.000 N 
ATOM     17  H   UNL     1      43.250   2.415  10.425  0.00  0.00    +0.000 HD
BRANCH  16  21
ATOM     18  C   UNL     1      46.781   2.270   7.358  0.00  0.00    +0.000 A 
ATOM     19  C   UNL     1      46.117   1.259   8.035  0.00  0.00    +0.000 A 
ATOM     20  N   UNL     1      45.215   1.474   9.028  0.00  0.00    +0.000 NA
ATOM     21  C   UNL     1      44.934   2.753   9.374  0.00  0.00    +0.000 A 
ATOM     22  C   UNL     1      45.551   3.829   8.712  0.00  0.00    +0.000 A 
ATOM     23 CL   UNL     1      45.196   5.472   9.122  0.00  0.00    +0.000 Cl
ATOM     24  C   UNL     1      46.485   3.586   7.703  0.00  0.00    +0.000 A 
BRANCH  18  26
ATOM     25  N   UNL     1      48.520   1.706   5.524  0.00  0.00    +0.000 NA
ATOM     26  C   UNL     1      47.743   1.961   6.346  0.00  0.00    +0.000 C 
ENDBRANCH  18  26
ENDBRANCH  16  21
ENDBRANCH  15  16
ENDBRANCH   1  15
TORSDOF 7
ENDMDL
MODEL 6
REMARK VINA RESULT:    -6.644      4.473      7.944
REMARK INTER + INTRA:         -10.357
REMARK INTER:                  -9.659
REMARK INTRA:                  -0.698
REMARK UNBOUND:                -0.995
REMARK  Name = 
REMARK  7 active torsions:
REMARK  status: ('A' for Active; 'I' for Inactive)
REMARK    1  A    between atoms: C_2  and  C_3
REMARK    2  A    between atoms: C_6  and  N_7
REMARK    3  A    between atoms: N_7  and  C_8
REMARK    4  A    between atoms: C_8  and  C_9
REMARK    5  A    between atoms: C_9  and  C_12
REMARK    6  A    between atoms: C_16  and  O_17
REMARK    7  A    between atoms: O_17  and  C_18
REMARK                            x       y       z     vdW  Elec       q    Type
REMARK                         _______ _______ _______ _____ _____    ______ ____
ROOT
ATOM      1  C   UNL     1      46.922   5.727  13.358  0.00  0.00    +0.000 C 
ATOM      2  F   UNL     1      46.826   6.969  13.916  0.00  0.00    +0.000 F 
ATOM      3  F   UNL     1      48.055   5.771  12.586  0.00  0.00    +0.000 F 
ENDROOT
BRANCH   1   4
ATOM      4  C   UNL     1      45.689   5.382  12.537  0.00  0.00    +0.000 A 
ATOM      5  C   UNL     1      44.596   6.254  12.486  0.00  0.00    +0.000 A 
ATOM      6  C   UNL     1      43.492   5.951  11.684  0.00  0.00    +0.000 A 
ATOM      7  C   UNL     1      43.458   4.763  10.944  0.00  0.00    +0.000 A 
ATOM      8  C   UNL     1      44.517   3.861  11.028  0.00  0.00    +0.000 A 
ATOM      9  C   UNL     1      45.635   4.183  11.805  0.00  0.00    +0.000 A 
BRANCH   8  10
ATOM     10  O   UNL     1      44.576   2.654  10.370  0.00  0.00    +0.000 OA
BRANCH  10  11
ATOM     11  C   UNL     1      44.727   2.648   8.931  0.00  0.00    +0.000 C 
ATOM     12  C   UNL     1      45.909   1.834   8.348  0.00  0.00    +0.000 C 
ATOM     13  C   UNL     1      46.205   3.000   7.394  0.00  0.00    +0.000 C 
ATOM     14  C   UNL     1      45.398   3.914   8.329  0.00  0.00    +0.000 C 
ENDBRANCH  10  11
ENDBRANCH   8  10
ENDBRANCH   1   4
BRANCH   1  15
ATOM     15  C   UNL     1      47.161   4.686  14.487  0.00  0.00    +0.000 C 
BRANCH  15  16
ATOM     16  N   UNL     1      47.359   5.322  15.804  0.00  0.00    +0.000 N 
ATOM     17  H   UNL     1      47.206   6.328  15.804  0.00  0.00    +0.000 HD
BRANCH  16  21
ATOM     18  C   UNL     1      50.881   4.168  17.723  0.00  0.00    +0.000 A 
ATOM     19  C   UNL     1      50.767   5.335  16.983  0.00  0.00    +0.000 A 
ATOM     20  N   UNL     1      49.621   5.742  16.378  0.00  0.00    +0.000 NA
ATOM     21  C   UNL     1      48.515   4.972  16.513  0.00  0.00    +0.000 A 
ATOM     22  C   UNL     1      48.551   3.788  17.271  0.00  0.00    +0.000 A 
ATOM     23 CL   UNL     1      47.148   2.796  17.474  0.00  0.00    +0.000 Cl
ATOM     24  C   UNL     1      49.743   3.380  17.873  0.00  0.00    +0.000 A 
BRANCH  18  26
ATOM     25  N   UNL     1      53.150   3.486  18.766  0.00  0.00    +0.000 NA
ATOM     26  C   UNL     1      52.133   3.791  18.302  0.00  0.00    +0.000 C 
ENDBRANCH  18  26
ENDBRANCH  16  21
ENDBRANCH  15  16
ENDBRANCH   1  15
TORSDOF 7
ENDMDL
MODEL 7
REMARK VINA RESULT:    -6.490      4.368      8.312
REMARK INTER + INTRA:         -10.141
REMARK INTER:                  -9.338
REMARK INTRA:                  -0.803
REMARK UNBOUND:                -0.995
REMARK  Name = 
REMARK  7 active torsions:
REMARK  status: ('A' for Active; 'I' for Inactive)
REMARK    1  A    between atoms: C_2  and  C_3
REMARK    2  A    between atoms: C_6  and  N_7
REMARK    3  A    between atoms: N_7  and  C_8
REMARK    4  A    between atoms: C_8  and  C_9
REMARK    5  A    between atoms: C_9  and  C_12
REMARK    6  A    between atoms: C_16  and  O_17
REMARK    7  A    between atoms: O_17  and  C_18
REMARK                            x       y       z     vdW  Elec       q    Type
REMARK                         _______ _______ _______ _____ _____    ______ ____
ROOT
ATOM      1  C   UNL     1      45.977   6.575  12.165  0.00  0.00    +0.000 C 
ATOM      2  F   UNL     1      45.038   7.301  12.840  0.00  0.00    +0.000 F 
ATOM      3  F   UNL     1      46.767   7.509  11.543  0.00  0.00    +0.000 F 
ENDROOT
BRANCH   1   4
ATOM      4  C   UNL     1      45.341   5.618  11.171  0.00  0.00    +0.000 A 
ATOM      5  C   UNL     1      44.170   4.923  11.494  0.00  0.00    +0.000 A 
ATOM      6  C   UNL     1      43.565   4.088  10.551  0.00  0.00    +0.000 A 
ATOM      7  C   UNL     1      44.134   3.919   9.284  0.00  0.00    +0.000 A 
ATOM      8  C   UNL     1      45.330   4.563   8.967  0.00  0.00    +0.000 A 
ATOM      9  C   UNL     1      45.915   5.425   9.902  0.00  0.00    +0.000 A 
BRANCH   8  10
ATOM     10  O   UNL     1      45.992   4.447   7.767  0.00  0.00    +0.000 OA
BRANCH  10  11
ATOM     11  C   UNL     1      46.026   3.159   7.109  0.00  0.00    +0.000 C 
ATOM     12  C   UNL     1      46.425   1.935   7.971  0.00  0.00    +0.000 C 
ATOM     13  C   UNL     1      47.319   1.451   6.821  0.00  0.00    +0.000 C 
ATOM     14  C   UNL     1      47.297   2.881   6.259  0.00  0.00    +0.000 C 
ENDBRANCH  10  11
ENDBRANCH   8  10
ENDBRANCH   1   4
BRANCH   1  15
ATOM     15  C   UNL     1      46.863   5.819  13.194  0.00  0.00    +0.000 C 
BRANCH  15  16
ATOM     16  N   UNL     1      48.197   6.432  13.345  0.00  0.00    +0.000 N 
ATOM     17  H   UNL     1      48.947   5.903  12.905  0.00  0.00    +0.000 HD
BRANCH  16  21
ATOM     18  C   UNL     1      49.038   7.710  17.228  0.00  0.00    +0.000 A 
ATOM     19  C   UNL     1      49.133   6.386  16.826  0.00  0.00    +0.000 A 
ATOM     20  N   UNL     1      48.894   5.957  15.561  0.00  0.00    +0.000 NA
ATOM     21  C   UNL     1      48.554   6.874  14.624  0.00  0.00    +0.000 A 
ATOM     22  C   UNL     1      48.463   8.239  14.954  0.00  0.00    +0.000 A 
ATOM     23 CL   UNL     1      48.047   9.433  13.774  0.00  0.00    +0.000 Cl
ATOM     24  C   UNL     1      48.699   8.657  16.265  0.00  0.00    +0.000 A 
BRANCH  18  26
ATOM     25  N   UNL     1      49.462   8.382  19.692  0.00  0.00    +0.000 NA
ATOM     26  C   UNL     1      49.273   8.079  18.589  0.00  0.00    +0.000 C 
ENDBRANCH  18  26
ENDBRANCH  16  21
ENDBRANCH  15  16
ENDBRANCH   1  15
TORSDOF 7
ENDMDL
MODEL 8
REMARK VINA RESULT:    -6.482      4.432      7.773
REMARK INTER + INTRA:         -10.129
REMARK INTER:                  -9.357
REMARK INTRA:                  -0.772
REMARK UNBOUND:                -0.995
REMARK  Name = 
REMARK  7 active torsions:
REMARK  status: ('A' for Active; 'I' for Inactive)
REMARK    1  A    between atoms: C_2  and  C_3
REMARK    2  A    between atoms: C_6  and  N_7
REMARK    3  A    between atoms: N_7  and  C_8
REMARK    4  A    between atoms: C_8  and  C_9
REMARK    5  A    between atoms: C_9  and  C_12
REMARK    6  A    between atoms: C_16  and  O_17
REMARK    7  A    between atoms: O_17  and  C_18
REMARK                            x       y       z     vdW  Elec       q    Type
REMARK                         _______ _______ _______ _____ _____    ______ ____
ROOT
ATOM      1  C   UNL     1      46.577   4.579  13.671  0.00  0.00    +0.000 C 
ATOM      2  F   UNL     1      47.353   3.469  13.496  0.00  0.00    +0.000 F 
ATOM      3  F   UNL     1      46.314   4.619  15.017  0.00  0.00    +0.000 F 
ENDROOT
BRANCH   1   4
ATOM      4  C   UNL     1      45.302   4.510  12.847  0.00  0.00    +0.000 A 
ATOM      5  C   UNL     1      44.266   5.429  13.050  0.00  0.00    +0.000 A 
ATOM      6  C   UNL     1      43.123   5.388  12.248  0.00  0.00    +0.000 A 
ATOM      7  C   UNL     1      42.991   4.416  11.250  0.00  0.00    +0.000 A 
ATOM      8  C   UNL     1      43.990   3.461  11.073  0.00  0.00    +0.000 A 
ATOM      9  C   UNL     1      45.149   3.525  11.855  0.00  0.00    +0.000 A 
BRANCH   8  10
ATOM     10  O   UNL     1      43.953   2.445  10.146  0.00  0.00    +0.000 OA
BRANCH  10  11
ATOM     11  C   UNL     1      44.407   2.710   8.797  0.00  0.00    +0.000 C 
ATOM     12  C   UNL     1      45.800   2.161   8.401  0.00  0.00    +0.000 C 
ATOM     13  C   UNL     1      46.105   3.503   7.721  0.00  0.00    +0.000 C 
ATOM     14  C   UNL     1      44.982   4.134   8.559  0.00  0.00    +0.000 C 
ENDBRANCH  10  11
ENDBRANCH   8  10
ENDBRANCH   1   4
BRANCH   1  15
ATOM     15  C   UNL     1      47.415   5.839  13.316  0.00  0.00    +0.000 C 
BRANCH  15  16
ATOM     16  N   UNL     1      47.561   6.758  14.463  0.00  0.00    +0.000 N 
ATOM     17  H   UNL     1      47.014   7.612  14.381  0.00  0.00    +0.000 HD
BRANCH  16  21
ATOM     18  C   UNL     1      51.513   7.337  15.673  0.00  0.00    +0.000 A 
ATOM     19  C   UNL     1      50.983   7.890  14.517  0.00  0.00    +0.000 A 
ATOM     20  N   UNL     1      49.693   7.739  14.124  0.00  0.00    +0.000 NA
ATOM     21  C   UNL     1      48.862   7.014  14.912  0.00  0.00    +0.000 A 
ATOM     22  C   UNL     1      49.324   6.445  16.112  0.00  0.00    +0.000 A 
ATOM     23 CL   UNL     1      48.281   5.530  17.144  0.00  0.00    +0.000 Cl
ATOM     24  C   UNL     1      50.659   6.601  16.491  0.00  0.00    +0.000 A 
BRANCH  18  26
ATOM     25  N   UNL     1      54.011   7.657  16.272  0.00  0.00    +0.000 NA
ATOM     26  C   UNL     1      52.893   7.515  16.002  0.00  0.00    +0.000 C 
ENDBRANCH  18  26
ENDBRANCH  16  21
ENDBRANCH  15  16
ENDBRANCH   1  15
TORSDOF 7
ENDMDL
MODEL 9
REMARK VINA RESULT:    -6.235      4.136      7.677
REMARK INTER + INTRA:          -9.781
REMARK INTER:                  -8.941
REMARK INTRA:                  -0.840
REMARK UNBOUND:                -0.995
REMARK  Name = 
REMARK  7 active torsions:
REMARK  status: ('A' for Active; 'I' for Inactive)
REMARK    1  A    between atoms: C_2  and  C_3
REMARK    2  A    between atoms: C_6  and  N_7
REMARK    3  A    between atoms: N_7  and  C_8
REMARK    4  A    between atoms: C_8  and  C_9
REMARK    5  A    between atoms: C_9  and  C_12
REMARK    6  A    between atoms: C_16  and  O_17
REMARK    7  A    between atoms: O_17  and  C_18
REMARK                            x       y       z     vdW  Elec       q    Type
REMARK                         _______ _______ _______ _____ _____    ______ ____
ROOT
ATOM      1  C   UNL     1      45.376   6.678  11.865  0.00  0.00    +0.000 C 
ATOM      2  F   UNL     1      45.119   7.100  13.139  0.00  0.00    +0.000 F 
ATOM      3  F   UNL     1      44.813   7.632  11.056  0.00  0.00    +0.000 F 
ENDROOT
BRANCH   1   4
ATOM      4  C   UNL     1      44.798   5.297  11.603  0.00  0.00    +0.000 A 
ATOM      5  C   UNL     1      44.105   4.608  12.604  0.00  0.00    +0.000 A 
ATOM      6  C   UNL     1      43.531   3.363  12.333  0.00  0.00    +0.000 A 
ATOM      7  C   UNL     1      43.664   2.782  11.066  0.00  0.00    +0.000 A 
ATOM      8  C   UNL     1      44.398   3.433  10.076  0.00  0.00    +0.000 A 
ATOM      9  C   UNL     1      44.942   4.694  10.341  0.00  0.00    +0.000 A 
BRANCH   8  10
ATOM     10  O   UNL     1      44.618   2.943   8.809  0.00  0.00    +0.000 OA
BRANCH  10  11
ATOM     11  C   UNL     1      45.975   2.877   8.310  0.00  0.00    +0.000 C 
ATOM     12  C   UNL     1      46.198   3.240   6.821  0.00  0.00    +0.000 C 
ATOM     13  C   UNL     1      47.133   2.029   6.695  0.00  0.00    +0.000 C 
ATOM     14  C   UNL     1      46.486   1.451   7.963  0.00  0.00    +0.000 C 
ENDBRANCH  10  11
ENDBRANCH   8  10
ENDBRANCH   1   4
BRANCH   1  15
ATOM     15  C   UNL     1      46.912   6.705  11.628  0.00  0.00    +0.000 C 
BRANCH  15  16
ATOM     16  N   UNL     1      47.554   7.887  12.238  0.00  0.00    +0.000 N 
ATOM     17  H   UNL     1      47.846   8.592  11.564  0.00  0.00    +0.000 HD
BRANCH  16  21
ATOM     18  C   UNL     1      50.421   7.372  15.227  0.00  0.00    +0.000 A 
ATOM     19  C   UNL     1      49.130   6.873  15.317  0.00  0.00    +0.000 A 
ATOM     20  N   UNL     1      48.194   7.004  14.343  0.00  0.00    +0.000 NA
ATOM     21  C   UNL     1      48.539   7.649  13.203  0.00  0.00    +0.000 A 
ATOM     22  C   UNL     1      49.839   8.159  13.031  0.00  0.00    +0.000 A 
ATOM     23 CL   UNL     1      50.311   8.972  11.578  0.00  0.00    +0.000 Cl
ATOM     24  C   UNL     1      50.782   8.026  14.052  0.00  0.00    +0.000 A 
BRANCH  18  26
ATOM     25  N   UNL     1      52.088   7.102  17.189  0.00  0.00    +0.000 NA
ATOM     26  C   UNL     1      51.339   7.223  16.312  0.00  0.00    +0.000 C 
ENDBRANCH  18  26
ENDBRANCH  16  21
ENDBRANCH  15  16
ENDBRANCH   1  15
TORSDOF 7
ENDMDL
