MODEL 1
REMARK VINA RESULT:    -8.287      0.000      0.000
REMARK INTER + INTRA:         -10.165
REMARK INTER:                  -9.740
REMARK INTRA:                  -0.424
REMARK UNBOUND:                -0.424
REMARK  Name = 
REMARK  3 active torsions:
REMARK  status: ('A' for Active; 'I' for Inactive)
REMARK    1  A    between atoms: C_2  and  C_4
REMARK    2  A    between atoms: N_8  and  C_9
REMARK    3  A    between atoms: C_9  and  C_10
REMARK                            x       y       z     vdW  Elec       q    Type
REMARK                         _______ _______ _______ _____ _____    ______ ____
ROOT
ATOM      1  C   UNL     1      46.550   4.475  13.466  0.00  0.00    +0.000 A 
ATOM      2  C   UNL     1      46.818   5.646  12.766  0.00  0.00    +0.000 A 
ATOM      3  C   UNL     1      46.196   5.854  11.536  0.00  0.00    +0.000 A 
ATOM      4  C   UNL     1      45.340   4.884  11.015  0.00  0.00    +0.000 A 
ATOM      5  N   UNL     1      44.837   5.095   9.739  0.00  0.00    +0.000 N 
ATOM      6  N   UNL     1      45.081   3.744  11.683  0.00  0.00    +0.000 NA
ATOM      7  C   UNL     1      45.685   3.560  12.885  0.00  0.00    +0.000 A 
ATOM      8  H   UNL     1      44.336   5.971   9.659  0.00  0.00    +0.000 HD
ENDROOT
BRANCH   1  10
ATOM      9  N   UNL     1      47.166   5.139  15.720  0.00  0.00    +0.000 N 
ATOM     10  C   UNL     1      47.165   4.157  14.770  0.00  0.00    +0.000 C 
ATOM     11  O   UNL     1      47.631   3.048  15.005  0.00  0.00    +0.000 OA
ATOM     12  H   UNL     1      47.506   4.875  16.637  0.00  0.00    +0.000 HD
ATOM     13  H   UNL     1      46.594   5.968  15.655  0.00  0.00    +0.000 HD
ENDBRANCH   1  10
BRANCH   5  14
ATOM     14  C   UNL     1      44.202   3.990   9.049  0.00  0.00    +0.000 C 
BRANCH  14  15
ATOM     15  C   UNL     1      45.300   3.265   8.304  0.00  0.00    +0.000 A 
ATOM     16  C   UNL     1      46.238   3.958   7.525  0.00  0.00    +0.000 A 
ATOM     17  C   UNL     1      47.295   3.275   6.915  0.00  0.00    +0.000 A 
ATOM     18  C   UNL     1      47.427   1.897   7.086  0.00  0.00    +0.000 A 
ATOM     19  C   UNL     1      46.503   1.211   7.864  0.00  0.00    +0.000 A 
ATOM     20  F   UNL     1      46.640  -0.110   8.041  0.00  0.00    +0.000 F 
ATOM     21  C   UNL     1      45.449   1.878   8.475  0.00  0.00    +0.000 A 
ENDBRANCH  14  15
ENDBRANCH   5  14
TORSDOF 3
ENDMDL
MODEL 2
REMARK VINA RESULT:    -7.970      3.393      6.315
REMARK INTER + INTRA:          -9.792
REMARK INTER:                  -9.413
REMARK INTRA:                  -0.379
REMARK UNBOUND:                -0.424
REMARK  Name = 
REMARK  3 active torsions:
REMARK  status: ('A' for Active; 'I' for Inactive)
REMARK    1  A    between atoms: C_2  and  C_4
REMARK    2  A    between atoms: N_8  and  C_9
REMARK    3  A    between atoms: C_9  and  C_10
REMARK                            x       y       z     vdW  Elec       q    Type
REMARK                         _______ _______ _______ _____ _____    ______ ____
ROOT
ATOM      1  C   UNL     1      46.476   2.614   7.409  0.00  0.00    +0.000 A 
ATOM      2  C   UNL     1      45.934   1.659   8.262  0.00  0.00    +0.000 A 
ATOM      3  C   UNL     1      45.034   2.067   9.245  0.00  0.00    +0.000 A 
ATOM      4  C   UNL     1      44.710   3.417   9.376  0.00  0.00    +0.000 A 
ATOM      5  N   UNL     1      43.895   3.777  10.441  0.00  0.00    +0.000 N 
ATOM      6  N   UNL     1      45.236   4.348   8.559  0.00  0.00    +0.000 NA
ATOM      7  C   UNL     1      46.103   3.936   7.599  0.00  0.00    +0.000 A 
ATOM      8  H   UNL     1      43.011   3.284  10.438  0.00  0.00    +0.000 HD
ENDROOT
BRANCH   1  10
ATOM      9  N   UNL     1      47.426   3.060   5.219  0.00  0.00    +0.000 N 
ATOM     10  C   UNL     1      47.445   2.286   6.344  0.00  0.00    +0.000 C 
ATOM     11  O   UNL     1      48.256   1.376   6.474  0.00  0.00    +0.000 OA
ATOM     12  H   UNL     1      48.157   2.883   4.540  0.00  0.00    +0.000 HD
ATOM     13  H   UNL     1      46.950   3.947   5.169  0.00  0.00    +0.000 HD
ENDBRANCH   1  10
BRANCH   5  14
ATOM     14  C   UNL     1      43.785   5.180  10.789  0.00  0.00    +0.000 C 
BRANCH  14  15
ATOM     15  C   UNL     1      44.945   5.483  11.711  0.00  0.00    +0.000 A 
ATOM     16  C   UNL     1      45.130   4.780  12.911  0.00  0.00    +0.000 A 
ATOM     17  C   UNL     1      46.256   5.018  13.705  0.00  0.00    +0.000 A 
ATOM     18  C   UNL     1      47.210   5.954  13.301  0.00  0.00    +0.000 A 
ATOM     19  C   UNL     1      47.031   6.643  12.109  0.00  0.00    +0.000 A 
ATOM     20  F   UNL     1      47.955   7.529  11.714  0.00  0.00    +0.000 F 
ATOM     21  C   UNL     1      45.916   6.416  11.313  0.00  0.00    +0.000 A 
ENDBRANCH  14  15
ENDBRANCH   5  14
TORSDOF 3
ENDMDL
MODEL 3
REMARK VINA RESULT:    -7.828      1.340      1.734
REMARK INTER + INTRA:          -9.626
REMARK INTER:                  -9.193
REMARK INTRA:                  -0.432
REMARK UNBOUND:                -0.424
REMARK  Name = 
REMARK  3 active torsions:
REMARK  status: ('A' for Active; 'I' for Inactive)
REMARK    1  A    between atoms: C_2  and  C_4
REMARK    2  A    between atoms: N_8  and  C_9
REMARK    3  A    between atoms: C_9  and  C_10
REMARK                            x       y       z     vdW  Elec       q    Type
REMARK                         _______ _______ _______ _____ _____    ______ ____
ROOT
ATOM      1  C   UNL     1      46.656   4.983  13.546  0.00  0.00    +0.000 A 
ATOM      2  C   UNL     1      46.957   6.027  12.679  0.00  0.00    +0.000 A 
ATOM      3  C   UNL     1      46.311   6.087  11.446  0.00  0.00    +0.000 A 
ATOM      4  C   UNL     1      45.398   5.095  11.088  0.00  0.00    +0.000 A 
ATOM      5  N   UNL     1      44.870   5.146   9.806  0.00  0.00    +0.000 N 
ATOM      6  N   UNL     1      45.107   4.076  11.918  0.00  0.00    +0.000 NA
ATOM      7  C   UNL     1      45.735   4.037  13.121  0.00  0.00    +0.000 A 
ATOM      8  H   UNL     1      44.407   6.025   9.611  0.00  0.00    +0.000 HD
ENDROOT
BRANCH   1  10
ATOM      9  N   UNL     1      46.852   3.800  15.658  0.00  0.00    +0.000 N 
ATOM     10  C   UNL     1      47.293   4.824  14.869  0.00  0.00    +0.000 C 
ATOM     11  O   UNL     1      48.202   5.560  15.235  0.00  0.00    +0.000 OA
ATOM     12  H   UNL     1      47.361   3.647  16.521  0.00  0.00    +0.000 HD
ATOM     13  H   UNL     1      46.286   3.042  15.310  0.00  0.00    +0.000 HD
ENDBRANCH   1  10
BRANCH   5  14
ATOM     14  C   UNL     1      44.167   3.985   9.296  0.00  0.00    +0.000 C 
BRANCH  14  15
ATOM     15  C   UNL     1      45.175   3.194   8.495  0.00  0.00    +0.000 A 
ATOM     16  C   UNL     1      45.515   1.877   8.840  0.00  0.00    +0.000 A 
ATOM     17  C   UNL     1      46.384   1.135   8.035  0.00  0.00    +0.000 A 
ATOM     18  C   UNL     1      46.914   1.701   6.874  0.00  0.00    +0.000 A 
ATOM     19  C   UNL     1      46.572   3.001   6.527  0.00  0.00    +0.000 A 
ATOM     20  F   UNL     1      47.068   3.538   5.404  0.00  0.00    +0.000 F 
ATOM     21  C   UNL     1      45.710   3.748   7.320  0.00  0.00    +0.000 A 
ENDBRANCH  14  15
ENDBRANCH   5  14
TORSDOF 3
ENDMDL
MODEL 4
REMARK VINA RESULT:    -7.724      2.268      2.729
REMARK INTER + INTRA:          -9.503
REMARK INTER:                  -9.148
REMARK INTRA:                  -0.355
REMARK UNBOUND:                -0.424
REMARK  Name = 
REMARK  3 active torsions:
REMARK  status: ('A' for Active; 'I' for Inactive)
REMARK    1  A    between atoms: C_2  and  C_4
REMARK    2  A    between atoms: N_8  and  C_9
REMARK    3  A    between atoms: C_9  and  C_10
REMARK                            x       y       z     vdW  Elec       q    Type
REMARK                         _______ _______ _______ _____ _____    ______ ____
ROOT
ATOM      1  C   UNL     1      45.662   7.165  12.574  0.00  0.00    +0.000 A 
ATOM      2  C   UNL     1      46.005   6.054  13.336  0.00  0.00    +0.000 A 
ATOM      3  C   UNL     1      45.837   4.783  12.790  0.00  0.00    +0.000 A 
ATOM      4  C   UNL     1      45.309   4.640  11.507  0.00  0.00    +0.000 A 
ATOM      5  N   UNL     1      45.062   3.350  11.059  0.00  0.00    +0.000 N 
ATOM      6  N   UNL     1      44.967   5.710  10.765  0.00  0.00    +0.000 NA
ATOM      7  C   UNL     1      45.146   6.942  11.306  0.00  0.00    +0.000 A 
ATOM      8  H   UNL     1      45.888   2.766  11.079  0.00  0.00    +0.000 HD
ENDROOT
BRANCH   1  10
ATOM      9  N   UNL     1      46.700   8.782  14.059  0.00  0.00    +0.000 N 
ATOM     10  C   UNL     1      45.792   8.551  13.065  0.00  0.00    +0.000 C 
ATOM     11  O   UNL     1      45.136   9.466  12.582  0.00  0.00    +0.000 OA
ATOM     12  H   UNL     1      46.845   9.750  14.320  0.00  0.00    +0.000 HD
ATOM     13  H   UNL     1      47.416   8.119  14.316  0.00  0.00    +0.000 HD
ENDBRANCH   1  10
BRANCH   5  14
ATOM     14  C   UNL     1      44.243   3.170   9.877  0.00  0.00    +0.000 C 
BRANCH  14  15
ATOM     15  C   UNL     1      45.184   2.772   8.762  0.00  0.00    +0.000 A 
ATOM     16  C   UNL     1      45.694   3.719   7.862  0.00  0.00    +0.000 A 
ATOM     17  C   UNL     1      46.630   3.343   6.893  0.00  0.00    +0.000 A 
ATOM     18  C   UNL     1      47.069   2.021   6.822  0.00  0.00    +0.000 A 
ATOM     19  C   UNL     1      46.570   1.085   7.719  0.00  0.00    +0.000 A 
ATOM     20  F   UNL     1      47.004  -0.182   7.661  0.00  0.00    +0.000 F 
ATOM     21  C   UNL     1      45.640   1.446   8.685  0.00  0.00    +0.000 A 
ENDBRANCH  14  15
ENDBRANCH   5  14
TORSDOF 3
ENDMDL
MODEL 5
REMARK VINA RESULT:    -6.443      3.757      7.366
REMARK INTER + INTRA:          -7.997
REMARK INTER:                  -7.698
REMARK INTRA:                  -0.299
REMARK UNBOUND:                -0.424
REMARK  Name = 
REMARK  3 active torsions:
REMARK  status: ('A' for Active; 'I' for Inactive)
REMARK    1  A    between atoms: C_2  and  C_4
REMARK    2  A    between atoms: N_8  and  C_9
REMARK    3  A    between atoms: C_9  and  C_10
REMARK                            x       y       z     vdW  Elec       q    Type
REMARK                         _______ _______ _______ _____ _____    ______ ____
ROOT
ATOM      1  C   UNL     1      45.215   4.518  11.660  0.00  0.00    +0.000 A 
ATOM      2  C   UNL     1      45.668   5.779  12.031  0.00  0.00    +0.000 A 
ATOM      3  C   UNL     1      46.375   5.917  13.224  0.00  0.00    +0.000 A 
ATOM      4  C   UNL     1      46.596   4.805  14.036  0.00  0.00    +0.000 A 
ATOM      5  N   UNL     1      47.210   5.022  15.261  0.00  0.00    +0.000 N 
ATOM      6  N   UNL     1      46.154   3.582  13.687  0.00  0.00    +0.000 NA
ATOM      7  C   UNL     1      45.477   3.460  12.517  0.00  0.00    +0.000 A 
ATOM      8  H   UNL     1      48.109   5.476  15.172  0.00  0.00    +0.000 HD
ENDROOT
BRANCH   1  10
ATOM      9  N   UNL     1      44.908   4.845   9.273  0.00  0.00    +0.000 N 
ATOM     10  C   UNL     1      44.447   4.269  10.423  0.00  0.00    +0.000 C 
ATOM     11  O   UNL     1      43.454   3.551  10.418  0.00  0.00    +0.000 OA
ATOM     12  H   UNL     1      44.427   4.589   8.419  0.00  0.00    +0.000 HD
ATOM     13  H   UNL     1      45.833   5.238   9.186  0.00  0.00    +0.000 HD
ENDBRANCH   1  10
BRANCH   5  14
ATOM     14  C   UNL     1      47.182   3.961  16.250  0.00  0.00    +0.000 C 
BRANCH  14  15
ATOM     15  C   UNL     1      48.608   3.777  16.717  0.00  0.00    +0.000 A 
ATOM     16  C   UNL     1      49.394   4.867  17.121  0.00  0.00    +0.000 A 
ATOM     17  C   UNL     1      50.680   4.663  17.630  0.00  0.00    +0.000 A 
ATOM     18  C   UNL     1      51.187   3.368  17.749  0.00  0.00    +0.000 A 
ATOM     19  C   UNL     1      50.406   2.288  17.357  0.00  0.00    +0.000 A 
ATOM     20  F   UNL     1      50.888   1.045  17.486  0.00  0.00    +0.000 F 
ATOM     21  C   UNL     1      49.128   2.478  16.849  0.00  0.00    +0.000 A 
ENDBRANCH  14  15
ENDBRANCH   5  14
TORSDOF 3
ENDMDL
MODEL 6
REMARK VINA RESULT:    -5.977      4.412      8.175
REMARK INTER + INTRA:          -7.449
REMARK INTER:                  -7.203
REMARK INTRA:                  -0.246
REMARK UNBOUND:                -0.424
REMARK  Name = 
REMARK  3 active torsions:
REMARK  status: ('A' for Active; 'I' for Inactive)
REMARK    1  A    between atoms: C_2  and  C_4
REMARK    2  A    between atoms: N_8  and  C_9
REMARK    3  A    between atoms: C_9  and  C_10
REMARK                            x       y       z     vdW  Elec       q    Type
REMARK                         _______ _______ _______ _____ _____    ______ ____
ROOT
ATOM      1  C   UNL     1      45.074   4.283  11.578  0.00  0.00    +0.000 A 
ATOM      2  C   UNL     1      45.342   5.598  11.942  0.00  0.00    +0.000 A 
ATOM      3  C   UNL     1      46.093   5.840  13.091  0.00  0.00    +0.000 A 
ATOM      4  C   UNL     1      46.542   4.772  13.868  0.00  0.00    +0.000 A 
ATOM      5  N   UNL     1      47.190   5.076  15.057  0.00  0.00    +0.000 N 
ATOM      6  N   UNL     1      46.280   3.496  13.526  0.00  0.00    +0.000 NA
ATOM      7  C   UNL     1      45.557   3.275  12.399  0.00  0.00    +0.000 A 
ATOM      8  H   UNL     1      47.998   5.670  14.919  0.00  0.00    +0.000 HD
ENDROOT
BRANCH   1  10
ATOM      9  N   UNL     1      44.327   4.774   9.320  0.00  0.00    +0.000 N 
ATOM     10  C   UNL     1      44.279   3.923  10.387  0.00  0.00    +0.000 C 
ATOM     11  O   UNL     1      43.625   2.887  10.343  0.00  0.00    +0.000 OA
ATOM     12  H   UNL     1      43.853   4.467   8.479  0.00  0.00    +0.000 HD
ATOM     13  H   UNL     1      45.022   5.499   9.225  0.00  0.00    +0.000 HD
ENDBRANCH   1  10
BRANCH   5  14
ATOM     14  C   UNL     1      47.397   4.019  16.026  0.00  0.00    +0.000 C 
BRANCH  14  15
ATOM     15  C   UNL     1      48.009   4.671  17.245  0.00  0.00    +0.000 A 
ATOM     16  C   UNL     1      49.385   4.926  17.327  0.00  0.00    +0.000 A 
ATOM     17  C   UNL     1      49.916   5.607  18.426  0.00  0.00    +0.000 A 
ATOM     18  C   UNL     1      49.074   6.046  19.449  0.00  0.00    +0.000 A 
ATOM     19  C   UNL     1      47.709   5.801  19.365  0.00  0.00    +0.000 A 
ATOM     20  F   UNL     1      46.899   6.236  20.339  0.00  0.00    +0.000 F 
ATOM     21  C   UNL     1      47.171   5.124  18.277  0.00  0.00    +0.000 A 
ENDBRANCH  14  15
ENDBRANCH   5  14
TORSDOF 3
ENDMDL
MODEL 7
REMARK VINA RESULT:    -5.932      3.474      5.165
REMARK INTER + INTRA:          -7.396
REMARK INTER:                  -7.069
REMARK INTRA:                  -0.327
REMARK UNBOUND:                -0.424
REMARK  Name = 
REMARK  3 active torsions:
REMARK  status: ('A' for Active; 'I' for Inactive)
REMARK    1  A    between atoms: C_2  and  C_4
REMARK    2  A    between atoms: N_8  and  C_9
REMARK    3  A    between atoms: C_9  and  C_10
REMARK                            x       y       z     vdW  Elec       q    Type
REMARK                         _______ _______ _______ _____ _____    ______ ____
ROOT
ATOM      1  C   UNL     1      48.479   4.469  17.733  0.00  0.00    +0.000 A 
ATOM      2  C   UNL     1      48.730   5.614  16.985  0.00  0.00    +0.000 A 
ATOM      3  C   UNL     1      48.158   5.732  15.720  0.00  0.00    +0.000 A 
ATOM      4  C   UNL     1      47.369   4.700  15.213  0.00  0.00    +0.000 A 
ATOM      5  N   UNL     1      46.917   4.825  13.907  0.00  0.00    +0.000 N 
ATOM      6  N   UNL     1      47.126   3.585  15.928  0.00  0.00    +0.000 NA
ATOM      7  C   UNL     1      47.681   3.488  17.163  0.00  0.00    +0.000 A 
ATOM      8  H   UNL     1      46.384   5.673  13.759  0.00  0.00    +0.000 HD
ENDROOT
BRANCH   1  10
ATOM      9  N   UNL     1      48.347   3.433  19.926  0.00  0.00    +0.000 N 
ATOM     10  C   UNL     1      49.047   4.244  19.077  0.00  0.00    +0.000 C 
ATOM     11  O   UNL     1      50.117   4.738  19.412  0.00  0.00    +0.000 OA
ATOM     12  H   UNL     1      48.794   3.213  20.808  0.00  0.00    +0.000 HD
ATOM     13  H   UNL     1      47.601   2.828  19.618  0.00  0.00    +0.000 HD
ENDBRANCH   1  10
BRANCH   5  14
ATOM     14  C   UNL     1      46.361   3.659  13.249  0.00  0.00    +0.000 C 
BRANCH  14  15
ATOM     15  C   UNL     1      45.079   4.112  12.588  0.00  0.00    +0.000 A 
ATOM     16  C   UNL     1      44.039   4.695  13.327  0.00  0.00    +0.000 A 
ATOM     17  C   UNL     1      42.899   5.185  12.682  0.00  0.00    +0.000 A 
ATOM     18  C   UNL     1      42.794   5.104  11.293  0.00  0.00    +0.000 A 
ATOM     19  C   UNL     1      43.827   4.534  10.560  0.00  0.00    +0.000 A 
ATOM     20  F   UNL     1      43.732   4.471   9.225  0.00  0.00    +0.000 F 
ATOM     21  C   UNL     1      44.964   4.044  11.189  0.00  0.00    +0.000 A 
ENDBRANCH  14  15
ENDBRANCH   5  14
TORSDOF 3
ENDMDL
MODEL 8
REMARK VINA RESULT:    -5.811      3.989      6.256
REMARK INTER + INTRA:          -7.254
REMARK INTER:                  -6.958
REMARK INTRA:                  -0.296
REMARK UNBOUND:                -0.424
REMARK  Name = 
REMARK  3 active torsions:
REMARK  status: ('A' for Active; 'I' for Inactive)
REMARK    1  A    between atoms: C_2  and  C_4
REMARK    2  A    between atoms: N_8  and  C_9
REMARK    3  A    between atoms: C_9  and  C_10
REMARK                            x       y       z     vdW  Elec       q    Type
REMARK                         _______ _______ _______ _____ _____    ______ ____
ROOT
ATOM      1  C   UNL     1      44.558   4.085  11.729  0.00  0.00    +0.000 A 
ATOM      2  C   UNL     1      45.480   3.960  12.762  0.00  0.00    +0.000 A 
ATOM      3  C   UNL     1      46.014   5.114  13.331  0.00  0.00    +0.000 A 
ATOM      4  C   UNL     1      45.642   6.367  12.847  0.00  0.00    +0.000 A 
ATOM      5  N   UNL     1      46.288   7.475  13.377  0.00  0.00    +0.000 N 
ATOM      6  N   UNL     1      44.756   6.497  11.841  0.00  0.00    +0.000 NA
ATOM      7  C   UNL     1      44.234   5.365  11.304  0.00  0.00    +0.000 A 
ATOM      8  H   UNL     1      46.196   7.534  14.384  0.00  0.00    +0.000 HD
ENDROOT
BRANCH   1  10
ATOM      9  N   UNL     1      44.570   2.443   9.939  0.00  0.00    +0.000 N 
ATOM     10  C   UNL     1      43.943   2.925  11.052  0.00  0.00    +0.000 C 
ATOM     11  O   UNL     1      42.928   2.394  11.487  0.00  0.00    +0.000 OA
ATOM     12  H   UNL     1      44.190   1.592   9.542  0.00  0.00    +0.000 HD
ATOM     13  H   UNL     1      45.515   2.692   9.688  0.00  0.00    +0.000 HD
ENDBRANCH   1  10
BRANCH   5  14
ATOM     14  C   UNL     1      46.156   8.749  12.699  0.00  0.00    +0.000 C 
BRANCH  14  15
ATOM     15  C   UNL     1      47.523   9.083  12.147  0.00  0.00    +0.000 A 
ATOM     16  C   UNL     1      47.922  10.410  11.930  0.00  0.00    +0.000 A 
ATOM     17  C   UNL     1      49.220  10.698  11.499  0.00  0.00    +0.000 A 
ATOM     18  C   UNL     1      50.133   9.663  11.291  0.00  0.00    +0.000 A 
ATOM     19  C   UNL     1      49.741   8.350  11.514  0.00  0.00    +0.000 A 
ATOM     20  F   UNL     1      50.623   7.358  11.330  0.00  0.00    +0.000 F 
ATOM     21  C   UNL     1      48.453   8.051  11.941  0.00  0.00    +0.000 A 
ENDBRANCH  14  15
ENDBRANCH   5  14
TORSDOF 3
ENDMDL
MODEL 9
REMARK VINA RESULT:    -5.621      3.473      4.231
REMARK INTER + INTRA:          -7.031
REMARK INTER:                  -6.763
REMARK INTRA:                  -0.268
REMARK UNBOUND:                -0.424
REMARK  Name = 
REMARK  3 active torsions:
REMARK  status: ('A' for Active; 'I' for Inactive)
REMARK    1  A    between atoms: C_2  and  C_4
REMARK    2  A    between atoms: N_8  and  C_9
REMARK    3  A    between atoms: C_9  and  C_10
REMARK                            x       y       z     vdW  Elec       q    Type
REMARK                         _______ _______ _______ _____ _____    ______ ____
ROOT
ATOM      1  C   UNL     1      44.556   9.196  11.708  0.00  0.00    +0.000 A 
ATOM      2  C   UNL     1      45.485   8.574  12.533  0.00  0.00    +0.000 A 
ATOM      3  C   UNL     1      45.685   7.201  12.408  0.00  0.00    +0.000 A 
ATOM      4  C   UNL     1      44.941   6.470  11.482  0.00  0.00    +0.000 A 
ATOM      5  N   UNL     1      45.104   5.091  11.478  0.00  0.00    +0.000 N 
ATOM      6  N   UNL     1      44.034   7.063  10.684  0.00  0.00    +0.000 NA
ATOM      7  C   UNL     1      43.857   8.403  10.810  0.00  0.00    +0.000 A 
ATOM      8  H   UNL     1      46.067   4.814  11.333  0.00  0.00    +0.000 HD
ENDROOT
BRANCH   1  10
ATOM      9  N   UNL     1      45.187  11.493  11.234  0.00  0.00    +0.000 N 
ATOM     10  C   UNL     1      44.262  10.642  11.771  0.00  0.00    +0.000 C 
ATOM     11  O   UNL     1      43.219  11.064  12.256  0.00  0.00    +0.000 OA
ATOM     12  H   UNL     1      44.929  12.473  11.200  0.00  0.00    +0.000 HD
ATOM     13  H   UNL     1      45.930  11.186  10.625  0.00  0.00    +0.000 HD
ENDBRANCH   1  10
BRANCH   5  14
ATOM     14  C   UNL     1      44.143   4.279  10.758  0.00  0.00    +0.000 C 
BRANCH  14  15
ATOM     15  C   UNL     1      44.877   3.703   9.569  0.00  0.00    +0.000 A 
ATOM     16  C   UNL     1      45.526   4.529   8.638  0.00  0.00    +0.000 A 
ATOM     17  C   UNL     1      46.270   3.971   7.594  0.00  0.00    +0.000 A 
ATOM     18  C   UNL     1      46.379   2.585   7.477  0.00  0.00    +0.000 A 
ATOM     19  C   UNL     1      45.744   1.767   8.403  0.00  0.00    +0.000 A 
ATOM     20  F   UNL     1      45.862   0.437   8.300  0.00  0.00    +0.000 F 
ATOM     21  C   UNL     1      45.001   2.310   9.444  0.00  0.00    +0.000 A 
ENDBRANCH  14  15
ENDBRANCH   5  14
TORSDOF 3
ENDMDL
