MODEL 1
REMARK VINA RESULT:    -7.939      0.000      0.000
REMARK INTER + INTRA:         -11.556
REMARK INTER:                 -10.724
REMARK INTRA:                  -0.832
REMARK UNBOUND:                -0.832
REMARK  Name = 
REMARK  6 active torsions:
REMARK  status: ('A' for Active; 'I' for Inactive)
REMARK    1  A    between atoms: C_2  and  C_25
REMARK    2  A    between atoms: N_3  and  C_4
REMARK    3  A    between atoms: C_4  and  C_5
REMARK    4  A    between atoms: C_8  and  C_9
REMARK    5  A    between atoms: C_9  and  N_10
REMARK    6  A    between atoms: C_11  and  C_13
REMARK                            x       y       z     vdW  Elec       q    Type
REMARK                         _______ _______ _______ _____ _____    ______ ____
ROOT
ATOM      1  C   UNL     1      44.682   5.285  11.266  0.00  0.00    +0.000 A 
ATOM      2  C   UNL     1      45.728   4.799  12.062  0.00  0.00    +0.000 A 
ATOM      3  C   UNL     1      46.536   5.680  12.788  0.00  0.00    +0.000 A 
ATOM      4  C   UNL     1      46.300   7.061  12.747  0.00  0.00    +0.000 A 
ATOM      5  C   UNL     1      45.256   7.544  11.948  0.00  0.00    +0.000 A 
ATOM      6  C   UNL     1      44.449   6.665  11.223  0.00  0.00    +0.000 A 
ENDROOT
BRANCH   1   7
ATOM      7  C   UNL     1      43.831   4.340  10.459  0.00  0.00    +0.000 C 
BRANCH   7  10
ATOM      8  O   UNL     1      45.382   4.690   8.171  0.00  0.00    +0.000 OA
ATOM      9  C   UNL     1      45.336   3.575   8.686  0.00  0.00    +0.000 C 
ATOM     10  N   UNL     1      44.600   3.307   9.816  0.00  0.00    +0.000 N 
ATOM     11  H   UNL     1      44.636   2.363  10.190  0.00  0.00    +0.000 HD
BRANCH   9  12
ATOM     12  C   UNL     1      46.058   2.436   8.154  0.00  0.00    +0.000 A 
ATOM     13  N   UNL     1      45.850   1.171   8.483  0.00  0.00    +0.000 NA
ATOM     14  C   UNL     1      46.742   0.449   7.728  0.00  0.00    +0.000 A 
ATOM     15  C   UNL     1      47.511   1.278   6.946  0.00  0.00    +0.000 A 
ATOM     16  N   UNL     1      47.064   2.538   7.225  0.00  0.00    +0.000 N 
ATOM     17  H   UNL     1      47.393   3.412   6.834  0.00  0.00    +0.000 HD
ENDBRANCH   9  12
ENDBRANCH   7  10
ENDBRANCH   1   7
BRANCH   4  18
ATOM     18  C   UNL     1      47.162   8.018  13.526  0.00  0.00    +0.000 C 
BRANCH  18  19
ATOM     19  N   UNL     1      47.660   7.419  14.739  0.00  0.00    +0.000 N 
ATOM     20  C   UNL     1      48.949   6.973  14.868  0.00  0.00    +0.000 C 
ATOM     21  O   UNL     1      49.767   7.054  13.955  0.00  0.00    +0.000 OA
ATOM     22  H   UNL     1      46.969   7.166  15.437  0.00  0.00    +0.000 HD
BRANCH  20  23
ATOM     23  C   UNL     1      49.333   6.452  16.188  0.00  0.00    +0.000 A 
ATOM     24  C   UNL     1      50.311   7.109  16.923  0.00  0.00    +0.000 A 
ATOM     25  S   UNL     1      50.610   6.411  18.449  0.00  0.00    +0.000 S 
ATOM     26  C   UNL     1      49.475   5.176  18.166  0.00  0.00    +0.000 A 
ATOM     27  N   UNL     1      49.257   4.204  19.092  0.00  0.00    +0.000 NA
ATOM     28  C   UNL     1      48.398   3.309  18.735  0.00  0.00    +0.000 A 
ATOM     29  N   UNL     1      47.728   3.305  17.539  0.00  0.00    +0.000 N 
ATOM     30  C   UNL     1      47.868   4.300  16.602  0.00  0.00    +0.000 A 
ATOM     31  O   UNL     1      47.170   4.323  15.593  0.00  0.00    +0.000 OA
ATOM     32  C   UNL     1      48.857   5.309  16.934  0.00  0.00    +0.000 A 
ATOM     33  H   UNL     1      47.048   2.588  17.331  0.00  0.00    +0.000 HD
ENDBRANCH  20  23
ENDBRANCH  18  19
ENDBRANCH   4  18
TORSDOF 6
ENDMDL
MODEL 2
REMARK VINA RESULT:    -7.313      1.917      2.523
REMARK INTER + INTRA:         -10.710
REMARK INTER:                  -9.769
REMARK INTRA:                  -0.940
REMARK UNBOUND:                -0.832
REMARK  Name = 
REMARK  6 active torsions:
REMARK  status: ('A' for Active; 'I' for Inactive)
REMARK    1  A    between atoms: C_2  and  C_25
REMARK    2  A    between atoms: N_3  and  C_4
REMARK    3  A    between atoms: C_4  and  C_5
REMARK    4  A    between atoms: C_8  and  C_9
REMARK    5  A    between atoms: C_9  and  N_10
REMARK    6  A    between atoms: C_11  and  C_13
REMARK                            x       y       z     vdW  Elec       q    Type
REMARK                         _______ _______ _______ _____ _____    ______ ____
ROOT
ATOM      1  C   UNL     1      45.190   5.386  11.420  0.00  0.00    +0.000 A 
ATOM      2  C   UNL     1      45.220   6.781  11.309  0.00  0.00    +0.000 A 
ATOM      3  C   UNL     1      46.092   7.538  12.100  0.00  0.00    +0.000 A 
ATOM      4  C   UNL     1      46.961   6.910  13.002  0.00  0.00    +0.000 A 
ATOM      5  C   UNL     1      46.926   5.514  13.114  0.00  0.00    +0.000 A 
ATOM      6  C   UNL     1      46.056   4.758  12.324  0.00  0.00    +0.000 A 
ENDROOT
BRANCH   1   7
ATOM      7  C   UNL     1      44.231   4.572  10.592  0.00  0.00    +0.000 C 
BRANCH   7  10
ATOM      8  O   UNL     1      45.686   4.925   8.241  0.00  0.00    +0.000 OA
ATOM      9  C   UNL     1      45.578   3.791   8.702  0.00  0.00    +0.000 C 
ATOM     10  N   UNL     1      44.882   3.520   9.857  0.00  0.00    +0.000 N 
ATOM     11  H   UNL     1      44.863   2.556  10.181  0.00  0.00    +0.000 HD
BRANCH   9  12
ATOM     12  C   UNL     1      46.180   2.631   8.076  0.00  0.00    +0.000 A 
ATOM     13  N   UNL     1      47.073   2.659   7.099  0.00  0.00    +0.000 NA
ATOM     14  C   UNL     1      47.367   1.344   6.838  0.00  0.00    +0.000 A 
ATOM     15  C   UNL     1      46.638   0.505   7.647  0.00  0.00    +0.000 A 
ATOM     16  N   UNL     1      45.889   1.336   8.431  0.00  0.00    +0.000 N 
ATOM     17  H   UNL     1      45.230   1.077   9.153  0.00  0.00    +0.000 HD
ENDBRANCH   9  12
ENDBRANCH   7  10
ENDBRANCH   1   7
BRANCH   4  18
ATOM     18  C   UNL     1      47.904   7.713  13.858  0.00  0.00    +0.000 C 
BRANCH  18  19
ATOM     19  N   UNL     1      47.934   7.229  15.215  0.00  0.00    +0.000 N 
ATOM     20  C   UNL     1      49.077   6.765  15.811  0.00  0.00    +0.000 C 
ATOM     21  O   UNL     1      50.157   6.733  15.225  0.00  0.00    +0.000 OA
ATOM     22  H   UNL     1      47.036   7.065  15.658  0.00  0.00    +0.000 HD
BRANCH  20  23
ATOM     23  C   UNL     1      48.967   6.372  17.223  0.00  0.00    +0.000 A 
ATOM     24  C   UNL     1      49.405   5.115  17.617  0.00  0.00    +0.000 A 
ATOM     25  S   UNL     1      49.254   4.826  19.290  0.00  0.00    +0.000 S 
ATOM     26  C   UNL     1      48.554   6.356  19.545  0.00  0.00    +0.000 A 
ATOM     27  N   UNL     1      48.157   6.743  20.786  0.00  0.00    +0.000 NA
ATOM     28  C   UNL     1      47.608   7.911  20.832  0.00  0.00    +0.000 A 
ATOM     29  N   UNL     1      47.433   8.732  19.749  0.00  0.00    +0.000 N 
ATOM     30  C   UNL     1      47.877   8.411  18.489  0.00  0.00    +0.000 A 
ATOM     31  O   UNL     1      47.803   9.217  17.566  0.00  0.00    +0.000 OA
ATOM     32  C   UNL     1      48.461   7.088  18.373  0.00  0.00    +0.000 A 
ATOM     33  H   UNL     1      47.020   9.647  19.856  0.00  0.00    +0.000 HD
ENDBRANCH  20  23
ENDBRANCH  18  19
ENDBRANCH   4  18
TORSDOF 6
ENDMDL
MODEL 3
REMARK VINA RESULT:    -7.142      1.739      2.048
REMARK INTER + INTRA:         -10.479
REMARK INTER:                  -9.597
REMARK INTRA:                  -0.882
REMARK UNBOUND:                -0.832
REMARK  Name = 
REMARK  6 active torsions:
REMARK  status: ('A' for Active; 'I' for Inactive)
REMARK    1  A    between atoms: C_2  and  C_25
REMARK    2  A    between atoms: N_3  and  C_4
REMARK    3  A    between atoms: C_4  and  C_5
REMARK    4  A    between atoms: C_8  and  C_9
REMARK    5  A    between atoms: C_9  and  N_10
REMARK    6  A    between atoms: C_11  and  C_13
REMARK                            x       y       z     vdW  Elec       q    Type
REMARK                         _______ _______ _______ _____ _____    ______ ____
ROOT
ATOM      1  C   UNL     1      45.161   6.363  11.439  0.00  0.00    +0.000 A 
ATOM      2  C   UNL     1      44.844   7.717  11.603  0.00  0.00    +0.000 A 
ATOM      3  C   UNL     1      45.629   8.536  12.422  0.00  0.00    +0.000 A 
ATOM      4  C   UNL     1      46.755   8.019  13.076  0.00  0.00    +0.000 A 
ATOM      5  C   UNL     1      47.067   6.663  12.914  0.00  0.00    +0.000 A 
ATOM      6  C   UNL     1      46.284   5.845  12.096  0.00  0.00    +0.000 A 
ENDROOT
BRANCH   1   7
ATOM      7  C   UNL     1      44.299   5.473  10.582  0.00  0.00    +0.000 C 
BRANCH   7  10
ATOM      8  O   UNL     1      43.863   2.760  10.117  0.00  0.00    +0.000 OA
ATOM      9  C   UNL     1      44.776   3.321   9.517  0.00  0.00    +0.000 C 
ATOM     10  N   UNL     1      45.066   4.655   9.679  0.00  0.00    +0.000 N 
ATOM     11  H   UNL     1      45.824   5.044   9.125  0.00  0.00    +0.000 HD
BRANCH   9  12
ATOM     12  C   UNL     1      45.633   2.630   8.574  0.00  0.00    +0.000 A 
ATOM     13  N   UNL     1      45.943   1.343   8.614  0.00  0.00    +0.000 NA
ATOM     14  C   UNL     1      46.756   1.132   7.527  0.00  0.00    +0.000 A 
ATOM     15  C   UNL     1      46.959   2.298   6.828  0.00  0.00    +0.000 A 
ATOM     16  N   UNL     1      46.238   3.242   7.503  0.00  0.00    +0.000 N 
ATOM     17  H   UNL     1      46.144   4.225   7.280  0.00  0.00    +0.000 HD
ENDBRANCH   9  12
ENDBRANCH   7  10
ENDBRANCH   1   7
BRANCH   4  18
ATOM     18  C   UNL     1      47.607   8.890  13.959  0.00  0.00    +0.000 C 
BRANCH  18  19
ATOM     19  N   UNL     1      47.788   8.308  15.265  0.00  0.00    +0.000 N 
ATOM     20  C   UNL     1      48.499   8.926  16.260  0.00  0.00    +0.000 C 
ATOM     21  O   UNL     1      49.030  10.023  16.103  0.00  0.00    +0.000 OA
ATOM     22  H   UNL     1      47.529   7.332  15.366  0.00  0.00    +0.000 HD
BRANCH  20  23
ATOM     23  C   UNL     1      48.536   8.243  17.561  0.00  0.00    +0.000 A 
ATOM     24  C   UNL     1      48.361   8.981  18.725  0.00  0.00    +0.000 A 
ATOM     25  S   UNL     1      48.383   8.041  20.146  0.00  0.00    +0.000 S 
ATOM     26  C   UNL     1      48.673   6.616  19.263  0.00  0.00    +0.000 A 
ATOM     27  N   UNL     1      48.825   5.422  19.896  0.00  0.00    +0.000 NA
ATOM     28  C   UNL     1      49.077   4.429  19.110  0.00  0.00    +0.000 A 
ATOM     29  N   UNL     1      49.179   4.521  17.747  0.00  0.00    +0.000 N 
ATOM     30  C   UNL     1      48.969   5.692  17.060  0.00  0.00    +0.000 A 
ATOM     31  O   UNL     1      48.957   5.713  15.833  0.00  0.00    +0.000 OA
ATOM     32  C   UNL     1      48.727   6.850  17.899  0.00  0.00    +0.000 A 
ATOM     33  H   UNL     1      49.352   3.699  17.186  0.00  0.00    +0.000 HD
ENDBRANCH  20  23
ENDBRANCH  18  19
ENDBRANCH   4  18
TORSDOF 6
ENDMDL
MODEL 4
REMARK VINA RESULT:    -7.058      2.244      3.504
REMARK INTER + INTRA:         -10.365
REMARK INTER:                  -9.513
REMARK INTRA:                  -0.853
REMARK UNBOUND:                -0.832
REMARK  Name = 
REMARK  6 active torsions:
REMARK  status: ('A' for Active; 'I' for Inactive)
REMARK    1  A    between atoms: C_2  and  C_25
REMARK    2  A    between atoms: N_3  and  C_4
REMARK    3  A    between atoms: C_4  and  C_5
REMARK    4  A    between atoms: C_8  and  C_9
REMARK    5  A    between atoms: C_9  and  N_10
REMARK    6  A    between atoms: C_11  and  C_13
REMARK                            x       y       z     vdW  Elec       q    Type
REMARK                         _______ _______ _______ _____ _____    ______ ____
ROOT
ATOM      1  C   UNL     1      45.759   5.443  11.706  0.00  0.00    +0.000 A 
ATOM      2  C   UNL     1      45.227   4.356  12.410  0.00  0.00    +0.000 A 
ATOM      3  C   UNL     1      45.762   3.982  13.647  0.00  0.00    +0.000 A 
ATOM      4  C   UNL     1      46.826   4.699  14.210  0.00  0.00    +0.000 A 
ATOM      5  C   UNL     1      47.359   5.783  13.501  0.00  0.00    +0.000 A 
ATOM      6  C   UNL     1      46.825   6.159  12.266  0.00  0.00    +0.000 A 
ENDROOT
BRANCH   1   7
ATOM      7  C   UNL     1      45.204   5.829  10.360  0.00  0.00    +0.000 C 
BRANCH   7  10
ATOM      8  O   UNL     1      44.282   3.412   9.324  0.00  0.00    +0.000 OA
ATOM      9  C   UNL     1      45.289   3.917   8.833  0.00  0.00    +0.000 C 
ATOM     10  N   UNL     1      45.816   5.108   9.276  0.00  0.00    +0.000 N 
ATOM     11  H   UNL     1      46.638   5.466   8.797  0.00  0.00    +0.000 HD
BRANCH   9  12
ATOM     12  C   UNL     1      46.013   3.310   7.735  0.00  0.00    +0.000 A 
ATOM     13  N   UNL     1      46.361   3.918   6.611  0.00  0.00    +0.000 NA
ATOM     14  C   UNL     1      47.036   2.971   5.880  0.00  0.00    +0.000 A 
ATOM     15  C   UNL     1      47.088   1.773   6.552  0.00  0.00    +0.000 A 
ATOM     16  N   UNL     1      46.436   2.002   7.730  0.00  0.00    +0.000 N 
ATOM     17  H   UNL     1      46.276   1.349   8.486  0.00  0.00    +0.000 HD
ENDBRANCH   9  12
ENDBRANCH   7  10
ENDBRANCH   1   7
BRANCH   4  18
ATOM     18  C   UNL     1      47.410   4.306  15.540  0.00  0.00    +0.000 C 
BRANCH  18  19
ATOM     19  N   UNL     1      47.535   5.440  16.422  0.00  0.00    +0.000 N 
ATOM     20  C   UNL     1      48.710   5.767  17.046  0.00  0.00    +0.000 C 
ATOM     21  O   UNL     1      49.738   5.111  16.895  0.00  0.00    +0.000 OA
ATOM     22  H   UNL     1      46.671   5.883  16.715  0.00  0.00    +0.000 HD
BRANCH  20  23
ATOM     23  C   UNL     1      48.702   6.992  17.857  0.00  0.00    +0.000 A 
ATOM     24  C   UNL     1      48.845   6.899  19.236  0.00  0.00    +0.000 A 
ATOM     25  S   UNL     1      48.862   8.407  20.029  0.00  0.00    +0.000 S 
ATOM     26  C   UNL     1      48.634   9.241  18.564  0.00  0.00    +0.000 A 
ATOM     27  N   UNL     1      48.533  10.597  18.542  0.00  0.00    +0.000 NA
ATOM     28  C   UNL     1      48.324  11.098  17.370  0.00  0.00    +0.000 A 
ATOM     29  N   UNL     1      48.219  10.365  16.217  0.00  0.00    +0.000 N 
ATOM     30  C   UNL     1      48.378   9.001  16.183  0.00  0.00    +0.000 A 
ATOM     31  O   UNL     1      48.389   8.392  15.117  0.00  0.00    +0.000 OA
ATOM     32  C   UNL     1      48.571   8.381  17.480  0.00  0.00    +0.000 A 
ATOM     33  H   UNL     1      48.080  10.821  15.327  0.00  0.00    +0.000 HD
ENDBRANCH  20  23
ENDBRANCH  18  19
ENDBRANCH   4  18
TORSDOF 6
ENDMDL
MODEL 5
REMARK VINA RESULT:    -7.043      1.647      2.527
REMARK INTER + INTRA:         -10.345
REMARK INTER:                  -9.657
REMARK INTRA:                  -0.688
REMARK UNBOUND:                -0.832
REMARK  Name = 
REMARK  6 active torsions:
REMARK  status: ('A' for Active; 'I' for Inactive)
REMARK    1  A    between atoms: C_2  and  C_25
REMARK    2  A    between atoms: N_3  and  C_4
REMARK    3  A    between atoms: C_4  and  C_5
REMARK    4  A    between atoms: C_8  and  C_9
REMARK    5  A    between atoms: C_9  and  N_10
REMARK    6  A    between atoms: C_11  and  C_13
REMARK                            x       y       z     vdW  Elec       q    Type
REMARK                         _______ _______ _______ _____ _____    ______ ____
ROOT
ATOM      1  C   UNL     1      44.934   5.372  11.189  0.00  0.00    +0.000 A 
ATOM      2  C   UNL     1      45.043   6.766  11.110  0.00  0.00    +0.000 A 
ATOM      3  C   UNL     1      45.856   7.466  12.008  0.00  0.00    +0.000 A 
ATOM      4  C   UNL     1      46.588   6.783  12.987  0.00  0.00    +0.000 A 
ATOM      5  C   UNL     1      46.475   5.388  13.067  0.00  0.00    +0.000 A 
ATOM      6  C   UNL     1      45.664   4.689  12.170  0.00  0.00    +0.000 A 
ENDROOT
BRANCH   1   7
ATOM      7  C   UNL     1      44.036   4.619  10.243  0.00  0.00    +0.000 C 
BRANCH   7  10
ATOM      8  O   UNL     1      45.857   4.976   8.164  0.00  0.00    +0.000 OA
ATOM      9  C   UNL     1      45.601   3.833   8.532  0.00  0.00    +0.000 C 
ATOM     10  N   UNL     1      44.718   3.558   9.550  0.00  0.00    +0.000 N 
ATOM     11  H   UNL     1      44.583   2.584   9.807  0.00  0.00    +0.000 HD
BRANCH   9  12
ATOM     12  C   UNL     1      46.211   2.662   7.933  0.00  0.00    +0.000 A 
ATOM     13  N   UNL     1      47.022   2.667   6.886  0.00  0.00    +0.000 NA
ATOM     14  C   UNL     1      47.362   1.351   6.685  0.00  0.00    +0.000 A 
ATOM     15  C   UNL     1      46.743   0.536   7.603  0.00  0.00    +0.000 A 
ATOM     16  N   UNL     1      46.017   1.382   8.391  0.00  0.00    +0.000 N 
ATOM     17  H   UNL     1      45.431   1.142   9.180  0.00  0.00    +0.000 HD
ENDBRANCH   9  12
ENDBRANCH   7  10
ENDBRANCH   1   7
BRANCH   4  18
ATOM     18  C   UNL     1      47.467   7.525  13.958  0.00  0.00    +0.000 C 
BRANCH  18  19
ATOM     19  N   UNL     1      48.132   6.627  14.868  0.00  0.00    +0.000 N 
ATOM     20  C   UNL     1      48.708   7.048  16.038  0.00  0.00    +0.000 C 
ATOM     21  O   UNL     1      48.695   8.226  16.388  0.00  0.00    +0.000 OA
ATOM     22  H   UNL     1      48.325   5.692  14.523  0.00  0.00    +0.000 HD
BRANCH  20  23
ATOM     23  C   UNL     1      49.285   6.006  16.898  0.00  0.00    +0.000 A 
ATOM     24  C   UNL     1      48.442   5.200  17.653  0.00  0.00    +0.000 A 
ATOM     25  S   UNL     1      49.257   4.011  18.561  0.00  0.00    +0.000 S 
ATOM     26  C   UNL     1      50.773   4.557  18.014  0.00  0.00    +0.000 A 
ATOM     27  N   UNL     1      51.922   3.969  18.443  0.00  0.00    +0.000 NA
ATOM     28  C   UNL     1      53.001   4.505  17.980  0.00  0.00    +0.000 A 
ATOM     29  N   UNL     1      53.035   5.569  17.116  0.00  0.00    +0.000 N 
ATOM     30  C   UNL     1      51.900   6.152  16.607  0.00  0.00    +0.000 A 
ATOM     31  O   UNL     1      51.968   7.028  15.750  0.00  0.00    +0.000 OA
ATOM     32  C   UNL     1      50.658   5.617  17.130  0.00  0.00    +0.000 A 
ATOM     33  H   UNL     1      53.914   5.925  16.770  0.00  0.00    +0.000 HD
ENDBRANCH  20  23
ENDBRANCH  18  19
ENDBRANCH   4  18
TORSDOF 6
ENDMDL
MODEL 6
REMARK VINA RESULT:    -6.934      3.776      8.261
REMARK INTER + INTRA:         -10.198
REMARK INTER:                  -9.234
REMARK INTRA:                  -0.964
REMARK UNBOUND:                -0.832
REMARK  Name = 
REMARK  6 active torsions:
REMARK  status: ('A' for Active; 'I' for Inactive)
REMARK    1  A    between atoms: C_2  and  C_25
REMARK    2  A    between atoms: N_3  and  C_4
REMARK    3  A    between atoms: C_4  and  C_5
REMARK    4  A    between atoms: C_8  and  C_9
REMARK    5  A    between atoms: C_9  and  N_10
REMARK    6  A    between atoms: C_11  and  C_13
REMARK                            x       y       z     vdW  Elec       q    Type
REMARK                         _______ _______ _______ _____ _____    ______ ____
ROOT
ATOM      1  C   UNL     1      50.355   4.577  17.838  0.00  0.00    +0.000 A 
ATOM      2  C   UNL     1      51.295   5.491  17.346  0.00  0.00    +0.000 A 
ATOM      3  C   UNL     1      50.901   6.524  16.489  0.00  0.00    +0.000 A 
ATOM      4  C   UNL     1      49.557   6.672  16.124  0.00  0.00    +0.000 A 
ATOM      5  C   UNL     1      48.618   5.755  16.614  0.00  0.00    +0.000 A 
ATOM      6  C   UNL     1      49.011   4.723  17.470  0.00  0.00    +0.000 A 
ENDROOT
BRANCH   1   7
ATOM      7  C   UNL     1      50.782   3.446  18.736  0.00  0.00    +0.000 C 
BRANCH   7  10
ATOM      8  O   UNL     1      50.969   0.999  17.417  0.00  0.00    +0.000 OA
ATOM      9  C   UNL     1      52.003   1.614  17.665  0.00  0.00    +0.000 C 
ATOM     10  N   UNL     1      52.011   2.829  18.310  0.00  0.00    +0.000 N 
ATOM     11  H   UNL     1      52.909   3.281  18.455  0.00  0.00    +0.000 HD
BRANCH   9  12
ATOM     12  C   UNL     1      53.315   1.121  17.297  0.00  0.00    +0.000 A 
ATOM     13  N   UNL     1      54.450   1.794  17.408  0.00  0.00    +0.000 NA
ATOM     14  C   UNL     1      55.426   0.937  16.960  0.00  0.00    +0.000 A 
ATOM     15  C   UNL     1      54.883  -0.260  16.557  0.00  0.00    +0.000 A 
ATOM     16  N   UNL     1      53.541  -0.131  16.778  0.00  0.00    +0.000 N 
ATOM     17  H   UNL     1      52.817  -0.815  16.604  0.00  0.00    +0.000 HD
ENDBRANCH   9  12
ENDBRANCH   7  10
ENDBRANCH   1   7
BRANCH   4  18
ATOM     18  C   UNL     1      49.120   7.780  15.203  0.00  0.00    +0.000 C 
BRANCH  18  19
ATOM     19  N   UNL     1      47.930   7.426  14.472  0.00  0.00    +0.000 N 
ATOM     20  C   UNL     1      47.965   6.734  13.290  0.00  0.00    +0.000 C 
ATOM     21  O   UNL     1      49.019   6.369  12.774  0.00  0.00    +0.000 OA
ATOM     22  H   UNL     1      47.067   7.872  14.766  0.00  0.00    +0.000 HD
BRANCH  20  23
ATOM     23  C   UNL     1      46.667   6.382  12.697  0.00  0.00    +0.000 A 
ATOM     24  C   UNL     1      45.896   7.373  12.104  0.00  0.00    +0.000 A 
ATOM     25  S   UNL     1      44.442   6.800  11.424  0.00  0.00    +0.000 S 
ATOM     26  C   UNL     1      44.767   5.210  11.937  0.00  0.00    +0.000 A 
ATOM     27  N   UNL     1      43.885   4.205  11.690  0.00  0.00    +0.000 NA
ATOM     28  C   UNL     1      44.237   3.057  12.166  0.00  0.00    +0.000 A 
ATOM     29  N   UNL     1      45.398   2.823  12.856  0.00  0.00    +0.000 N 
ATOM     30  C   UNL     1      46.347   3.792  13.071  0.00  0.00    +0.000 A 
ATOM     31  O   UNL     1      47.423   3.520  13.594  0.00  0.00    +0.000 OA
ATOM     32  C   UNL     1      45.981   5.113  12.596  0.00  0.00    +0.000 A 
ATOM     33  H   UNL     1      45.627   1.894  13.180  0.00  0.00    +0.000 HD
ENDBRANCH  20  23
ENDBRANCH  18  19
ENDBRANCH   4  18
TORSDOF 6
ENDMDL
MODEL 7
REMARK VINA RESULT:    -6.718      3.346      5.134
REMARK INTER + INTRA:          -9.906
REMARK INTER:                  -9.198
REMARK INTRA:                  -0.708
REMARK UNBOUND:                -0.832
REMARK  Name = 
REMARK  6 active torsions:
REMARK  status: ('A' for Active; 'I' for Inactive)
REMARK    1  A    between atoms: C_2  and  C_25
REMARK    2  A    between atoms: N_3  and  C_4
REMARK    3  A    between atoms: C_4  and  C_5
REMARK    4  A    between atoms: C_8  and  C_9
REMARK    5  A    between atoms: C_9  and  N_10
REMARK    6  A    between atoms: C_11  and  C_13
REMARK                            x       y       z     vdW  Elec       q    Type
REMARK                         _______ _______ _______ _____ _____    ______ ____
ROOT
ATOM      1  C   UNL     1      47.503   5.729  14.424  0.00  0.00    +0.000 A 
ATOM      2  C   UNL     1      46.905   4.474  14.593  0.00  0.00    +0.000 A 
ATOM      3  C   UNL     1      47.150   3.721  15.746  0.00  0.00    +0.000 A 
ATOM      4  C   UNL     1      47.981   4.217  16.758  0.00  0.00    +0.000 A 
ATOM      5  C   UNL     1      48.581   5.472  16.586  0.00  0.00    +0.000 A 
ATOM      6  C   UNL     1      48.337   6.225  15.435  0.00  0.00    +0.000 A 
ENDROOT
BRANCH   1   7
ATOM      7  C   UNL     1      47.266   6.529  13.170  0.00  0.00    +0.000 C 
BRANCH   7  10
ATOM      8  O   UNL     1      44.594   6.284  12.416  0.00  0.00    +0.000 OA
ATOM      9  C   UNL     1      45.444   5.664  11.781  0.00  0.00    +0.000 C 
ATOM     10  N   UNL     1      46.786   5.724  12.077  0.00  0.00    +0.000 N 
ATOM     11  H   UNL     1      47.423   5.197  11.486  0.00  0.00    +0.000 HD
BRANCH   9  12
ATOM     12  C   UNL     1      45.114   4.814  10.655  0.00  0.00    +0.000 A 
ATOM     13  N   UNL     1      44.588   3.602  10.732  0.00  0.00    +0.000 NA
ATOM     14  C   UNL     1      44.434   3.189   9.431  0.00  0.00    +0.000 A 
ATOM     15  C   UNL     1      44.885   4.146   8.553  0.00  0.00    +0.000 A 
ATOM     16  N   UNL     1      45.312   5.175   9.344  0.00  0.00    +0.000 N 
ATOM     17  H   UNL     1      45.707   6.059   9.049  0.00  0.00    +0.000 HD
ENDBRANCH   9  12
ENDBRANCH   7  10
ENDBRANCH   1   7
BRANCH   4  18
ATOM     18  C   UNL     1      48.250   3.416  18.004  0.00  0.00    +0.000 C 
BRANCH  18  19
ATOM     19  N   UNL     1      49.653   3.120  18.153  0.00  0.00    +0.000 N 
ATOM     20  C   UNL     1      50.326   2.280  17.305  0.00  0.00    +0.000 C 
ATOM     21  O   UNL     1      49.776   1.723  16.359  0.00  0.00    +0.000 OA
ATOM     22  H   UNL     1      50.087   3.408  19.023  0.00  0.00    +0.000 HD
BRANCH  20  23
ATOM     23  C   UNL     1      51.770   2.132  17.540  0.00  0.00    +0.000 A 
ATOM     24  C   UNL     1      52.321   0.860  17.623  0.00  0.00    +0.000 A 
ATOM     25  S   UNL     1      54.009   0.855  17.850  0.00  0.00    +0.000 S 
ATOM     26  C   UNL     1      54.063   2.555  17.892  0.00  0.00    +0.000 A 
ATOM     27  N   UNL     1      55.237   3.211  18.088  0.00  0.00    +0.000 NA
ATOM     28  C   UNL     1      55.130   4.496  18.136  0.00  0.00    +0.000 A 
ATOM     29  N   UNL     1      53.954   5.186  17.992  0.00  0.00    +0.000 N 
ATOM     30  C   UNL     1      52.756   4.569  17.728  0.00  0.00    +0.000 A 
ATOM     31  O   UNL     1      51.744   5.225  17.494  0.00  0.00    +0.000 OA
ATOM     32  C   UNL     1      52.812   3.120  17.709  0.00  0.00    +0.000 A 
ATOM     33  H   UNL     1      53.942   6.195  18.013  0.00  0.00    +0.000 HD
ENDBRANCH  20  23
ENDBRANCH  18  19
ENDBRANCH   4  18
TORSDOF 6
ENDMDL
MODEL 8
REMARK VINA RESULT:    -6.650      4.630      7.664
REMARK INTER + INTRA:          -9.815
REMARK INTER:                  -8.901
REMARK INTRA:                  -0.914
REMARK UNBOUND:                -0.832
REMARK  Name = 
REMARK  6 active torsions:
REMARK  status: ('A' for Active; 'I' for Inactive)
REMARK    1  A    between atoms: C_2  and  C_25
REMARK    2  A    between atoms: N_3  and  C_4
REMARK    3  A    between atoms: C_4  and  C_5
REMARK    4  A    between atoms: C_8  and  C_9
REMARK    5  A    between atoms: C_9  and  N_10
REMARK    6  A    between atoms: C_11  and  C_13
REMARK                            x       y       z     vdW  Elec       q    Type
REMARK                         _______ _______ _______ _____ _____    ______ ____
ROOT
ATOM      1  C   UNL     1      50.491   8.744  11.373  0.00  0.00    +0.000 A 
ATOM      2  C   UNL     1      49.596   9.821  11.407  0.00  0.00    +0.000 A 
ATOM      3  C   UNL     1      48.283   9.639  11.855  0.00  0.00    +0.000 A 
ATOM      4  C   UNL     1      47.849   8.383  12.296  0.00  0.00    +0.000 A 
ATOM      5  C   UNL     1      48.744   7.306  12.258  0.00  0.00    +0.000 A 
ATOM      6  C   UNL     1      50.055   7.487  11.811  0.00  0.00    +0.000 A 
ENDROOT
BRANCH   1   7
ATOM      7  C   UNL     1      51.895   8.931  10.862  0.00  0.00    +0.000 C 
BRANCH   7  10
ATOM      8  O   UNL     1      53.919   7.023  11.043  0.00  0.00    +0.000 OA
ATOM      9  C   UNL     1      53.260   7.087  10.008  0.00  0.00    +0.000 C 
ATOM     10  N   UNL     1      52.241   7.993   9.827  0.00  0.00    +0.000 N 
ATOM     11  H   UNL     1      51.732   7.960   8.948  0.00  0.00    +0.000 HD
BRANCH   9  12
ATOM     12  C   UNL     1      53.490   6.207   8.879  0.00  0.00    +0.000 A 
ATOM     13  N   UNL     1      54.461   5.311   8.785  0.00  0.00    +0.000 NA
ATOM     14  C   UNL     1      54.281   4.707   7.565  0.00  0.00    +0.000 A 
ATOM     15  C   UNL     1      53.204   5.247   6.901  0.00  0.00    +0.000 A 
ATOM     16  N   UNL     1      52.709   6.198   7.748  0.00  0.00    +0.000 N 
ATOM     17  H   UNL     1      51.912   6.803   7.601  0.00  0.00    +0.000 HD
ENDBRANCH   9  12
ENDBRANCH   7  10
ENDBRANCH   1   7
BRANCH   4  18
ATOM     18  C   UNL     1      46.439   8.175  12.782  0.00  0.00    +0.000 C 
BRANCH  18  19
ATOM     19  N   UNL     1      45.959   6.852  12.472  0.00  0.00    +0.000 N 
ATOM     20  C   UNL     1      44.840   6.629  11.714  0.00  0.00    +0.000 C 
ATOM     21  O   UNL     1      44.169   7.547  11.247  0.00  0.00    +0.000 OA
ATOM     22  H   UNL     1      46.372   6.086  12.993  0.00  0.00    +0.000 HD
BRANCH  20  23
ATOM     23  C   UNL     1      44.515   5.225  11.421  0.00  0.00    +0.000 A 
ATOM     24  C   UNL     1      43.747   4.500  12.323  0.00  0.00    +0.000 A 
ATOM     25  S   UNL     1      43.419   2.905  11.821  0.00  0.00    +0.000 S 
ATOM     26  C   UNL     1      44.330   3.109  10.399  0.00  0.00    +0.000 A 
ATOM     27  N   UNL     1      44.478   2.087   9.514  0.00  0.00    +0.000 NA
ATOM     28  C   UNL     1      45.225   2.365   8.497  0.00  0.00    +0.000 A 
ATOM     29  N   UNL     1      45.825   3.577   8.280  0.00  0.00    +0.000 N 
ATOM     30  C   UNL     1      45.650   4.656   9.112  0.00  0.00    +0.000 A 
ATOM     31  O   UNL     1      46.112   5.757   8.826  0.00  0.00    +0.000 OA
ATOM     32  C   UNL     1      44.857   4.385  10.296  0.00  0.00    +0.000 A 
ATOM     33  H   UNL     1      46.376   3.738   7.449  0.00  0.00    +0.000 HD
ENDBRANCH  20  23
ENDBRANCH  18  19
ENDBRANCH   4  18
TORSDOF 6
ENDMDL
MODEL 9
REMARK VINA RESULT:    -6.497      2.599      3.392
REMARK INTER + INTRA:          -9.608
REMARK INTER:                  -8.880
REMARK INTRA:                  -0.728
REMARK UNBOUND:                -0.832
REMARK  Name = 
REMARK  6 active torsions:
REMARK  status: ('A' for Active; 'I' for Inactive)
REMARK    1  A    between atoms: C_2  and  C_25
REMARK    2  A    between atoms: N_3  and  C_4
REMARK    3  A    between atoms: C_4  and  C_5
REMARK    4  A    between atoms: C_8  and  C_9
REMARK    5  A    between atoms: C_9  and  N_10
REMARK    6  A    between atoms: C_11  and  C_13
REMARK                            x       y       z     vdW  Elec       q    Type
REMARK                         _______ _______ _______ _____ _____    ______ ____
ROOT
ATOM      1  C   UNL     1      45.672   5.304  11.795  0.00  0.00    +0.000 A 
ATOM      2  C   UNL     1      46.451   6.314  12.373  0.00  0.00    +0.000 A 
ATOM      3  C   UNL     1      47.092   6.103  13.598  0.00  0.00    +0.000 A 
ATOM      4  C   UNL     1      46.981   4.872  14.258  0.00  0.00    +0.000 A 
ATOM      5  C   UNL     1      46.197   3.865  13.680  0.00  0.00    +0.000 A 
ATOM      6  C   UNL     1      45.558   4.074  12.456  0.00  0.00    +0.000 A 
ENDROOT
BRANCH   1   7
ATOM      7  C   UNL     1      44.957   5.539  10.491  0.00  0.00    +0.000 C 
BRANCH   7  10
ATOM      8  O   UNL     1      44.264   3.053   9.439  0.00  0.00    +0.000 OA
ATOM      9  C   UNL     1      45.195   3.671   8.927  0.00  0.00    +0.000 C 
ATOM     10  N   UNL     1      45.607   4.904   9.375  0.00  0.00    +0.000 N 
ATOM     11  H   UNL     1      46.369   5.356   8.878  0.00  0.00    +0.000 HD
BRANCH   9  12
ATOM     12  C   UNL     1      45.944   3.162   7.795  0.00  0.00    +0.000 A 
ATOM     13  N   UNL     1      46.175   3.815   6.667  0.00  0.00    +0.000 NA
ATOM     14  C   UNL     1      46.928   2.960   5.900  0.00  0.00    +0.000 A 
ATOM     15  C   UNL     1      47.146   1.771   6.555  0.00  0.00    +0.000 A 
ATOM     16  N   UNL     1      46.517   1.913   7.759  0.00  0.00    +0.000 N 
ATOM     17  H   UNL     1      46.464   1.240   8.513  0.00  0.00    +0.000 HD
ENDBRANCH   9  12
ENDBRANCH   7  10
ENDBRANCH   1   7
BRANCH   4  18
ATOM     18  C   UNL     1      47.667   4.634  15.577  0.00  0.00    +0.000 C 
BRANCH  18  19
ATOM     19  N   UNL     1      47.804   5.853  16.333  0.00  0.00    +0.000 N 
ATOM     20  C   UNL     1      49.021   6.416  16.616  0.00  0.00    +0.000 C 
ATOM     21  O   UNL     1      50.079   5.916  16.241  0.00  0.00    +0.000 OA
ATOM     22  H   UNL     1      46.974   6.184  16.814  0.00  0.00    +0.000 HD
BRANCH  20  23
ATOM     23  C   UNL     1      48.998   7.699  17.333  0.00  0.00    +0.000 A 
ATOM     24  C   UNL     1      48.477   8.823  16.706  0.00  0.00    +0.000 A 
ATOM     25  S   UNL     1      48.479  10.219  17.683  0.00  0.00    +0.000 S 
ATOM     26  C   UNL     1      49.220   9.385  18.967  0.00  0.00    +0.000 A 
ATOM     27  N   UNL     1      49.531  10.023  20.127  0.00  0.00    +0.000 NA
ATOM     28  C   UNL     1      50.123   9.282  21.003  0.00  0.00    +0.000 A 
ATOM     29  N   UNL     1      50.420   7.956  20.828  0.00  0.00    +0.000 N 
ATOM     30  C   UNL     1      50.067   7.254  19.701  0.00  0.00    +0.000 A 
ATOM     31  O   UNL     1      50.250   6.043  19.626  0.00  0.00    +0.000 OA
ATOM     32  C   UNL     1      49.439   8.051  18.664  0.00  0.00    +0.000 A 
ATOM     33  H   UNL     1      50.862   7.425  21.565  0.00  0.00    +0.000 HD
ENDBRANCH  20  23
ENDBRANCH  18  19
ENDBRANCH   4  18
TORSDOF 6
ENDMDL
