MODEL 1
REMARK VINA RESULT:    -7.923      0.000      0.000
REMARK INTER + INTRA:         -13.667
REMARK INTER:                 -12.091
REMARK INTRA:                  -1.575
REMARK UNBOUND:                -1.575
REMARK  Name = 
REMARK  10 active torsions:
REMARK  status: ('A' for Active; 'I' for Inactive)
REMARK    1  A    between atoms: C_2  and  C_3
REMARK    2  A    between atoms: C_6  and  C_7
REMARK    3  A    between atoms: C_7  and  N_8
REMARK    4  A    between atoms: N_8  and  C_9
REMARK    5  A    between atoms: C_9  and  C_10
REMARK    6  A    between atoms: C_13  and  C_14
REMARK    7  A    between atoms: C_14  and  N_15
REMARK    8  A    between atoms: C_16  and  C_18
REMARK    9  A    between atoms: C_25  and  O_26
REMARK   10  A    between atoms: O_26  and  C_27
REMARK                            x       y       z     vdW  Elec       q    Type
REMARK                         _______ _______ _______ _____ _____    ______ ____
ROOT
ATOM      1  C   UNL     1      44.591   5.732  12.788  0.00  0.00    +0.000 A 
ATOM      2  C   UNL     1      44.762   6.993  12.199  0.00  0.00    +0.000 A 
ATOM      3  C   UNL     1      46.036   7.556  12.061  0.00  0.00    +0.000 A 
ATOM      4  C   UNL     1      47.170   6.869  12.510  0.00  0.00    +0.000 A 
ATOM      5  C   UNL     1      46.997   5.630  13.141  0.00  0.00    +0.000 A 
ATOM      6  C   UNL     1      45.723   5.066  13.275  0.00  0.00    +0.000 A 
ENDROOT
BRANCH   1   7
ATOM      7  C   UNL     1      43.215   5.106  12.891  0.00  0.00    +0.000 C 
BRANCH   7   8
ATOM      8  N   UNL     1      42.811   4.504  11.622  0.00  0.00    +0.000 NA
ATOM      9  H   UNL     1      41.798   4.405  11.598  0.00  0.00    +0.000 HD
BRANCH   8  10
ATOM     10  C   UNL     1      43.409   3.185  11.430  0.00  0.00    +0.000 C 
BRANCH  10  14
ATOM     11  C   UNL     1      45.743   3.062   7.785  0.00  0.00    +0.000 A 
ATOM     12  C   UNL     1      45.330   1.876   8.394  0.00  0.00    +0.000 A 
ATOM     13  C   UNL     1      44.583   1.918   9.575  0.00  0.00    +0.000 A 
ATOM     14  C   UNL     1      44.243   3.146  10.166  0.00  0.00    +0.000 A 
ATOM     15  C   UNL     1      44.674   4.330   9.551  0.00  0.00    +0.000 A 
ATOM     16  C   UNL     1      45.419   4.288   8.367  0.00  0.00    +0.000 A 
BRANCH  11  18
ATOM     17  C   UNL     1      47.111   2.973   5.536  0.00  0.00    +0.000 C 
ATOM     18  C   UNL     1      46.483   3.020   6.561  0.00  0.00    +0.000 C 
ENDBRANCH  11  18
ENDBRANCH  10  14
ENDBRANCH   8  10
ENDBRANCH   7   8
ENDBRANCH   1   7
BRANCH   4  19
ATOM     19  C   UNL     1      48.547   7.464  12.347  0.00  0.00    +0.000 C 
BRANCH  19  20
ATOM     20  N   UNL     1      49.439   7.003  13.377  0.00  0.00    +0.000 N 
ATOM     21  C   UNL     1      49.453   7.562  14.629  0.00  0.00    +0.000 C 
ATOM     22  O   UNL     1      48.649   8.422  14.970  0.00  0.00    +0.000 OA
ATOM     23  H   UNL     1      50.216   6.421  13.088  0.00  0.00    +0.000 HD
BRANCH  21  24
ATOM     24  C   UNL     1      50.445   7.020  15.567  0.00  0.00    +0.000 A 
ATOM     25  C   UNL     1      51.762   7.454  15.501  0.00  0.00    +0.000 A 
ATOM     26  S   UNL     1      52.759   6.779  16.707  0.00  0.00    +0.000 S 
ATOM     27  C   UNL     1      51.474   5.849  17.319  0.00  0.00    +0.000 A 
ATOM     28  N   UNL     1      51.675   5.034  18.367  0.00  0.00    +0.000 NA
ATOM     29  C   UNL     1      50.581   4.358  18.713  0.00  0.00    +0.000 A 
ATOM     30  N   UNL     1      49.377   4.410  18.132  0.00  0.00    +0.000 NA
ATOM     31  C   UNL     1      49.222   5.241  17.081  0.00  0.00    +0.000 A 
ATOM     32  C   UNL     1      50.286   6.033  16.624  0.00  0.00    +0.000 A 
BRANCH  31  33
ATOM     33  O   UNL     1      47.997   5.307  16.449  0.00  0.00    +0.000 OA
ATOM     34  C   UNL     1      47.208   4.131  16.581  0.00  0.00    +0.000 C 
ENDBRANCH  31  33
ENDBRANCH  21  24
ENDBRANCH  19  20
ENDBRANCH   4  19
TORSDOF 9
ENDMDL
MODEL 2
REMARK VINA RESULT:    -7.868      1.451      1.752
REMARK INTER + INTRA:         -13.583
REMARK INTER:                 -12.019
REMARK INTRA:                  -1.564
REMARK UNBOUND:                -1.575
REMARK  Name = 
REMARK  10 active torsions:
REMARK  status: ('A' for Active; 'I' for Inactive)
REMARK    1  A    between atoms: C_2  and  C_3
REMARK    2  A    between atoms: C_6  and  C_7
REMARK    3  A    between atoms: C_7  and  N_8
REMARK    4  A    between atoms: N_8  and  C_9
REMARK    5  A    between atoms: C_9  and  C_10
REMARK    6  A    between atoms: C_13  and  C_14
REMARK    7  A    between atoms: C_14  and  N_15
REMARK    8  A    between atoms: C_16  and  C_18
REMARK    9  A    between atoms: C_25  and  O_26
REMARK   10  A    between atoms: O_26  and  C_27
REMARK                            x       y       z     vdW  Elec       q    Type
REMARK                         _______ _______ _______ _____ _____    ______ ____
ROOT
ATOM      1  C   UNL     1      44.637   6.135  12.290  0.00  0.00    +0.000 A 
ATOM      2  C   UNL     1      45.256   5.297  13.230  0.00  0.00    +0.000 A 
ATOM      3  C   UNL     1      46.584   5.510  13.619  0.00  0.00    +0.000 A 
ATOM      4  C   UNL     1      47.324   6.566  13.075  0.00  0.00    +0.000 A 
ATOM      5  C   UNL     1      46.724   7.374  12.101  0.00  0.00    +0.000 A 
ATOM      6  C   UNL     1      45.394   7.164  11.715  0.00  0.00    +0.000 A 
ENDROOT
BRANCH   1   7
ATOM      7  C   UNL     1      43.185   5.929  11.908  0.00  0.00    +0.000 C 
BRANCH   7   8
ATOM      8  N   UNL     1      43.068   5.216  10.637  0.00  0.00    +0.000 NA
ATOM      9  H   UNL     1      42.098   5.225  10.330  0.00  0.00    +0.000 HD
BRANCH   8  10
ATOM     10  C   UNL     1      43.506   3.827  10.749  0.00  0.00    +0.000 C 
BRANCH  10  14
ATOM     11  C   UNL     1      46.341   2.841   7.630  0.00  0.00    +0.000 A 
ATOM     12  C   UNL     1      45.718   1.826   8.358  0.00  0.00    +0.000 A 
ATOM     13  C   UNL     1      44.808   2.147   9.369  0.00  0.00    +0.000 A 
ATOM     14  C   UNL     1      44.514   3.486   9.671  0.00  0.00    +0.000 A 
ATOM     15  C   UNL     1      45.156   4.497   8.941  0.00  0.00    +0.000 A 
ATOM     16  C   UNL     1      46.065   4.176   7.927  0.00  0.00    +0.000 A 
BRANCH  11  18
ATOM     17  C   UNL     1      48.027   2.235   5.698  0.00  0.00    +0.000 C 
ATOM     18  C   UNL     1      47.252   2.513   6.575  0.00  0.00    +0.000 C 
ENDBRANCH  11  18
ENDBRANCH  10  14
ENDBRANCH   8  10
ENDBRANCH   7   8
ENDBRANCH   1   7
BRANCH   4  19
ATOM     19  C   UNL     1      48.749   6.810  13.505  0.00  0.00    +0.000 C 
BRANCH  19  20
ATOM     20  N   UNL     1      48.865   6.831  14.939  0.00  0.00    +0.000 N 
ATOM     21  C   UNL     1      50.057   7.086  15.567  0.00  0.00    +0.000 C 
ATOM     22  O   UNL     1      51.069   7.397  14.948  0.00  0.00    +0.000 OA
ATOM     23  H   UNL     1      48.105   6.421  15.469  0.00  0.00    +0.000 HD
BRANCH  21  24
ATOM     24  C   UNL     1      50.037   7.034  17.035  0.00  0.00    +0.000 A 
ATOM     25  C   UNL     1      50.538   8.101  17.768  0.00  0.00    +0.000 A 
ATOM     26  S   UNL     1      50.369   7.905  19.452  0.00  0.00    +0.000 S 
ATOM     27  C   UNL     1      49.671   6.367  19.253  0.00  0.00    +0.000 A 
ATOM     28  N   UNL     1      49.300   5.655  20.329  0.00  0.00    +0.000 NA
ATOM     29  C   UNL     1      48.793   4.465  20.011  0.00  0.00    +0.000 A 
ATOM     30  N   UNL     1      48.641   3.949  18.786  0.00  0.00    +0.000 NA
ATOM     31  C   UNL     1      49.029   4.701  17.735  0.00  0.00    +0.000 A 
ATOM     32  C   UNL     1      49.559   5.985  17.923  0.00  0.00    +0.000 A 
BRANCH  31  33
ATOM     33  O   UNL     1      48.900   4.191  16.459  0.00  0.00    +0.000 OA
ATOM     34  C   UNL     1      47.831   3.266  16.305  0.00  0.00    +0.000 C 
ENDBRANCH  31  33
ENDBRANCH  21  24
ENDBRANCH  19  20
ENDBRANCH   4  19
TORSDOF 9
ENDMDL
MODEL 3
REMARK VINA RESULT:    -7.224      1.504      2.629
REMARK INTER + INTRA:         -12.600
REMARK INTER:                 -11.110
REMARK INTRA:                  -1.490
REMARK UNBOUND:                -1.575
REMARK  Name = 
REMARK  10 active torsions:
REMARK  status: ('A' for Active; 'I' for Inactive)
REMARK    1  A    between atoms: C_2  and  C_3
REMARK    2  A    between atoms: C_6  and  C_7
REMARK    3  A    between atoms: C_7  and  N_8
REMARK    4  A    between atoms: N_8  and  C_9
REMARK    5  A    between atoms: C_9  and  C_10
REMARK    6  A    between atoms: C_13  and  C_14
REMARK    7  A    between atoms: C_14  and  N_15
REMARK    8  A    between atoms: C_16  and  C_18
REMARK    9  A    between atoms: C_25  and  O_26
REMARK   10  A    between atoms: O_26  and  C_27
REMARK                            x       y       z     vdW  Elec       q    Type
REMARK                         _______ _______ _______ _____ _____    ______ ____
ROOT
ATOM      1  C   UNL     1      44.452   5.726  12.750  0.00  0.00    +0.000 A 
ATOM      2  C   UNL     1      44.685   6.900  12.018  0.00  0.00    +0.000 A 
ATOM      3  C   UNL     1      45.965   7.464  11.951  0.00  0.00    +0.000 A 
ATOM      4  C   UNL     1      47.042   6.866  12.615  0.00  0.00    +0.000 A 
ATOM      5  C   UNL     1      46.802   5.720  13.385  0.00  0.00    +0.000 A 
ATOM      6  C   UNL     1      45.522   5.154  13.449  0.00  0.00    +0.000 A 
ENDROOT
BRANCH   1   7
ATOM      7  C   UNL     1      43.075   5.094  12.780  0.00  0.00    +0.000 C 
BRANCH   7   8
ATOM      8  N   UNL     1      42.763   4.445  11.508  0.00  0.00    +0.000 NA
ATOM      9  H   UNL     1      41.760   4.287  11.443  0.00  0.00    +0.000 HD
BRANCH   8  10
ATOM     10  C   UNL     1      43.444   3.159  11.371  0.00  0.00    +0.000 C 
BRANCH  10  14
ATOM     11  C   UNL     1      45.789   3.033   7.734  0.00  0.00    +0.000 A 
ATOM     12  C   UNL     1      45.438   1.849   8.384  0.00  0.00    +0.000 A 
ATOM     13  C   UNL     1      44.687   1.893   9.562  0.00  0.00    +0.000 A 
ATOM     14  C   UNL     1      44.282   3.120  10.110  0.00  0.00    +0.000 A 
ATOM     15  C   UNL     1      44.651   4.304   9.455  0.00  0.00    +0.000 A 
ATOM     16  C   UNL     1      45.401   4.261   8.274  0.00  0.00    +0.000 A 
BRANCH  11  18
ATOM     17  C   UNL     1      47.162   2.965   5.487  0.00  0.00    +0.000 C 
ATOM     18  C   UNL     1      46.534   2.989   6.513  0.00  0.00    +0.000 C 
ENDBRANCH  11  18
ENDBRANCH  10  14
ENDBRANCH   8  10
ENDBRANCH   7   8
ENDBRANCH   1   7
BRANCH   4  19
ATOM     19  C   UNL     1      48.426   7.459  12.530  0.00  0.00    +0.000 C 
BRANCH  19  20
ATOM     20  N   UNL     1      49.285   6.928  13.555  0.00  0.00    +0.000 N 
ATOM     21  C   UNL     1      49.516   7.597  14.729  0.00  0.00    +0.000 C 
ATOM     22  O   UNL     1      48.937   8.641  15.010  0.00  0.00    +0.000 OA
ATOM     23  H   UNL     1      49.899   6.166  13.292  0.00  0.00    +0.000 HD
BRANCH  21  24
ATOM     24  C   UNL     1      50.448   6.956  15.665  0.00  0.00    +0.000 A 
ATOM     25  C   UNL     1      49.958   6.118  16.658  0.00  0.00    +0.000 A 
ATOM     26  S   UNL     1      51.180   5.404  17.605  0.00  0.00    +0.000 S 
ATOM     27  C   UNL     1      52.395   6.233  16.752  0.00  0.00    +0.000 A 
ATOM     28  N   UNL     1      53.685   6.060  17.085  0.00  0.00    +0.000 NA
ATOM     29  C   UNL     1      54.512   6.793  16.342  0.00  0.00    +0.000 A 
ATOM     30  N   UNL     1      54.185   7.643  15.361  0.00  0.00    +0.000 NA
ATOM     31  C   UNL     1      52.878   7.784  15.063  0.00  0.00    +0.000 A 
ATOM     32  C   UNL     1      51.897   7.054  15.750  0.00  0.00    +0.000 A 
BRANCH  31  33
ATOM     33  O   UNL     1      52.505   8.664  14.067  0.00  0.00    +0.000 OA
ATOM     34  C   UNL     1      53.085   8.388  12.797  0.00  0.00    +0.000 C 
ENDBRANCH  31  33
ENDBRANCH  21  24
ENDBRANCH  19  20
ENDBRANCH   4  19
TORSDOF 9
ENDMDL
MODEL 4
REMARK VINA RESULT:    -7.144      0.965      1.069
REMARK INTER + INTRA:         -12.478
REMARK INTER:                 -11.045
REMARK INTRA:                  -1.434
REMARK UNBOUND:                -1.575
REMARK  Name = 
REMARK  10 active torsions:
REMARK  status: ('A' for Active; 'I' for Inactive)
REMARK    1  A    between atoms: C_2  and  C_3
REMARK    2  A    between atoms: C_6  and  C_7
REMARK    3  A    between atoms: C_7  and  N_8
REMARK    4  A    between atoms: N_8  and  C_9
REMARK    5  A    between atoms: C_9  and  C_10
REMARK    6  A    between atoms: C_13  and  C_14
REMARK    7  A    between atoms: C_14  and  N_15
REMARK    8  A    between atoms: C_16  and  C_18
REMARK    9  A    between atoms: C_25  and  O_26
REMARK   10  A    between atoms: O_26  and  C_27
REMARK                            x       y       z     vdW  Elec       q    Type
REMARK                         _______ _______ _______ _____ _____    ______ ____
ROOT
ATOM      1  C   UNL     1      45.539   6.286  12.909  0.00  0.00    +0.000 A 
ATOM      2  C   UNL     1      45.667   7.659  12.657  0.00  0.00    +0.000 A 
ATOM      3  C   UNL     1      46.923   8.278  12.662  0.00  0.00    +0.000 A 
ATOM      4  C   UNL     1      48.081   7.535  12.921  0.00  0.00    +0.000 A 
ATOM      5  C   UNL     1      47.951   6.173  13.219  0.00  0.00    +0.000 A 
ATOM      6  C   UNL     1      46.695   5.554  13.209  0.00  0.00    +0.000 A 
ENDROOT
BRANCH   1   7
ATOM      7  C   UNL     1      44.183   5.612  12.854  0.00  0.00    +0.000 C 
BRANCH   7   8
ATOM      8  N   UNL     1      44.314   4.180  12.595  0.00  0.00    +0.000 NA
ATOM      9  H   UNL     1      45.284   3.959  12.384  0.00  0.00    +0.000 HD
BRANCH   8  10
ATOM     10  C   UNL     1      43.487   3.753  11.468  0.00  0.00    +0.000 C 
BRANCH  10  14
ATOM     11  C   UNL     1      45.846   3.113   7.895  0.00  0.00    +0.000 A 
ATOM     12  C   UNL     1      45.318   2.025   8.591  0.00  0.00    +0.000 A 
ATOM     13  C   UNL     1      44.563   2.234   9.748  0.00  0.00    +0.000 A 
ATOM     14  C   UNL     1      44.330   3.532  10.229  0.00  0.00    +0.000 A 
ATOM     15  C   UNL     1      44.876   4.617   9.528  0.00  0.00    +0.000 A 
ATOM     16  C   UNL     1      45.630   4.408   8.368  0.00  0.00    +0.000 A 
BRANCH  11  18
ATOM     17  C   UNL     1      47.237   2.728   5.691  0.00  0.00    +0.000 C 
ATOM     18  C   UNL     1      46.596   2.902   6.694  0.00  0.00    +0.000 C 
ENDBRANCH  11  18
ENDBRANCH  10  14
ENDBRANCH   8  10
ENDBRANCH   7   8
ENDBRANCH   1   7
BRANCH   4  19
ATOM     19  C   UNL     1      49.438   8.194  12.909  0.00  0.00    +0.000 C 
BRANCH  19  20
ATOM     20  N   UNL     1      50.359   7.507  13.775  0.00  0.00    +0.000 N 
ATOM     21  C   UNL     1      50.527   7.865  15.088  0.00  0.00    +0.000 C 
ATOM     22  O   UNL     1      49.841   8.731  15.622  0.00  0.00    +0.000 OA
ATOM     23  H   UNL     1      51.049   6.910  13.334  0.00  0.00    +0.000 HD
BRANCH  21  24
ATOM     24  C   UNL     1      51.531   7.104  15.842  0.00  0.00    +0.000 A 
ATOM     25  C   UNL     1      52.860   7.505  15.817  0.00  0.00    +0.000 A 
ATOM     26  S   UNL     1      53.873   6.555  16.804  0.00  0.00    +0.000 S 
ATOM     27  C   UNL     1      52.577   5.549  17.251  0.00  0.00    +0.000 A 
ATOM     28  N   UNL     1      52.786   4.519  18.087  0.00  0.00    +0.000 NA
ATOM     29  C   UNL     1      51.681   3.813  18.322  0.00  0.00    +0.000 A 
ATOM     30  N   UNL     1      50.459   4.025  17.818  0.00  0.00    +0.000 NA
ATOM     31  C   UNL     1      50.298   5.071  16.981  0.00  0.00    +0.000 A 
ATOM     32  C   UNL     1      51.373   5.914  16.664  0.00  0.00    +0.000 A 
BRANCH  31  33
ATOM     33  O   UNL     1      49.055   5.308  16.431  0.00  0.00    +0.000 OA
ATOM     34  C   UNL     1      48.020   5.499  17.389  0.00  0.00    +0.000 C 
ENDBRANCH  31  33
ENDBRANCH  21  24
ENDBRANCH  19  20
ENDBRANCH   4  19
TORSDOF 9
ENDMDL
MODEL 5
REMARK VINA RESULT:    -7.116      1.986      2.876
REMARK INTER + INTRA:         -12.436
REMARK INTER:                 -11.842
REMARK INTRA:                  -0.594
REMARK UNBOUND:                -1.575
REMARK  Name = 
REMARK  10 active torsions:
REMARK  status: ('A' for Active; 'I' for Inactive)
REMARK    1  A    between atoms: C_2  and  C_3
REMARK    2  A    between atoms: C_6  and  C_7
REMARK    3  A    between atoms: C_7  and  N_8
REMARK    4  A    between atoms: N_8  and  C_9
REMARK    5  A    between atoms: C_9  and  C_10
REMARK    6  A    between atoms: C_13  and  C_14
REMARK    7  A    between atoms: C_14  and  N_15
REMARK    8  A    between atoms: C_16  and  C_18
REMARK    9  A    between atoms: C_25  and  O_26
REMARK   10  A    between atoms: O_26  and  C_27
REMARK                            x       y       z     vdW  Elec       q    Type
REMARK                         _______ _______ _______ _____ _____    ______ ____
ROOT
ATOM      1  C   UNL     1      46.404   4.772  13.147  0.00  0.00    +0.000 A 
ATOM      2  C   UNL     1      46.615   4.388  14.479  0.00  0.00    +0.000 A 
ATOM      3  C   UNL     1      47.494   5.100  15.303  0.00  0.00    +0.000 A 
ATOM      4  C   UNL     1      48.185   6.214  14.812  0.00  0.00    +0.000 A 
ATOM      5  C   UNL     1      48.013   6.571  13.468  0.00  0.00    +0.000 A 
ATOM      6  C   UNL     1      47.129   5.860  12.646  0.00  0.00    +0.000 A 
ENDROOT
BRANCH   1   7
ATOM      7  C   UNL     1      45.415   4.027  12.274  0.00  0.00    +0.000 C 
BRANCH   7   8
ATOM      8  N   UNL     1      44.104   4.672  12.291  0.00  0.00    +0.000 NA
ATOM      9  H   UNL     1      43.543   4.285  13.047  0.00  0.00    +0.000 HD
BRANCH   8  10
ATOM     10  C   UNL     1      43.384   4.477  11.035  0.00  0.00    +0.000 C 
BRANCH  10  14
ATOM     11  C   UNL     1      46.039   2.855   8.025  0.00  0.00    +0.000 A 
ATOM     12  C   UNL     1      45.930   4.236   8.193  0.00  0.00    +0.000 A 
ATOM     13  C   UNL     1      45.066   4.757   9.161  0.00  0.00    +0.000 A 
ATOM     14  C   UNL     1      44.296   3.906   9.969  0.00  0.00    +0.000 A 
ATOM     15  C   UNL     1      44.406   2.521   9.783  0.00  0.00    +0.000 A 
ATOM     16  C   UNL     1      45.273   1.998   8.816  0.00  0.00    +0.000 A 
BRANCH  11  18
ATOM     17  C   UNL     1      47.695   1.868   6.230  0.00  0.00    +0.000 C 
ATOM     18  C   UNL     1      46.945   2.320   7.054  0.00  0.00    +0.000 C 
ENDBRANCH  11  18
ENDBRANCH  10  14
ENDBRANCH   8  10
ENDBRANCH   7   8
ENDBRANCH   1   7
BRANCH   4  19
ATOM     19  C   UNL     1      49.120   6.995  15.701  0.00  0.00    +0.000 C 
BRANCH  19  20
ATOM     20  N   UNL     1      50.152   6.151  16.243  0.00  0.00    +0.000 N 
ATOM     21  C   UNL     1      50.107   5.683  17.531  0.00  0.00    +0.000 C 
ATOM     22  O   UNL     1      49.145   5.883  18.265  0.00  0.00    +0.000 OA
ATOM     23  H   UNL     1      51.026   6.105  15.731  0.00  0.00    +0.000 HD
BRANCH  21  24
ATOM     24  C   UNL     1      51.249   4.867  17.962  0.00  0.00    +0.000 A 
ATOM     25  C   UNL     1      52.320   5.469  18.608  0.00  0.00    +0.000 A 
ATOM     26  S   UNL     1      53.520   4.366  19.103  0.00  0.00    +0.000 S 
ATOM     27  C   UNL     1      52.670   3.060  18.423  0.00  0.00    +0.000 A 
ATOM     28  N   UNL     1      53.176   1.818  18.500  0.00  0.00    +0.000 NA
ATOM     29  C   UNL     1      52.407   0.910  17.901  0.00  0.00    +0.000 A 
ATOM     30  N   UNL     1      51.251   1.120  17.260  0.00  0.00    +0.000 NA
ATOM     31  C   UNL     1      50.783   2.384  17.207  0.00  0.00    +0.000 A 
ATOM     32  C   UNL     1      51.480   3.438  17.816  0.00  0.00    +0.000 A 
BRANCH  31  33
ATOM     33  O   UNL     1      49.602   2.637  16.540  0.00  0.00    +0.000 OA
ATOM     34  C   UNL     1      48.435   2.467  17.335  0.00  0.00    +0.000 C 
ENDBRANCH  31  33
ENDBRANCH  21  24
ENDBRANCH  19  20
ENDBRANCH   4  19
TORSDOF 9
ENDMDL
MODEL 6
REMARK VINA RESULT:    -7.071      2.499      3.254
REMARK INTER + INTRA:         -12.367
REMARK INTER:                 -11.159
REMARK INTRA:                  -1.208
REMARK UNBOUND:                -1.575
REMARK  Name = 
REMARK  10 active torsions:
REMARK  status: ('A' for Active; 'I' for Inactive)
REMARK    1  A    between atoms: C_2  and  C_3
REMARK    2  A    between atoms: C_6  and  C_7
REMARK    3  A    between atoms: C_7  and  N_8
REMARK    4  A    between atoms: N_8  and  C_9
REMARK    5  A    between atoms: C_9  and  C_10
REMARK    6  A    between atoms: C_13  and  C_14
REMARK    7  A    between atoms: C_14  and  N_15
REMARK    8  A    between atoms: C_16  and  C_18
REMARK    9  A    between atoms: C_25  and  O_26
REMARK   10  A    between atoms: O_26  and  C_27
REMARK                            x       y       z     vdW  Elec       q    Type
REMARK                         _______ _______ _______ _____ _____    ______ ____
ROOT
ATOM      1  C   UNL     1      44.322   5.619  12.359  0.00  0.00    +0.000 A 
ATOM      2  C   UNL     1      44.885   4.732  13.289  0.00  0.00    +0.000 A 
ATOM      3  C   UNL     1      46.163   4.956  13.815  0.00  0.00    +0.000 A 
ATOM      4  C   UNL     1      46.908   6.074  13.422  0.00  0.00    +0.000 A 
ATOM      5  C   UNL     1      46.368   6.935  12.458  0.00  0.00    +0.000 A 
ATOM      6  C   UNL     1      45.087   6.713  11.935  0.00  0.00    +0.000 A 
ENDROOT
BRANCH   1   7
ATOM      7  C   UNL     1      42.920   5.398  11.830  0.00  0.00    +0.000 C 
BRANCH   7   8
ATOM      8  N   UNL     1      42.931   4.546  10.642  0.00  0.00    +0.000 NA
ATOM      9  H   UNL     1      41.984   4.233  10.438  0.00  0.00    +0.000 HD
BRANCH   8  10
ATOM     10  C   UNL     1      43.778   3.369  10.823  0.00  0.00    +0.000 C 
BRANCH  10  14
ATOM     11  C   UNL     1      46.376   2.815   7.405  0.00  0.00    +0.000 A 
ATOM     12  C   UNL     1      45.860   1.708   8.080  0.00  0.00    +0.000 A 
ATOM     13  C   UNL     1      45.028   1.890   9.188  0.00  0.00    +0.000 A 
ATOM     14  C   UNL     1      44.703   3.180   9.639  0.00  0.00    +0.000 A 
ATOM     15  C   UNL     1      45.238   4.284   8.959  0.00  0.00    +0.000 A 
ATOM     16  C   UNL     1      46.069   4.103   7.848  0.00  0.00    +0.000 A 
BRANCH  11  18
ATOM     17  C   UNL     1      47.898   2.463   5.283  0.00  0.00    +0.000 C 
ATOM     18  C   UNL     1      47.206   2.631   6.253  0.00  0.00    +0.000 C 
ENDBRANCH  11  18
ENDBRANCH  10  14
ENDBRANCH   8  10
ENDBRANCH   7   8
ENDBRANCH   1   7
BRANCH   4  19
ATOM     19  C   UNL     1      48.278   6.329  13.999  0.00  0.00    +0.000 C 
BRANCH  19  20
ATOM     20  N   UNL     1      48.192   6.830  15.345  0.00  0.00    +0.000 N 
ATOM     21  C   UNL     1      48.757   6.168  16.404  0.00  0.00    +0.000 C 
ATOM     22  O   UNL     1      49.440   5.161  16.255  0.00  0.00    +0.000 OA
ATOM     23  H   UNL     1      47.506   7.555  15.524  0.00  0.00    +0.000 HD
BRANCH  21  24
ATOM     24  C   UNL     1      48.554   6.774  17.726  0.00  0.00    +0.000 A 
ATOM     25  C   UNL     1      47.851   6.079  18.701  0.00  0.00    +0.000 A 
ATOM     26  S   UNL     1      47.774   6.897  20.194  0.00  0.00    +0.000 S 
ATOM     27  C   UNL     1      48.633   8.224  19.567  0.00  0.00    +0.000 A 
ATOM     28  N   UNL     1      48.896   9.282  20.351  0.00  0.00    +0.000 NA
ATOM     29  C   UNL     1      49.553  10.248  19.711  0.00  0.00    +0.000 A 
ATOM     30  N   UNL     1      49.939  10.255  18.429  0.00  0.00    +0.000 NA
ATOM     31  C   UNL     1      49.651   9.171  17.681  0.00  0.00    +0.000 A 
ATOM     32  C   UNL     1      48.983   8.068  18.233  0.00  0.00    +0.000 A 
BRANCH  31  33
ATOM     33  O   UNL     1      50.022   9.153  16.351  0.00  0.00    +0.000 OA
ATOM     34  C   UNL     1      49.363  10.125  15.549  0.00  0.00    +0.000 C 
ENDBRANCH  31  33
ENDBRANCH  21  24
ENDBRANCH  19  20
ENDBRANCH   4  19
TORSDOF 9
ENDMDL
MODEL 7
REMARK VINA RESULT:    -5.839      3.095      4.302
REMARK INTER + INTRA:         -10.487
REMARK INTER:                  -9.446
REMARK INTRA:                  -1.041
REMARK UNBOUND:                -1.575
REMARK  Name = 
REMARK  10 active torsions:
REMARK  status: ('A' for Active; 'I' for Inactive)
REMARK    1  A    between atoms: C_2  and  C_3
REMARK    2  A    between atoms: C_6  and  C_7
REMARK    3  A    between atoms: C_7  and  N_8
REMARK    4  A    between atoms: N_8  and  C_9
REMARK    5  A    between atoms: C_9  and  C_10
REMARK    6  A    between atoms: C_13  and  C_14
REMARK    7  A    between atoms: C_14  and  N_15
REMARK    8  A    between atoms: C_16  and  C_18
REMARK    9  A    between atoms: C_25  and  O_26
REMARK   10  A    between atoms: O_26  and  C_27
REMARK                            x       y       z     vdW  Elec       q    Type
REMARK                         _______ _______ _______ _____ _____    ______ ____
ROOT
ATOM      1  C   UNL     1      44.386   5.528  12.232  0.00  0.00    +0.000 A 
ATOM      2  C   UNL     1      45.268   5.046  13.210  0.00  0.00    +0.000 A 
ATOM      3  C   UNL     1      46.362   5.811  13.633  0.00  0.00    +0.000 A 
ATOM      4  C   UNL     1      46.598   7.078  13.087  0.00  0.00    +0.000 A 
ATOM      5  C   UNL     1      45.746   7.541  12.076  0.00  0.00    +0.000 A 
ATOM      6  C   UNL     1      44.650   6.777  11.656  0.00  0.00    +0.000 A 
ENDROOT
BRANCH   1   7
ATOM      7  C   UNL     1      43.178   4.716  11.813  0.00  0.00    +0.000 C 
BRANCH   7   8
ATOM      8  N   UNL     1      43.354   4.159  10.473  0.00  0.00    +0.000 NA
ATOM      9  H   UNL     1      42.443   3.975  10.058  0.00  0.00    +0.000 HD
BRANCH   8  10
ATOM     10  C   UNL     1      44.112   2.911  10.497  0.00  0.00    +0.000 C 
BRANCH  10  14
ATOM     11  C   UNL     1      46.690   2.603   7.033  0.00  0.00    +0.000 A 
ATOM     12  C   UNL     1      46.367   1.463   7.770  0.00  0.00    +0.000 A 
ATOM     13  C   UNL     1      45.541   1.566   8.893  0.00  0.00    +0.000 A 
ATOM     14  C   UNL     1      45.030   2.810   9.297  0.00  0.00    +0.000 A 
ATOM     15  C   UNL     1      45.371   3.950   8.554  0.00  0.00    +0.000 A 
ATOM     16  C   UNL     1      46.196   3.847   7.429  0.00  0.00    +0.000 A 
BRANCH  11  18
ATOM     17  C   UNL     1      48.199   2.390   4.884  0.00  0.00    +0.000 C 
ATOM     18  C   UNL     1      47.513   2.494   5.866  0.00  0.00    +0.000 C 
ENDBRANCH  11  18
ENDBRANCH  10  14
ENDBRANCH   8  10
ENDBRANCH   7   8
ENDBRANCH   1   7
BRANCH   4  19
ATOM     19  C   UNL     1      47.764   7.913  13.553  0.00  0.00    +0.000 C 
BRANCH  19  20
ATOM     20  N   UNL     1      48.949   7.628  12.788  0.00  0.00    +0.000 N 
ATOM     21  C   UNL     1      49.950   8.551  12.629  0.00  0.00    +0.000 C 
ATOM     22  O   UNL     1      49.935   9.637  13.199  0.00  0.00    +0.000 OA
ATOM     23  H   UNL     1      48.920   6.820  12.177  0.00  0.00    +0.000 HD
BRANCH  21  24
ATOM     24  C   UNL     1      51.081   8.138  11.789  0.00  0.00    +0.000 A 
ATOM     25  C   UNL     1      50.843   7.584  10.538  0.00  0.00    +0.000 A 
ATOM     26  S   UNL     1      52.266   7.231   9.670  0.00  0.00    +0.000 S 
ATOM     27  C   UNL     1      53.242   7.759  10.959  0.00  0.00    +0.000 A 
ATOM     28  N   UNL     1      54.579   7.710  10.851  0.00  0.00    +0.000 NA
ATOM     29  C   UNL     1      55.201   8.134  11.950  0.00  0.00    +0.000 A 
ATOM     30  N   UNL     1      54.640   8.569  13.084  0.00  0.00    +0.000 NA
ATOM     31  C   UNL     1      53.293   8.600  13.147  0.00  0.00    +0.000 A 
ATOM     32  C   UNL     1      52.510   8.203  12.053  0.00  0.00    +0.000 A 
BRANCH  31  33
ATOM     33  O   UNL     1      52.683   9.028  14.308  0.00  0.00    +0.000 OA
ATOM     34  C   UNL     1      53.309   8.570  15.500  0.00  0.00    +0.000 C 
ENDBRANCH  31  33
ENDBRANCH  21  24
ENDBRANCH  19  20
ENDBRANCH   4  19
TORSDOF 9
ENDMDL
MODEL 8
REMARK VINA RESULT:    -5.726      2.371      4.335
REMARK INTER + INTRA:         -10.314
REMARK INTER:                  -9.164
REMARK INTRA:                  -1.150
REMARK UNBOUND:                -1.575
REMARK  Name = 
REMARK  10 active torsions:
REMARK  status: ('A' for Active; 'I' for Inactive)
REMARK    1  A    between atoms: C_2  and  C_3
REMARK    2  A    between atoms: C_6  and  C_7
REMARK    3  A    between atoms: C_7  and  N_8
REMARK    4  A    between atoms: N_8  and  C_9
REMARK    5  A    between atoms: C_9  and  C_10
REMARK    6  A    between atoms: C_13  and  C_14
REMARK    7  A    between atoms: C_14  and  N_15
REMARK    8  A    between atoms: C_16  and  C_18
REMARK    9  A    between atoms: C_25  and  O_26
REMARK   10  A    between atoms: O_26  and  C_27
REMARK                            x       y       z     vdW  Elec       q    Type
REMARK                         _______ _______ _______ _____ _____    ______ ____
ROOT
ATOM      1  C   UNL     1      46.747   4.659  13.893  0.00  0.00    +0.000 A 
ATOM      2  C   UNL     1      47.150   4.100  15.114  0.00  0.00    +0.000 A 
ATOM      3  C   UNL     1      47.952   4.823  16.006  0.00  0.00    +0.000 A 
ATOM      4  C   UNL     1      48.368   6.123  15.696  0.00  0.00    +0.000 A 
ATOM      5  C   UNL     1      48.006   6.665  14.456  0.00  0.00    +0.000 A 
ATOM      6  C   UNL     1      47.201   5.944  13.566  0.00  0.00    +0.000 A 
ENDROOT
BRANCH   1   7
ATOM      7  C   UNL     1      45.840   3.891  12.952  0.00  0.00    +0.000 C 
BRANCH   7   8
ATOM      8  N   UNL     1      44.658   4.675  12.599  0.00  0.00    +0.000 NA
ATOM      9  H   UNL     1      44.135   4.902  13.442  0.00  0.00    +0.000 HD
BRANCH   8  10
ATOM     10  C   UNL     1      43.776   3.951  11.687  0.00  0.00    +0.000 C 
BRANCH  10  14
ATOM     11  C   UNL     1      45.774   3.244   7.912  0.00  0.00    +0.000 A 
ATOM     12  C   UNL     1      45.700   4.536   8.435  0.00  0.00    +0.000 A 
ATOM     13  C   UNL     1      45.048   4.762   9.650  0.00  0.00    +0.000 A 
ATOM     14  C   UNL     1      44.456   3.702  10.357  0.00  0.00    +0.000 A 
ATOM     15  C   UNL     1      44.527   2.411   9.815  0.00  0.00    +0.000 A 
ATOM     16  C   UNL     1      45.182   2.183   8.599  0.00  0.00    +0.000 A 
BRANCH  11  18
ATOM     17  C   UNL     1      47.048   2.793   5.651  0.00  0.00    +0.000 C 
ATOM     18  C   UNL     1      46.466   3.006   6.682  0.00  0.00    +0.000 C 
ENDBRANCH  11  18
ENDBRANCH  10  14
ENDBRANCH   8  10
ENDBRANCH   7   8
ENDBRANCH   1   7
BRANCH   4  19
ATOM     19  C   UNL     1      49.216   6.911  16.662  0.00  0.00    +0.000 C 
BRANCH  19  20
ATOM     20  N   UNL     1      50.030   7.878  15.974  0.00  0.00    +0.000 N 
ATOM     21  C   UNL     1      51.356   7.653  15.708  0.00  0.00    +0.000 C 
ATOM     22  O   UNL     1      51.901   6.584  15.961  0.00  0.00    +0.000 OA
ATOM     23  H   UNL     1      49.665   8.820  15.901  0.00  0.00    +0.000 HD
BRANCH  21  24
ATOM     24  C   UNL     1      52.074   8.744  15.036  0.00  0.00    +0.000 A 
ATOM     25  C   UNL     1      52.972   9.521  15.754  0.00  0.00    +0.000 A 
ATOM     26  S   UNL     1      53.768  10.690  14.804  0.00  0.00    +0.000 S 
ATOM     27  C   UNL     1      52.898  10.227  13.418  0.00  0.00    +0.000 A 
ATOM     28  N   UNL     1      53.111  10.858  12.252  0.00  0.00    +0.000 NA
ATOM     29  C   UNL     1      52.339  10.399  11.268  0.00  0.00    +0.000 A 
ATOM     30  N   UNL     1      51.418   9.430  11.344  0.00  0.00    +0.000 NA
ATOM     31  C   UNL     1      51.239   8.827  12.536  0.00  0.00    +0.000 A 
ATOM     32  C   UNL     1      52.001   9.194  13.655  0.00  0.00    +0.000 A 
BRANCH  31  33
ATOM     33  O   UNL     1      50.286   7.834  12.652  0.00  0.00    +0.000 OA
ATOM     34  C   UNL     1      49.747   7.396  11.411  0.00  0.00    +0.000 C 
ENDBRANCH  31  33
ENDBRANCH  21  24
ENDBRANCH  19  20
ENDBRANCH   4  19
TORSDOF 9
ENDMDL
MODEL 9
REMARK VINA RESULT:    -5.495      5.133      7.159
REMARK INTER + INTRA:          -9.961
REMARK INTER:                  -8.470
REMARK INTRA:                  -1.492
REMARK UNBOUND:                -1.575
REMARK  Name = 
REMARK  10 active torsions:
REMARK  status: ('A' for Active; 'I' for Inactive)
REMARK    1  A    between atoms: C_2  and  C_3
REMARK    2  A    between atoms: C_6  and  C_7
REMARK    3  A    between atoms: C_7  and  N_8
REMARK    4  A    between atoms: N_8  and  C_9
REMARK    5  A    between atoms: C_9  and  C_10
REMARK    6  A    between atoms: C_13  and  C_14
REMARK    7  A    between atoms: C_14  and  N_15
REMARK    8  A    between atoms: C_16  and  C_18
REMARK    9  A    between atoms: C_25  and  O_26
REMARK   10  A    between atoms: O_26  and  C_27
REMARK                            x       y       z     vdW  Elec       q    Type
REMARK                         _______ _______ _______ _____ _____    ______ ____
ROOT
ATOM      1  C   UNL     1      49.002   7.155  13.513  0.00  0.00    +0.000 A 
ATOM      2  C   UNL     1      50.064   7.735  14.221  0.00  0.00    +0.000 A 
ATOM      3  C   UNL     1      51.084   8.424  13.554  0.00  0.00    +0.000 A 
ATOM      4  C   UNL     1      51.064   8.548  12.160  0.00  0.00    +0.000 A 
ATOM      5  C   UNL     1      50.029   7.930  11.446  0.00  0.00    +0.000 A 
ATOM      6  C   UNL     1      49.007   7.244  12.115  0.00  0.00    +0.000 A 
ENDROOT
BRANCH   1   7
ATOM      7  C   UNL     1      47.876   6.453  14.244  0.00  0.00    +0.000 C 
BRANCH   7   8
ATOM      8  N   UNL     1      46.587   6.711  13.604  0.00  0.00    +0.000 NA
ATOM      9  H   UNL     1      46.092   7.438  14.116  0.00  0.00    +0.000 HD
BRANCH   8  10
ATOM     10  C   UNL     1      45.747   5.516  13.569  0.00  0.00    +0.000 C 
BRANCH  10  14
ATOM     11  C   UNL     1      45.335   4.065   9.511  0.00  0.00    +0.000 A 
ATOM     12  C   UNL     1      45.734   5.381   9.748  0.00  0.00    +0.000 A 
ATOM     13  C   UNL     1      45.859   5.849  11.059  0.00  0.00    +0.000 A 
ATOM     14  C   UNL     1      45.582   5.011  12.151  0.00  0.00    +0.000 A 
ATOM     15  C   UNL     1      45.169   3.694  11.899  0.00  0.00    +0.000 A 
ATOM     16  C   UNL     1      45.047   3.224  10.587  0.00  0.00    +0.000 A 
BRANCH  11  18
ATOM     17  C   UNL     1      45.161   3.157   7.044  0.00  0.00    +0.000 C 
ATOM     18  C   UNL     1      45.234   3.575   8.170  0.00  0.00    +0.000 C 
ENDBRANCH  11  18
ENDBRANCH  10  14
ENDBRANCH   8  10
ENDBRANCH   7   8
ENDBRANCH   1   7
BRANCH   4  19
ATOM     19  C   UNL     1      52.151   9.305  11.438  0.00  0.00    +0.000 C 
BRANCH  19  20
ATOM     20  N   UNL     1      52.389   8.755  10.130  0.00  0.00    +0.000 N 
ATOM     21  C   UNL     1      53.451   9.152   9.358  0.00  0.00    +0.000 C 
ATOM     22  O   UNL     1      54.305   9.929   9.771  0.00  0.00    +0.000 OA
ATOM     23  H   UNL     1      51.627   8.247   9.698  0.00  0.00    +0.000 HD
BRANCH  21  24
ATOM     24  C   UNL     1      53.547   8.537   8.028  0.00  0.00    +0.000 A 
ATOM     25  C   UNL     1      53.579   9.344   6.898  0.00  0.00    +0.000 A 
ATOM     26  S   UNL     1      53.766   8.471   5.447  0.00  0.00    +0.000 S 
ATOM     27  C   UNL     1      53.756   6.988   6.280  0.00  0.00    +0.000 A 
ATOM     28  N   UNL     1      53.874   5.837   5.599  0.00  0.00    +0.000 NA
ATOM     29  C   UNL     1      53.825   4.764   6.388  0.00  0.00    +0.000 A 
ATOM     30  N   UNL     1      53.669   4.740   7.717  0.00  0.00    +0.000 NA
ATOM     31  C   UNL     1      53.554   5.921   8.357  0.00  0.00    +0.000 A 
ATOM     32  C   UNL     1      53.611   7.133   7.653  0.00  0.00    +0.000 A 
BRANCH  31  33
ATOM     33  O   UNL     1      53.375   5.931   9.726  0.00  0.00    +0.000 OA
ATOM     34  C   UNL     1      54.573   5.753  10.472  0.00  0.00    +0.000 C 
ENDBRANCH  31  33
ENDBRANCH  21  24
ENDBRANCH  19  20
ENDBRANCH   4  19
TORSDOF 9
ENDMDL
