MODEL 1
REMARK VINA RESULT:    -7.983      0.000      0.000
REMARK INTER + INTRA:         -11.077
REMARK INTER:                 -11.017
REMARK INTRA:                  -0.060
REMARK UNBOUND:                -0.060
REMARK  Name = 
REMARK  10 active torsions:
REMARK  status: ('A' for Active; 'I' for Inactive)
REMARK    1  A    between atoms: C_1  and  O_2
REMARK    2  A    between atoms: O_2  and  C_3
REMARK    3  A    between atoms: C_6  and  C_7
REMARK    4  A    between atoms: C_7  and  C_8
REMARK    5  A    between atoms: C_7  and  C_9
REMARK    6  A    between atoms: C_7  and  C_10
REMARK    7  A    between atoms: C_10  and  O_11
REMARK    8  A    between atoms: O_11  and  C_12
REMARK    9  A    between atoms: C_15  and  C_16
REMARK   10  A    between atoms: C_20  and  N_21
REMARK                            x       y       z     vdW  Elec       q    Type
REMARK                         _______ _______ _______ _____ _____    ______ ____
ROOT
ATOM      1  O   UNL     1      43.733   4.373   9.603  0.00  0.00    +0.000 OA
ENDROOT
BRANCH   1   2
ATOM      2  C   UNL     1      44.780   3.825   8.878  0.00  0.00    +0.000 A 
ATOM      3  N   UNL     1      45.564   4.664   8.153  0.00  0.00    +0.000 NA
ATOM      4  C   UNL     1      46.548   4.083   7.433  0.00  0.00    +0.000 A 
ATOM      5  C   UNL     1      46.730   2.714   7.418  0.00  0.00    +0.000 A 
ATOM      6  N   UNL     1      45.950   1.848   8.134  0.00  0.00    +0.000 NA
ATOM      7  C   UNL     1      44.963   2.423   8.857  0.00  0.00    +0.000 A 
BRANCH   5   8
ATOM      8  C   UNL     1      47.812   2.132   6.582  0.00  0.00    +0.000 C 
ATOM      9  N   UNL     1      48.213   2.892   5.516  0.00  0.00    +0.000 N 
ATOM     10  O   UNL     1      48.323   1.051   6.833  0.00  0.00    +0.000 OA
ATOM     11  H   UNL     1      47.761   3.785   5.328  0.00  0.00    +0.000 HD
ATOM     12  H   UNL     1      48.948   2.551   4.915  0.00  0.00    +0.000 HD
ENDBRANCH   5   8
BRANCH   7  13
ATOM     13  N   UNL     1      44.200   1.536   9.617  0.00  0.00    +0.000 N 
ATOM     14  H   UNL     1      44.721   0.665   9.699  0.00  0.00    +0.000 HD
ATOM     15  H   UNL     1      43.272   1.411   9.225  0.00  0.00    +0.000 HD
ENDBRANCH   7  13
ENDBRANCH   1   2
BRANCH   1  16
ATOM     16  C   UNL     1      43.771   3.926  10.974  0.00  0.00    +0.000 C 
BRANCH  16  17
ATOM     17  C   UNL     1      43.825   5.090  12.008  0.00  0.00    +0.000 C 
ATOM     18  C   UNL     1      43.035   4.653  13.262  0.00  0.00    +0.000 C 
ATOM     19  C   UNL     1      43.120   6.322  11.389  0.00  0.00    +0.000 C 
BRANCH  17  23
ATOM     20  C   UNL     1      47.915   6.140  13.251  0.00  0.00    +0.000 A 
ATOM     21  C   UNL     1      47.108   5.325  14.041  0.00  0.00    +0.000 A 
ATOM     22  C   UNL     1      45.808   4.999  13.632  0.00  0.00    +0.000 A 
ATOM     23  C   UNL     1      45.269   5.474  12.418  0.00  0.00    +0.000 A 
ATOM     24  C   UNL     1      46.114   6.289  11.646  0.00  0.00    +0.000 A 
ATOM     25  F   UNL     1      45.712   6.801  10.476  0.00  0.00    +0.000 F 
ATOM     26  C   UNL     1      47.409   6.613  12.047  0.00  0.00    +0.000 A 
BRANCH  20  28
ATOM     27  C   UNL     1      49.595   7.800  13.016  0.00  0.00    +0.000 C 
ATOM     28  O   UNL     1      49.191   6.537  13.539  0.00  0.00    +0.000 OA
ENDBRANCH  20  28
ENDBRANCH  17  23
ENDBRANCH  16  17
ENDBRANCH   1  16
TORSDOF 7
ENDMDL
MODEL 2
REMARK VINA RESULT:    -7.706      3.780      7.075
REMARK INTER + INTRA:         -10.695
REMARK INTER:                  -9.902
REMARK INTRA:                  -0.793
REMARK UNBOUND:                -0.060
REMARK  Name = 
REMARK  10 active torsions:
REMARK  status: ('A' for Active; 'I' for Inactive)
REMARK    1  A    between atoms: C_1  and  O_2
REMARK    2  A    between atoms: O_2  and  C_3
REMARK    3  A    between atoms: C_6  and  C_7
REMARK    4  A    between atoms: C_7  and  C_8
REMARK    5  A    between atoms: C_7  and  C_9
REMARK    6  A    between atoms: C_7  and  C_10
REMARK    7  A    between atoms: C_10  and  O_11
REMARK    8  A    between atoms: O_11  and  C_12
REMARK    9  A    between atoms: C_15  and  C_16
REMARK   10  A    between atoms: C_20  and  N_21
REMARK                            x       y       z     vdW  Elec       q    Type
REMARK                         _______ _______ _______ _____ _____    ______ ____
ROOT
ATOM      1  O   UNL     1      46.113   4.184  12.832  0.00  0.00    +0.000 OA
ENDROOT
BRANCH   1   2
ATOM      2  C   UNL     1      46.845   4.584  13.939  0.00  0.00    +0.000 A 
ATOM      3  N   UNL     1      46.682   3.894  15.097  0.00  0.00    +0.000 NA
ATOM      4  C   UNL     1      47.387   4.342  16.158  0.00  0.00    +0.000 A 
ATOM      5  C   UNL     1      48.206   5.450  16.075  0.00  0.00    +0.000 A 
ATOM      6  N   UNL     1      48.382   6.165  14.923  0.00  0.00    +0.000 NA
ATOM      7  C   UNL     1      47.680   5.722  13.856  0.00  0.00    +0.000 A 
BRANCH   5   8
ATOM      8  C   UNL     1      48.933   5.912  17.287  0.00  0.00    +0.000 C 
ATOM      9  N   UNL     1      48.300   6.873  18.029  0.00  0.00    +0.000 N 
ATOM     10  O   UNL     1      50.019   5.457  17.612  0.00  0.00    +0.000 OA
ATOM     11  H   UNL     1      47.399   7.238  17.727  0.00  0.00    +0.000 HD
ATOM     12  H   UNL     1      48.742   7.221  18.866  0.00  0.00    +0.000 HD
ENDBRANCH   5   8
BRANCH   7  13
ATOM     13  N   UNL     1      47.899   6.432  12.674  0.00  0.00    +0.000 N 
ATOM     14  H   UNL     1      48.154   7.385  12.923  0.00  0.00    +0.000 HD
ATOM     15  H   UNL     1      47.095   6.382  12.055  0.00  0.00    +0.000 HD
ENDBRANCH   7  13
ENDBRANCH   1   2
BRANCH   1  16
ATOM     16  C   UNL     1      44.746   4.635  12.932  0.00  0.00    +0.000 C 
BRANCH  16  17
ATOM     17  C   UNL     1      44.172   5.187  11.593  0.00  0.00    +0.000 C 
ATOM     18  C   UNL     1      44.555   6.679  11.487  0.00  0.00    +0.000 C 
ATOM     19  C   UNL     1      42.628   5.078  11.645  0.00  0.00    +0.000 C 
BRANCH  17  23
ATOM     20  C   UNL     1      45.706   3.116   8.024  0.00  0.00    +0.000 A 
ATOM     21  C   UNL     1      46.007   4.454   8.267  0.00  0.00    +0.000 A 
ATOM     22  C   UNL     1      45.512   5.099   9.408  0.00  0.00    +0.000 A 
ATOM     23  C   UNL     1      44.700   4.431  10.347  0.00  0.00    +0.000 A 
ATOM     24  C   UNL     1      44.422   3.081  10.072  0.00  0.00    +0.000 A 
ATOM     25  F   UNL     1      43.659   2.344  10.890  0.00  0.00    +0.000 F 
ATOM     26  C   UNL     1      44.915   2.433   8.940  0.00  0.00    +0.000 A 
BRANCH  20  28
ATOM     27  C   UNL     1      47.155   1.430   7.192  0.00  0.00    +0.000 C 
ATOM     28  O   UNL     1      46.117   2.377   6.950  0.00  0.00    +0.000 OA
ENDBRANCH  20  28
ENDBRANCH  17  23
ENDBRANCH  16  17
ENDBRANCH   1  16
TORSDOF 7
ENDMDL
MODEL 3
REMARK VINA RESULT:    -7.641      3.421      6.489
REMARK INTER + INTRA:         -10.605
REMARK INTER:                  -9.775
REMARK INTRA:                  -0.829
REMARK UNBOUND:                -0.060
REMARK  Name = 
REMARK  10 active torsions:
REMARK  status: ('A' for Active; 'I' for Inactive)
REMARK    1  A    between atoms: C_1  and  O_2
REMARK    2  A    between atoms: O_2  and  C_3
REMARK    3  A    between atoms: C_6  and  C_7
REMARK    4  A    between atoms: C_7  and  C_8
REMARK    5  A    between atoms: C_7  and  C_9
REMARK    6  A    between atoms: C_7  and  C_10
REMARK    7  A    between atoms: C_10  and  O_11
REMARK    8  A    between atoms: O_11  and  C_12
REMARK    9  A    between atoms: C_15  and  C_16
REMARK   10  A    between atoms: C_20  and  N_21
REMARK                            x       y       z     vdW  Elec       q    Type
REMARK                         _______ _______ _______ _____ _____    ______ ____
ROOT
ATOM      1  O   UNL     1      45.957   4.186  13.214  0.00  0.00    +0.000 OA
ENDROOT
BRANCH   1   2
ATOM      2  C   UNL     1      46.936   5.036  13.706  0.00  0.00    +0.000 A 
ATOM      3  N   UNL     1      47.434   5.986  12.874  0.00  0.00    +0.000 NA
ATOM      4  C   UNL     1      48.411   6.767  13.384  0.00  0.00    +0.000 A 
ATOM      5  C   UNL     1      48.889   6.593  14.667  0.00  0.00    +0.000 A 
ATOM      6  N   UNL     1      48.409   5.639  15.521  0.00  0.00    +0.000 NA
ATOM      7  C   UNL     1      47.431   4.854  15.018  0.00  0.00    +0.000 A 
BRANCH   5   8
ATOM      8  C   UNL     1      49.988   7.465  15.160  0.00  0.00    +0.000 C 
ATOM      9  N   UNL     1      51.037   7.642  14.300  0.00  0.00    +0.000 N 
ATOM     10  O   UNL     1      49.954   8.003  16.257  0.00  0.00    +0.000 OA
ATOM     11  H   UNL     1      51.040   7.173  13.396  0.00  0.00    +0.000 HD
ATOM     12  H   UNL     1      51.810   8.228  14.577  0.00  0.00    +0.000 HD
ENDBRANCH   5   8
BRANCH   7  13
ATOM     13  N   UNL     1      46.917   3.912  15.911  0.00  0.00    +0.000 N 
ATOM     14  H   UNL     1      46.427   4.413  16.648  0.00  0.00    +0.000 HD
ATOM     15  H   UNL     1      47.644   3.296  16.262  0.00  0.00    +0.000 HD
ENDBRANCH   7  13
ENDBRANCH   1   2
BRANCH   1  16
ATOM     16  C   UNL     1      44.752   4.916  12.907  0.00  0.00    +0.000 C 
BRANCH  16  17
ATOM     17  C   UNL     1      43.854   4.219  11.841  0.00  0.00    +0.000 C 
ATOM     18  C   UNL     1      42.595   5.089  11.634  0.00  0.00    +0.000 C 
ATOM     19  C   UNL     1      43.414   2.845  12.401  0.00  0.00    +0.000 C 
BRANCH  17  23
ATOM     20  C   UNL     1      45.867   3.562   7.982  0.00  0.00    +0.000 A 
ATOM     21  C   UNL     1      45.156   2.541   8.607  0.00  0.00    +0.000 A 
ATOM     22  C   UNL     1      44.519   2.765   9.835  0.00  0.00    +0.000 A 
ATOM     23  C   UNL     1      44.570   4.018  10.481  0.00  0.00    +0.000 A 
ATOM     24  C   UNL     1      45.293   5.025   9.818  0.00  0.00    +0.000 A 
ATOM     25  F   UNL     1      45.414   6.254  10.336  0.00  0.00    +0.000 F 
ATOM     26  C   UNL     1      45.925   4.807   8.595  0.00  0.00    +0.000 A 
BRANCH  20  28
ATOM     27  C   UNL     1      47.641   2.570   6.755  0.00  0.00    +0.000 C 
ATOM     28  O   UNL     1      46.537   3.470   6.794  0.00  0.00    +0.000 OA
ENDBRANCH  20  28
ENDBRANCH  17  23
ENDBRANCH  16  17
ENDBRANCH   1  16
TORSDOF 7
ENDMDL
MODEL 4
REMARK VINA RESULT:    -7.491      3.118      6.325
REMARK INTER + INTRA:         -10.398
REMARK INTER:                  -9.495
REMARK INTRA:                  -0.903
REMARK UNBOUND:                -0.060
REMARK  Name = 
REMARK  10 active torsions:
REMARK  status: ('A' for Active; 'I' for Inactive)
REMARK    1  A    between atoms: C_1  and  O_2
REMARK    2  A    between atoms: O_2  and  C_3
REMARK    3  A    between atoms: C_6  and  C_7
REMARK    4  A    between atoms: C_7  and  C_8
REMARK    5  A    between atoms: C_7  and  C_9
REMARK    6  A    between atoms: C_7  and  C_10
REMARK    7  A    between atoms: C_10  and  O_11
REMARK    8  A    between atoms: O_11  and  C_12
REMARK    9  A    between atoms: C_15  and  C_16
REMARK   10  A    between atoms: C_20  and  N_21
REMARK                            x       y       z     vdW  Elec       q    Type
REMARK                         _______ _______ _______ _____ _____    ______ ____
ROOT
ATOM      1  O   UNL     1      44.947   6.173  12.985  0.00  0.00    +0.000 OA
ENDROOT
BRANCH   1   2
ATOM      2  C   UNL     1      46.183   6.796  12.907  0.00  0.00    +0.000 A 
ATOM      3  N   UNL     1      47.290   6.015  12.833  0.00  0.00    +0.000 NA
ATOM      4  C   UNL     1      48.473   6.664  12.796  0.00  0.00    +0.000 A 
ATOM      5  C   UNL     1      48.551   8.042  12.854  0.00  0.00    +0.000 A 
ATOM      6  N   UNL     1      47.452   8.850  12.937  0.00  0.00    +0.000 NA
ATOM      7  C   UNL     1      46.264   8.206  12.973  0.00  0.00    +0.000 A 
BRANCH   5   8
ATOM      8  C   UNL     1      49.886   8.697  12.841  0.00  0.00    +0.000 C 
ATOM      9  N   UNL     1      50.963   7.853  12.875  0.00  0.00    +0.000 N 
ATOM     10  O   UNL     1      50.018   9.911  12.789  0.00  0.00    +0.000 OA
ATOM     11  H   UNL     1      50.820   6.846  12.927  0.00  0.00    +0.000 HD
ATOM     12  H   UNL     1      51.894   8.240  12.863  0.00  0.00    +0.000 HD
ENDBRANCH   5   8
BRANCH   7  13
ATOM     13  N   UNL     1      45.146   9.041  13.013  0.00  0.00    +0.000 N 
ATOM     14  H   UNL     1      44.498   8.665  13.701  0.00  0.00    +0.000 HD
ATOM     15  H   UNL     1      44.731   9.153  12.093  0.00  0.00    +0.000 HD
ENDBRANCH   7  13
ENDBRANCH   1   2
BRANCH   1  16
ATOM     16  C   UNL     1      45.074   4.755  12.750  0.00  0.00    +0.000 C 
BRANCH  16  17
ATOM     17  C   UNL     1      44.061   4.203  11.702  0.00  0.00    +0.000 C 
ATOM     18  C   UNL     1      42.960   5.266  11.496  0.00  0.00    +0.000 C 
ATOM     19  C   UNL     1      43.408   2.926  12.284  0.00  0.00    +0.000 C 
BRANCH  17  23
ATOM     20  C   UNL     1      45.908   3.178   7.840  0.00  0.00    +0.000 A 
ATOM     21  C   UNL     1      45.257   2.214   8.607  0.00  0.00    +0.000 A 
ATOM     22  C   UNL     1      44.673   2.556   9.833  0.00  0.00    +0.000 A 
ATOM     23  C   UNL     1      44.717   3.872  10.338  0.00  0.00    +0.000 A 
ATOM     24  C   UNL     1      45.378   4.818   9.535  0.00  0.00    +0.000 A 
ATOM     25  F   UNL     1      45.487   6.099   9.910  0.00  0.00    +0.000 F 
ATOM     26  C   UNL     1      45.958   4.484   8.312  0.00  0.00    +0.000 A 
BRANCH  20  28
ATOM     27  C   UNL     1      47.810   2.363   6.677  0.00  0.00    +0.000 C 
ATOM     28  O   UNL     1      46.523   2.974   6.637  0.00  0.00    +0.000 OA
ENDBRANCH  20  28
ENDBRANCH  17  23
ENDBRANCH  16  17
ENDBRANCH   1  16
TORSDOF 7
ENDMDL
MODEL 5
REMARK VINA RESULT:    -7.262      3.369      6.136
REMARK INTER + INTRA:         -10.082
REMARK INTER:                  -9.249
REMARK INTRA:                  -0.833
REMARK UNBOUND:                -0.060
REMARK  Name = 
REMARK  10 active torsions:
REMARK  status: ('A' for Active; 'I' for Inactive)
REMARK    1  A    between atoms: C_1  and  O_2
REMARK    2  A    between atoms: O_2  and  C_3
REMARK    3  A    between atoms: C_6  and  C_7
REMARK    4  A    between atoms: C_7  and  C_8
REMARK    5  A    between atoms: C_7  and  C_9
REMARK    6  A    between atoms: C_7  and  C_10
REMARK    7  A    between atoms: C_10  and  O_11
REMARK    8  A    between atoms: O_11  and  C_12
REMARK    9  A    between atoms: C_15  and  C_16
REMARK   10  A    between atoms: C_20  and  N_21
REMARK                            x       y       z     vdW  Elec       q    Type
REMARK                         _______ _______ _______ _____ _____    ______ ____
ROOT
ATOM      1  O   UNL     1      45.391   6.429  13.221  0.00  0.00    +0.000 OA
ENDROOT
BRANCH   1   2
ATOM      2  C   UNL     1      46.706   6.795  12.976  0.00  0.00    +0.000 A 
ATOM      3  N   UNL     1      46.961   7.576  11.896  0.00  0.00    +0.000 NA
ATOM      4  C   UNL     1      48.259   7.877  11.675  0.00  0.00    +0.000 A 
ATOM      5  C   UNL     1      49.267   7.399  12.488  0.00  0.00    +0.000 A 
ATOM      6  N   UNL     1      49.036   6.606  13.578  0.00  0.00    +0.000 NA
ATOM      7  C   UNL     1      47.739   6.301  13.805  0.00  0.00    +0.000 A 
BRANCH   5   8
ATOM      8  C   UNL     1      50.680   7.741  12.175  0.00  0.00    +0.000 C 
ATOM      9  N   UNL     1      51.460   8.083  13.247  0.00  0.00    +0.000 N 
ATOM     10  O   UNL     1      51.124   7.708  11.037  0.00  0.00    +0.000 OA
ATOM     11  H   UNL     1      51.058   8.111  14.182  0.00  0.00    +0.000 HD
ATOM     12  H   UNL     1      52.429   8.320  13.097  0.00  0.00    +0.000 HD
ENDBRANCH   5   8
BRANCH   7  13
ATOM     13  N   UNL     1      47.510   5.528  14.944  0.00  0.00    +0.000 N 
ATOM     14  H   UNL     1      48.408   5.185  15.276  0.00  0.00    +0.000 HD
ATOM     15  H   UNL     1      46.841   4.785  14.762  0.00  0.00    +0.000 HD
ENDBRANCH   7  13
ENDBRANCH   1   2
BRANCH   1  16
ATOM     16  C   UNL     1      44.640   6.364  11.990  0.00  0.00    +0.000 C 
BRANCH  16  17
ATOM     17  C   UNL     1      44.102   4.940  11.661  0.00  0.00    +0.000 C 
ATOM     18  C   UNL     1      42.565   5.027  11.536  0.00  0.00    +0.000 C 
ATOM     19  C   UNL     1      44.446   4.006  12.847  0.00  0.00    +0.000 C 
BRANCH  17  23
ATOM     20  C   UNL     1      45.811   3.355   7.927  0.00  0.00    +0.000 A 
ATOM     21  C   UNL     1      46.063   4.662   8.338  0.00  0.00    +0.000 A 
ATOM     22  C   UNL     1      45.512   5.152   9.530  0.00  0.00    +0.000 A 
ATOM     23  C   UNL     1      44.692   4.354  10.354  0.00  0.00    +0.000 A 
ATOM     24  C   UNL     1      44.465   3.040   9.910  0.00  0.00    +0.000 A 
ATOM     25  F   UNL     1      43.700   2.189  10.607  0.00  0.00    +0.000 F 
ATOM     26  C   UNL     1      45.013   2.546   8.727  0.00  0.00    +0.000 A 
BRANCH  20  28
ATOM     27  C   UNL     1      47.379   1.869   6.943  0.00  0.00    +0.000 C 
ATOM     28  O   UNL     1      46.278   2.761   6.788  0.00  0.00    +0.000 OA
ENDBRANCH  20  28
ENDBRANCH  17  23
ENDBRANCH  16  17
ENDBRANCH   1  16
TORSDOF 7
ENDMDL
MODEL 6
REMARK VINA RESULT:    -7.100      4.711      6.747
REMARK INTER + INTRA:          -9.859
REMARK INTER:                  -9.330
REMARK INTRA:                  -0.529
REMARK UNBOUND:                -0.060
REMARK  Name = 
REMARK  10 active torsions:
REMARK  status: ('A' for Active; 'I' for Inactive)
REMARK    1  A    between atoms: C_1  and  O_2
REMARK    2  A    between atoms: O_2  and  C_3
REMARK    3  A    between atoms: C_6  and  C_7
REMARK    4  A    between atoms: C_7  and  C_8
REMARK    5  A    between atoms: C_7  and  C_9
REMARK    6  A    between atoms: C_7  and  C_10
REMARK    7  A    between atoms: C_10  and  O_11
REMARK    8  A    between atoms: O_11  and  C_12
REMARK    9  A    between atoms: C_15  and  C_16
REMARK   10  A    between atoms: C_20  and  N_21
REMARK                            x       y       z     vdW  Elec       q    Type
REMARK                         _______ _______ _______ _____ _____    ______ ____
ROOT
ATOM      1  O   UNL     1      47.730   5.136  14.622  0.00  0.00    +0.000 OA
ENDROOT
BRANCH   1   2
ATOM      2  C   UNL     1      46.726   4.848  13.711  0.00  0.00    +0.000 A 
ATOM      3  N   UNL     1      46.450   3.543  13.454  0.00  0.00    +0.000 NA
ATOM      4  C   UNL     1      45.491   3.310  12.533  0.00  0.00    +0.000 A 
ATOM      5  C   UNL     1      44.845   4.338  11.875  0.00  0.00    +0.000 A 
ATOM      6  N   UNL     1      45.109   5.659  12.111  0.00  0.00    +0.000 NA
ATOM      7  C   UNL     1      46.069   5.900  13.033  0.00  0.00    +0.000 A 
BRANCH   5   8
ATOM      8  C   UNL     1      43.819   4.016  10.849  0.00  0.00    +0.000 C 
ATOM      9  N   UNL     1      43.822   4.812   9.736  0.00  0.00    +0.000 N 
ATOM     10  O   UNL     1      43.030   3.092  10.981  0.00  0.00    +0.000 OA
ATOM     11  H   UNL     1      44.487   5.579   9.660  0.00  0.00    +0.000 HD
ATOM     12  H   UNL     1      43.152   4.638   9.002  0.00  0.00    +0.000 HD
ENDBRANCH   5   8
BRANCH   7  13
ATOM     13  N   UNL     1      46.301   7.250  13.298  0.00  0.00    +0.000 N 
ATOM     14  H   UNL     1      46.455   7.723  12.410  0.00  0.00    +0.000 HD
ATOM     15  H   UNL     1      47.065   7.375  13.955  0.00  0.00    +0.000 HD
ENDBRANCH   7  13
ENDBRANCH   1   2
BRANCH   1  16
ATOM     16  C   UNL     1      47.515   4.430  15.862  0.00  0.00    +0.000 C 
BRANCH  16  17
ATOM     17  C   UNL     1      48.365   4.977  17.047  0.00  0.00    +0.000 C 
ATOM     18  C   UNL     1      47.486   4.952  18.317  0.00  0.00    +0.000 C 
ATOM     19  C   UNL     1      48.738   6.447  16.738  0.00  0.00    +0.000 C 
BRANCH  17  23
ATOM     20  C   UNL     1      52.078   2.725  17.770  0.00  0.00    +0.000 A 
ATOM     21  C   UNL     1      52.045   4.114  17.869  0.00  0.00    +0.000 A 
ATOM     22  C   UNL     1      50.856   4.817  17.637  0.00  0.00    +0.000 A 
ATOM     23  C   UNL     1      49.656   4.158  17.299  0.00  0.00    +0.000 A 
ATOM     24  C   UNL     1      49.725   2.757  17.213  0.00  0.00    +0.000 A 
ATOM     25  F   UNL     1      48.651   2.022  16.896  0.00  0.00    +0.000 F 
ATOM     26  C   UNL     1      50.906   2.052  17.446  0.00  0.00    +0.000 A 
BRANCH  20  28
ATOM     27  C   UNL     1      53.053   0.576  17.521  0.00  0.00    +0.000 C 
ATOM     28  O   UNL     1      53.170   1.926  17.962  0.00  0.00    +0.000 OA
ENDBRANCH  20  28
ENDBRANCH  17  23
ENDBRANCH  16  17
ENDBRANCH   1  16
TORSDOF 7
ENDMDL
MODEL 7
REMARK VINA RESULT:    -6.457      4.979      7.194
REMARK INTER + INTRA:          -8.971
REMARK INTER:                  -8.279
REMARK INTRA:                  -0.692
REMARK UNBOUND:                -0.060
REMARK  Name = 
REMARK  10 active torsions:
REMARK  status: ('A' for Active; 'I' for Inactive)
REMARK    1  A    between atoms: C_1  and  O_2
REMARK    2  A    between atoms: O_2  and  C_3
REMARK    3  A    between atoms: C_6  and  C_7
REMARK    4  A    between atoms: C_7  and  C_8
REMARK    5  A    between atoms: C_7  and  C_9
REMARK    6  A    between atoms: C_7  and  C_10
REMARK    7  A    between atoms: C_10  and  O_11
REMARK    8  A    between atoms: O_11  and  C_12
REMARK    9  A    between atoms: C_15  and  C_16
REMARK   10  A    between atoms: C_20  and  N_21
REMARK                            x       y       z     vdW  Elec       q    Type
REMARK                         _______ _______ _______ _____ _____    ______ ____
ROOT
ATOM      1  O   UNL     1      48.148   4.700  14.973  0.00  0.00    +0.000 OA
ENDROOT
BRANCH   1   2
ATOM      2  C   UNL     1      47.126   5.069  14.113  0.00  0.00    +0.000 A 
ATOM      3  N   UNL     1      45.954   4.388  14.183  0.00  0.00    +0.000 NA
ATOM      4  C   UNL     1      45.000   4.756  13.302  0.00  0.00    +0.000 A 
ATOM      5  C   UNL     1      45.213   5.752  12.370  0.00  0.00    +0.000 A 
ATOM      6  N   UNL     1      46.386   6.449  12.274  0.00  0.00    +0.000 NA
ATOM      7  C   UNL     1      47.346   6.085  13.154  0.00  0.00    +0.000 A 
BRANCH   5   8
ATOM      8  C   UNL     1      44.133   6.092  11.406  0.00  0.00    +0.000 C 
ATOM      9  N   UNL     1      43.845   7.425  11.283  0.00  0.00    +0.000 N 
ATOM     10  O   UNL     1      43.548   5.241  10.753  0.00  0.00    +0.000 OA
ATOM     11  H   UNL     1      44.344   8.109  11.847  0.00  0.00    +0.000 HD
ATOM     12  H   UNL     1      43.124   7.716  10.639  0.00  0.00    +0.000 HD
ENDBRANCH   5   8
BRANCH   7  13
ATOM     13  N   UNL     1      48.524   6.830  13.078  0.00  0.00    +0.000 N 
ATOM     14  H   UNL     1      48.537   7.477  13.864  0.00  0.00    +0.000 HD
ATOM     15  H   UNL     1      48.615   7.292  12.178  0.00  0.00    +0.000 HD
ENDBRANCH   7  13
ENDBRANCH   1   2
BRANCH   1  16
ATOM     16  C   UNL     1      47.997   5.345  16.255  0.00  0.00    +0.000 C 
BRANCH  16  17
ATOM     17  C   UNL     1      48.193   4.383  17.465  0.00  0.00    +0.000 C 
ATOM     18  C   UNL     1      47.140   3.258  17.356  0.00  0.00    +0.000 C 
ATOM     19  C   UNL     1      47.928   5.179  18.765  0.00  0.00    +0.000 C 
BRANCH  17  23
ATOM     20  C   UNL     1      52.181   2.526  17.618  0.00  0.00    +0.000 A 
ATOM     21  C   UNL     1      51.040   1.765  17.375  0.00  0.00    +0.000 A 
ATOM     22  C   UNL     1      49.777   2.370  17.328  0.00  0.00    +0.000 A 
ATOM     23  C   UNL     1      49.610   3.757  17.521  0.00  0.00    +0.000 A 
ATOM     24  C   UNL     1      50.783   4.493  17.759  0.00  0.00    +0.000 A 
ATOM     25  F   UNL     1      50.750   5.817  17.959  0.00  0.00    +0.000 F 
ATOM     26  C   UNL     1      52.043   3.896  17.803  0.00  0.00    +0.000 A 
BRANCH  20  28
ATOM     27  C   UNL     1      53.659   0.686  17.366  0.00  0.00    +0.000 C 
ATOM     28  O   UNL     1      53.463   2.058  17.697  0.00  0.00    +0.000 OA
ENDBRANCH  20  28
ENDBRANCH  17  23
ENDBRANCH  16  17
ENDBRANCH   1  16
TORSDOF 7
ENDMDL
MODEL 8
REMARK VINA RESULT:    -6.410      4.348      7.695
REMARK INTER + INTRA:          -8.906
REMARK INTER:                  -8.172
REMARK INTRA:                  -0.733
REMARK UNBOUND:                -0.060
REMARK  Name = 
REMARK  10 active torsions:
REMARK  status: ('A' for Active; 'I' for Inactive)
REMARK    1  A    between atoms: C_1  and  O_2
REMARK    2  A    between atoms: O_2  and  C_3
REMARK    3  A    between atoms: C_6  and  C_7
REMARK    4  A    between atoms: C_7  and  C_8
REMARK    5  A    between atoms: C_7  and  C_9
REMARK    6  A    between atoms: C_7  and  C_10
REMARK    7  A    between atoms: C_10  and  O_11
REMARK    8  A    between atoms: O_11  and  C_12
REMARK    9  A    between atoms: C_15  and  C_16
REMARK   10  A    between atoms: C_20  and  N_21
REMARK                            x       y       z     vdW  Elec       q    Type
REMARK                         _______ _______ _______ _____ _____    ______ ____
ROOT
ATOM      1  O   UNL     1      48.081   6.042  13.848  0.00  0.00    +0.000 OA
ENDROOT
BRANCH   1   2
ATOM      2  C   UNL     1      48.343   5.647  15.151  0.00  0.00    +0.000 A 
ATOM      3  N   UNL     1      49.255   6.356  15.863  0.00  0.00    +0.000 NA
ATOM      4  C   UNL     1      49.506   5.913  17.114  0.00  0.00    +0.000 A 
ATOM      5  C   UNL     1      48.886   4.791  17.628  0.00  0.00    +0.000 A 
ATOM      6  N   UNL     1      47.969   4.056  16.929  0.00  0.00    +0.000 NA
ATOM      7  C   UNL     1      47.713   4.495  15.676  0.00  0.00    +0.000 A 
BRANCH   5   8
ATOM      8  C   UNL     1      49.227   4.335  19.001  0.00  0.00    +0.000 C 
ATOM      9  N   UNL     1      48.378   3.411  19.549  0.00  0.00    +0.000 N 
ATOM     10  O   UNL     1      50.209   4.746  19.602  0.00  0.00    +0.000 OA
ATOM     11  H   UNL     1      47.564   3.096  19.026  0.00  0.00    +0.000 HD
ATOM     12  H   UNL     1      48.562   3.061  20.477  0.00  0.00    +0.000 HD
ENDBRANCH   5   8
BRANCH   7  13
ATOM     13  N   UNL     1      46.744   3.765  14.986  0.00  0.00    +0.000 N 
ATOM     14  H   UNL     1      47.186   3.353  14.167  0.00  0.00    +0.000 HD
ATOM     15  H   UNL     1      45.937   4.338  14.759  0.00  0.00    +0.000 HD
ENDBRANCH   7  13
ENDBRANCH   1   2
BRANCH   1  16
ATOM     16  C   UNL     1      47.143   7.139  13.825  0.00  0.00    +0.000 C 
BRANCH  16  17
ATOM     17  C   UNL     1      46.648   7.506  12.394  0.00  0.00    +0.000 C 
ATOM     18  C   UNL     1      47.877   7.918  11.554  0.00  0.00    +0.000 C 
ATOM     19  C   UNL     1      45.699   8.724  12.506  0.00  0.00    +0.000 C 
BRANCH  17  23
ATOM     20  C   UNL     1      44.589   4.218  10.313  0.00  0.00    +0.000 A 
ATOM     21  C   UNL     1      45.520   5.018   9.654  0.00  0.00    +0.000 A 
ATOM     22  C   UNL     1      46.168   6.060  10.330  0.00  0.00    +0.000 A 
ATOM     23  C   UNL     1      45.910   6.340  11.688  0.00  0.00    +0.000 A 
ATOM     24  C   UNL     1      44.969   5.510  12.321  0.00  0.00    +0.000 A 
ATOM     25  F   UNL     1      44.641   5.681  13.608  0.00  0.00    +0.000 F 
ATOM     26  C   UNL     1      44.324   4.469  11.654  0.00  0.00    +0.000 A 
BRANCH  20  28
ATOM     27  C   UNL     1      44.648   2.175   9.108  0.00  0.00    +0.000 C 
ATOM     28  O   UNL     1      43.885   3.181   9.768  0.00  0.00    +0.000 OA
ENDBRANCH  20  28
ENDBRANCH  17  23
ENDBRANCH  16  17
ENDBRANCH   1  16
TORSDOF 7
ENDMDL
MODEL 9
REMARK VINA RESULT:    -6.363      3.617      5.976
REMARK INTER + INTRA:          -8.842
REMARK INTER:                  -8.076
REMARK INTRA:                  -0.766
REMARK UNBOUND:                -0.060
REMARK  Name = 
REMARK  10 active torsions:
REMARK  status: ('A' for Active; 'I' for Inactive)
REMARK    1  A    between atoms: C_1  and  O_2
REMARK    2  A    between atoms: O_2  and  C_3
REMARK    3  A    between atoms: C_6  and  C_7
REMARK    4  A    between atoms: C_7  and  C_8
REMARK    5  A    between atoms: C_7  and  C_9
REMARK    6  A    between atoms: C_7  and  C_10
REMARK    7  A    between atoms: C_10  and  O_11
REMARK    8  A    between atoms: O_11  and  C_12
REMARK    9  A    between atoms: C_15  and  C_16
REMARK   10  A    between atoms: C_20  and  N_21
REMARK                            x       y       z     vdW  Elec       q    Type
REMARK                         _______ _______ _______ _____ _____    ______ ____
ROOT
ATOM      1  O   UNL     1      48.333   5.945  13.310  0.00  0.00    +0.000 OA
ENDROOT
BRANCH   1   2
ATOM      2  C   UNL     1      47.142   5.379  12.882  0.00  0.00    +0.000 A 
ATOM      3  N   UNL     1      46.566   5.874  11.757  0.00  0.00    +0.000 NA
ATOM      4  C   UNL     1      45.389   5.318  11.398  0.00  0.00    +0.000 A 
ATOM      5  C   UNL     1      44.797   4.319  12.146  0.00  0.00    +0.000 A 
ATOM      6  N   UNL     1      45.353   3.808  13.286  0.00  0.00    +0.000 NA
ATOM      7  C   UNL     1      46.532   4.360  13.650  0.00  0.00    +0.000 A 
BRANCH   5   8
ATOM      8  C   UNL     1      43.485   3.768  11.716  0.00  0.00    +0.000 C 
ATOM      9  N   UNL     1      43.372   2.405  11.754  0.00  0.00    +0.000 N 
ATOM     10  O   UNL     1      42.559   4.483  11.363  0.00  0.00    +0.000 OA
ATOM     11  H   UNL     1      44.165   1.836  12.044  0.00  0.00    +0.000 HD
ATOM     12  H   UNL     1      42.503   1.973  11.478  0.00  0.00    +0.000 HD
ENDBRANCH   5   8
BRANCH   7  13
ATOM     13  N   UNL     1      47.113   3.803  14.789  0.00  0.00    +0.000 N 
ATOM     14  H   UNL     1      46.385   3.314  15.306  0.00  0.00    +0.000 HD
ATOM     15  H   UNL     1      47.595   4.504  15.344  0.00  0.00    +0.000 HD
ENDBRANCH   7  13
ENDBRANCH   1   2
BRANCH   1  16
ATOM     16  C   UNL     1      48.089   7.180  14.014  0.00  0.00    +0.000 C 
BRANCH  16  17
ATOM     17  C   UNL     1      48.549   8.446  13.232  0.00  0.00    +0.000 C 
ATOM     18  C   UNL     1      49.474   7.989  12.083  0.00  0.00    +0.000 C 
ATOM     19  C   UNL     1      49.367   9.341  14.195  0.00  0.00    +0.000 C 
BRANCH  17  23
ATOM     20  C   UNL     1      45.138  10.705  11.606  0.00  0.00    +0.000 A 
ATOM     21  C   UNL     1      44.944   9.607  12.440  0.00  0.00    +0.000 A 
ATOM     22  C   UNL     1      46.040   8.898  12.951  0.00  0.00    +0.000 A 
ATOM     23  C   UNL     1      47.368   9.262  12.648  0.00  0.00    +0.000 A 
ATOM     24  C   UNL     1      47.525  10.378  11.808  0.00  0.00    +0.000 A 
ATOM     25  F   UNL     1      48.738  10.816  11.448  0.00  0.00    +0.000 F 
ATOM     26  C   UNL     1      46.438  11.089  11.300  0.00  0.00    +0.000 A 
BRANCH  20  28
ATOM     27  C   UNL     1      42.823  10.998  11.175  0.00  0.00    +0.000 C 
ATOM     28  O   UNL     1      44.160  11.472  11.038  0.00  0.00    +0.000 OA
ENDBRANCH  20  28
ENDBRANCH  17  23
ENDBRANCH  16  17
ENDBRANCH   1  16
TORSDOF 7
ENDMDL
