MODEL 1
REMARK VINA RESULT:    -8.404      0.000      0.000
REMARK INTER + INTRA:         -12.576
REMARK INTER:                 -11.597
REMARK INTRA:                  -0.979
REMARK UNBOUND:                -0.979
REMARK  Name = 
REMARK  8 active torsions:
REMARK  status: ('A' for Active; 'I' for Inactive)
REMARK    1  A    between atoms: C_1  and  C_2
REMARK    2  A    between atoms: C_2  and  C_3
REMARK    3  A    between atoms: C_7  and  C_8
REMARK    4  A    between atoms: C_8  and  C_9
REMARK    5  A    between atoms: C_9  and  N_10
REMARK    6  A    between atoms: N_10  and  C_11
REMARK    7  A    between atoms: C_14  and  C_15
REMARK    8  A    between atoms: C_24  and  O_25
REMARK                            x       y       z     vdW  Elec       q    Type
REMARK                         _______ _______ _______ _____ _____    ______ ____
ROOT
ATOM      1  C   UNL     1      44.985   4.513  12.383  0.00  0.00    +0.000 C 
ENDROOT
BRANCH   1   6
ATOM      2  C   UNL     1      47.500   4.929  15.237  0.00  0.00    +0.000 A 
ATOM      3  C   UNL     1      48.180   6.081  14.797  0.00  0.00    +0.000 A 
ATOM      4  C   UNL     1      47.810   6.743  13.624  0.00  0.00    +0.000 A 
ATOM      5  C   UNL     1      46.762   6.257  12.849  0.00  0.00    +0.000 A 
ATOM      6  C   UNL     1      46.080   5.103  13.242  0.00  0.00    +0.000 A 
ATOM      7  C   UNL     1      46.434   4.472  14.446  0.00  0.00    +0.000 A 
BRANCH   2   9
ATOM      8  C   UNL     1      48.302   2.722  16.070  0.00  0.00    +0.000 C 
ATOM      9  C   UNL     1      47.999   4.175  16.482  0.00  0.00    +0.000 C 
ATOM     10  C   UNL     1      49.249   4.859  17.102  0.00  0.00    +0.000 C 
ATOM     11  C   UNL     1      48.757   5.715  18.280  0.00  0.00    +0.000 C 
ATOM     12  C   UNL     1      47.250   5.512  18.348  0.00  0.00    +0.000 C 
ATOM     13  C   UNL     1      47.036   4.157  17.690  0.00  0.00    +0.000 C 
BRANCH  12  14
ATOM     14  O   UNL     1      46.767   5.529  19.678  0.00  0.00    +0.000 OA
ATOM     15  H   UNL     1      45.827   5.280  19.667  0.00  0.00    +0.000 HD
ENDBRANCH  12  14
ENDBRANCH   2   9
ENDBRANCH   1   6
BRANCH   1  16
ATOM     16  C   UNL     1      44.496   5.497  11.323  0.00  0.00    +0.000 C 
BRANCH  16  17
ATOM     17  N   UNL     1      43.846   4.793  10.213  0.00  0.00    +0.000 N 
ATOM     18  H   UNL     1      43.232   5.391   9.656  0.00  0.00    +0.000 HD
BRANCH  17  19
ATOM     19  C   UNL     1      44.681   4.041   9.362  0.00  0.00    +0.000 A 
ATOM     20  C   UNL     1      45.585   4.638   8.476  0.00  0.00    +0.000 A 
ATOM     21  C   UNL     1      46.436   3.865   7.684  0.00  0.00    +0.000 A 
ATOM     22  C   UNL     1      46.442   2.469   7.778  0.00  0.00    +0.000 A 
ATOM     23  C   UNL     1      45.581   1.854   8.694  0.00  0.00    +0.000 A 
ATOM     24  C   UNL     1      44.730   2.640   9.474  0.00  0.00    +0.000 A 
ATOM     25  F   UNL     1      43.913   2.020  10.341  0.00  0.00    +0.000 F 
BRANCH  22  26
ATOM     26  C   UNL     1      47.378   1.730   6.893  0.00  0.00    +0.000 C 
ATOM     27  N   UNL     1      48.502   2.365   6.440  0.00  0.00    +0.000 N 
ATOM     28  O   UNL     1      47.163   0.571   6.559  0.00  0.00    +0.000 OA
ATOM     29  H   UNL     1      48.767   3.315   6.653  0.00  0.00    +0.000 HD
ATOM     30  H   UNL     1      49.110   1.825   5.836  0.00  0.00    +0.000 HD
ENDBRANCH  22  26
ENDBRANCH  17  19
ENDBRANCH  16  17
ENDBRANCH   1  16
TORSDOF 7
ENDMDL
MODEL 2
REMARK VINA RESULT:    -8.162      2.509      3.965
REMARK INTER + INTRA:         -12.242
REMARK INTER:                 -11.177
REMARK INTRA:                  -1.066
REMARK UNBOUND:                -0.979
REMARK  Name = 
REMARK  8 active torsions:
REMARK  status: ('A' for Active; 'I' for Inactive)
REMARK    1  A    between atoms: C_1  and  C_2
REMARK    2  A    between atoms: C_2  and  C_3
REMARK    3  A    between atoms: C_7  and  C_8
REMARK    4  A    between atoms: C_8  and  C_9
REMARK    5  A    between atoms: C_9  and  N_10
REMARK    6  A    between atoms: N_10  and  C_11
REMARK    7  A    between atoms: C_14  and  C_15
REMARK    8  A    between atoms: C_24  and  O_25
REMARK                            x       y       z     vdW  Elec       q    Type
REMARK                         _______ _______ _______ _____ _____    ______ ____
ROOT
ATOM      1  C   UNL     1      45.096   4.476  12.135  0.00  0.00    +0.000 C 
ENDROOT
BRANCH   1   6
ATOM      2  C   UNL     1      47.790   6.992  13.163  0.00  0.00    +0.000 A 
ATOM      3  C   UNL     1      48.166   6.453  14.408  0.00  0.00    +0.000 A 
ATOM      4  C   UNL     1      47.597   5.273  14.894  0.00  0.00    +0.000 A 
ATOM      5  C   UNL     1      46.620   4.613  14.154  0.00  0.00    +0.000 A 
ATOM      6  C   UNL     1      46.205   5.133  12.925  0.00  0.00    +0.000 A 
ATOM      7  C   UNL     1      46.816   6.296  12.429  0.00  0.00    +0.000 A 
BRANCH   2   9
ATOM      8  C   UNL     1      47.204   9.339  12.563  0.00  0.00    +0.000 C 
ATOM      9  C   UNL     1      48.371   8.342  12.707  0.00  0.00    +0.000 C 
ATOM     10  C   UNL     1      49.443   8.868  13.702  0.00  0.00    +0.000 C 
ATOM     11  C   UNL     1      50.817   8.507  13.116  0.00  0.00    +0.000 C 
ATOM     12  C   UNL     1      50.540   7.800  11.796  0.00  0.00    +0.000 C 
ATOM     13  C   UNL     1      49.170   8.321  11.386  0.00  0.00    +0.000 C 
BRANCH  12  14
ATOM     14  O   UNL     1      51.522   8.087  10.818  0.00  0.00    +0.000 OA
ATOM     15  H   UNL     1      51.190   8.801  10.249  0.00  0.00    +0.000 HD
ENDBRANCH  12  14
ENDBRANCH   2   9
ENDBRANCH   1   6
BRANCH   1  16
ATOM     16  C   UNL     1      44.368   5.472  11.235  0.00  0.00    +0.000 C 
BRANCH  16  17
ATOM     17  N   UNL     1      43.766   4.794  10.082  0.00  0.00    +0.000 N 
ATOM     18  H   UNL     1      43.197   5.412   9.500  0.00  0.00    +0.000 HD
BRANCH  17  19
ATOM     19  C   UNL     1      44.632   4.034   9.270  0.00  0.00    +0.000 A 
ATOM     20  C   UNL     1      45.549   4.622   8.393  0.00  0.00    +0.000 A 
ATOM     21  C   UNL     1      46.430   3.843   7.640  0.00  0.00    +0.000 A 
ATOM     22  C   UNL     1      46.450   2.449   7.767  0.00  0.00    +0.000 A 
ATOM     23  C   UNL     1      45.574   1.844   8.675  0.00  0.00    +0.000 A 
ATOM     24  C   UNL     1      44.694   2.637   9.415  0.00  0.00    +0.000 A 
ATOM     25  F   UNL     1      43.863   2.026  10.276  0.00  0.00    +0.000 F 
BRANCH  22  26
ATOM     26  C   UNL     1      47.417   1.702   6.922  0.00  0.00    +0.000 C 
ATOM     27  N   UNL     1      48.509   2.359   6.427  0.00  0.00    +0.000 N 
ATOM     28  O   UNL     1      47.254   0.516   6.659  0.00  0.00    +0.000 OA
ATOM     29  H   UNL     1      48.732   3.331   6.581  0.00  0.00    +0.000 HD
ATOM     30  H   UNL     1      49.140   1.812   5.853  0.00  0.00    +0.000 HD
ENDBRANCH  22  26
ENDBRANCH  17  19
ENDBRANCH  16  17
ENDBRANCH   1  16
TORSDOF 7
ENDMDL
MODEL 3
REMARK VINA RESULT:    -8.117      2.901      3.752
REMARK INTER + INTRA:         -12.180
REMARK INTER:                 -11.384
REMARK INTRA:                  -0.796
REMARK UNBOUND:                -0.979
REMARK  Name = 
REMARK  8 active torsions:
REMARK  status: ('A' for Active; 'I' for Inactive)
REMARK    1  A    between atoms: C_1  and  C_2
REMARK    2  A    between atoms: C_2  and  C_3
REMARK    3  A    between atoms: C_7  and  C_8
REMARK    4  A    between atoms: C_8  and  C_9
REMARK    5  A    between atoms: C_9  and  N_10
REMARK    6  A    between atoms: N_10  and  C_11
REMARK    7  A    between atoms: C_14  and  C_15
REMARK    8  A    between atoms: C_24  and  O_25
REMARK                            x       y       z     vdW  Elec       q    Type
REMARK                         _______ _______ _______ _____ _____    ______ ____
ROOT
ATOM      1  C   UNL     1      45.665   5.450  11.387  0.00  0.00    +0.000 C 
ENDROOT
BRANCH   1   6
ATOM      2  C   UNL     1      47.631   8.568  12.414  0.00  0.00    +0.000 A 
ATOM      3  C   UNL     1      46.605   9.531  12.365  0.00  0.00    +0.000 A 
ATOM      4  C   UNL     1      45.290   9.181  12.050  0.00  0.00    +0.000 A 
ATOM      5  C   UNL     1      44.972   7.858  11.756  0.00  0.00    +0.000 A 
ATOM      6  C   UNL     1      45.969   6.880  11.771  0.00  0.00    +0.000 A 
ATOM      7  C   UNL     1      47.278   7.239  12.132  0.00  0.00    +0.000 A 
BRANCH   2   9
ATOM      8  C   UNL     1      49.586   9.749  11.416  0.00  0.00    +0.000 C 
ATOM      9  C   UNL     1      49.083   9.010  12.671  0.00  0.00    +0.000 C 
ATOM     10  C   UNL     1      49.192   9.905  13.937  0.00  0.00    +0.000 C 
ATOM     11  C   UNL     1      49.660   9.002  15.089  0.00  0.00    +0.000 C 
ATOM     12  C   UNL     1      49.834   7.613  14.491  0.00  0.00    +0.000 C 
ATOM     13  C   UNL     1      50.080   7.881  13.014  0.00  0.00    +0.000 C 
BRANCH  12  14
ATOM     14  O   UNL     1      50.911   6.907  15.080  0.00  0.00    +0.000 OA
ATOM     15  H   UNL     1      51.712   7.453  15.008  0.00  0.00    +0.000 HD
ENDBRANCH  12  14
ENDBRANCH   2   9
ENDBRANCH   1   6
BRANCH   1  16
ATOM     16  C   UNL     1      44.164   5.184  11.313  0.00  0.00    +0.000 C 
BRANCH  16  17
ATOM     17  N   UNL     1      43.750   4.886   9.938  0.00  0.00    +0.000 N 
ATOM     18  H   UNL     1      43.532   5.721   9.390  0.00  0.00    +0.000 HD
BRANCH  17  19
ATOM     19  C   UNL     1      44.589   4.032   9.194  0.00  0.00    +0.000 A 
ATOM     20  C   UNL     1      45.520   4.514   8.267  0.00  0.00    +0.000 A 
ATOM     21  C   UNL     1      46.374   3.645   7.583  0.00  0.00    +0.000 A 
ATOM     22  C   UNL     1      46.352   2.268   7.831  0.00  0.00    +0.000 A 
ATOM     23  C   UNL     1      45.462   1.771   8.790  0.00  0.00    +0.000 A 
ATOM     24  C   UNL     1      44.610   2.652   9.459  0.00  0.00    +0.000 A 
ATOM     25  F   UNL     1      43.765   2.144  10.372  0.00  0.00    +0.000 F 
BRANCH  22  26
ATOM     26  C   UNL     1      47.293   1.422   7.053  0.00  0.00    +0.000 C 
ATOM     27  N   UNL     1      48.366   2.011   6.444  0.00  0.00    +0.000 N 
ATOM     28  O   UNL     1      47.124   0.212   6.943  0.00  0.00    +0.000 OA
ATOM     29  H   UNL     1      48.591   2.994   6.470  0.00  0.00    +0.000 HD
ATOM     30  H   UNL     1      48.979   1.397   5.921  0.00  0.00    +0.000 HD
ENDBRANCH  22  26
ENDBRANCH  17  19
ENDBRANCH  16  17
ENDBRANCH   1  16
TORSDOF 7
ENDMDL
MODEL 4
REMARK VINA RESULT:    -7.814      1.797      2.676
REMARK INTER + INTRA:         -11.762
REMARK INTER:                 -11.092
REMARK INTRA:                  -0.670
REMARK UNBOUND:                -0.979
REMARK  Name = 
REMARK  8 active torsions:
REMARK  status: ('A' for Active; 'I' for Inactive)
REMARK    1  A    between atoms: C_1  and  C_2
REMARK    2  A    between atoms: C_2  and  C_3
REMARK    3  A    between atoms: C_7  and  C_8
REMARK    4  A    between atoms: C_8  and  C_9
REMARK    5  A    between atoms: C_9  and  N_10
REMARK    6  A    between atoms: N_10  and  C_11
REMARK    7  A    between atoms: C_14  and  C_15
REMARK    8  A    between atoms: C_24  and  O_25
REMARK                            x       y       z     vdW  Elec       q    Type
REMARK                         _______ _______ _______ _____ _____    ______ ____
ROOT
ATOM      1  C   UNL     1      45.330   6.319  11.220  0.00  0.00    +0.000 C 
ENDROOT
BRANCH   1   6
ATOM      2  C   UNL     1      48.057   6.648  13.884  0.00  0.00    +0.000 A 
ATOM      3  C   UNL     1      47.779   5.507  14.661  0.00  0.00    +0.000 A 
ATOM      4  C   UNL     1      46.759   4.618  14.312  0.00  0.00    +0.000 A 
ATOM      5  C   UNL     1      45.977   4.860  13.186  0.00  0.00    +0.000 A 
ATOM      6  C   UNL     1      46.209   5.995  12.406  0.00  0.00    +0.000 A 
ATOM      7  C   UNL     1      47.265   6.857  12.744  0.00  0.00    +0.000 A 
BRANCH   2   9
ATOM      8  C   UNL     1      50.057   7.948  13.164  0.00  0.00    +0.000 C 
ATOM      9  C   UNL     1      49.124   7.651  14.355  0.00  0.00    +0.000 C 
ATOM     10  C   UNL     1      48.481   8.954  14.907  0.00  0.00    +0.000 C 
ATOM     11  C   UNL     1      48.460   8.833  16.438  0.00  0.00    +0.000 C 
ATOM     12  C   UNL     1      49.098   7.489  16.763  0.00  0.00    +0.000 C 
ATOM     13  C   UNL     1      49.984   7.207  15.559  0.00  0.00    +0.000 C 
BRANCH  12  14
ATOM     14  O   UNL     1      49.847   7.529  17.964  0.00  0.00    +0.000 OA
ATOM     15  H   UNL     1      50.688   7.064  17.817  0.00  0.00    +0.000 HD
ENDBRANCH  12  14
ENDBRANCH   2   9
ENDBRANCH   1   6
BRANCH   1  16
ATOM     16  C   UNL     1      44.110   5.404  11.144  0.00  0.00    +0.000 C 
BRANCH  16  17
ATOM     17  N   UNL     1      43.783   5.080   9.752  0.00  0.00    +0.000 N 
ATOM     18  H   UNL     1      43.731   5.901   9.145  0.00  0.00    +0.000 HD
BRANCH  17  19
ATOM     19  C   UNL     1      44.558   4.077   9.135  0.00  0.00    +0.000 A 
ATOM     20  C   UNL     1      45.530   4.365   8.170  0.00  0.00    +0.000 A 
ATOM     21  C   UNL     1      46.318   3.355   7.615  0.00  0.00    +0.000 A 
ATOM     22  C   UNL     1      46.190   2.026   8.035  0.00  0.00    +0.000 A 
ATOM     23  C   UNL     1      45.259   1.724   9.035  0.00  0.00    +0.000 A 
ATOM     24  C   UNL     1      44.472   2.744   9.574  0.00  0.00    +0.000 A 
ATOM     25  F   UNL     1      43.585   2.422  10.530  0.00  0.00    +0.000 F 
BRANCH  22  26
ATOM     26  C   UNL     1      47.068   1.019   7.386  0.00  0.00    +0.000 C 
ATOM     27  N   UNL     1      46.866  -0.306   7.654  0.00  0.00    +0.000 N 
ATOM     28  O   UNL     1      47.967   1.352   6.622  0.00  0.00    +0.000 OA
ATOM     29  H   UNL     1      46.160  -0.682   8.268  0.00  0.00    +0.000 HD
ATOM     30  H   UNL     1      47.491  -0.958   7.192  0.00  0.00    +0.000 HD
ENDBRANCH  22  26
ENDBRANCH  17  19
ENDBRANCH  16  17
ENDBRANCH   1  16
TORSDOF 7
ENDMDL
MODEL 5
REMARK VINA RESULT:    -7.282      4.218      8.597
REMARK INTER + INTRA:         -11.029
REMARK INTER:                 -10.138
REMARK INTRA:                  -0.891
REMARK UNBOUND:                -0.979
REMARK  Name = 
REMARK  8 active torsions:
REMARK  status: ('A' for Active; 'I' for Inactive)
REMARK    1  A    between atoms: C_1  and  C_2
REMARK    2  A    between atoms: C_2  and  C_3
REMARK    3  A    between atoms: C_7  and  C_8
REMARK    4  A    between atoms: C_8  and  C_9
REMARK    5  A    between atoms: C_9  and  N_10
REMARK    6  A    between atoms: N_10  and  C_11
REMARK    7  A    between atoms: C_14  and  C_15
REMARK    8  A    between atoms: C_24  and  O_25
REMARK                            x       y       z     vdW  Elec       q    Type
REMARK                         _______ _______ _______ _____ _____    ______ ____
ROOT
ATOM      1  C   UNL     1      47.114   4.570  15.252  0.00  0.00    +0.000 C 
ENDROOT
BRANCH   1   6
ATOM      2  C   UNL     1      45.305   4.961  11.903  0.00  0.00    +0.000 A 
ATOM      3  C   UNL     1      46.037   6.031  11.353  0.00  0.00    +0.000 A 
ATOM      4  C   UNL     1      47.125   6.593  12.026  0.00  0.00    +0.000 A 
ATOM      5  C   UNL     1      47.496   6.110  13.277  0.00  0.00    +0.000 A 
ATOM      6  C   UNL     1      46.778   5.065  13.864  0.00  0.00    +0.000 A 
ATOM      7  C   UNL     1      45.713   4.482  13.158  0.00  0.00    +0.000 A 
BRANCH   2   9
ATOM      8  C   UNL     1      42.815   4.880  11.972  0.00  0.00    +0.000 C 
ATOM      9  C   UNL     1      44.056   4.435  11.174  0.00  0.00    +0.000 C 
ATOM     10  C   UNL     1      43.996   4.939   9.705  0.00  0.00    +0.000 C 
ATOM     11  C   UNL     1      44.530   3.807   8.817  0.00  0.00    +0.000 C 
ATOM     12  C   UNL     1      44.877   2.661   9.757  0.00  0.00    +0.000 C 
ATOM     13  C   UNL     1      43.990   2.905  10.969  0.00  0.00    +0.000 C 
BRANCH  12  14
ATOM     14  O   UNL     1      44.627   1.395   9.174  0.00  0.00    +0.000 OA
ATOM     15  H   UNL     1      44.842   1.445   8.228  0.00  0.00    +0.000 HD
ENDBRANCH  12  14
ENDBRANCH   2   9
ENDBRANCH   1   6
BRANCH   1  16
ATOM     16  C   UNL     1      48.240   5.380  15.891  0.00  0.00    +0.000 C 
BRANCH  16  17
ATOM     17  N   UNL     1      48.550   4.877  17.233  0.00  0.00    +0.000 N 
ATOM     18  H   UNL     1      47.743   4.472  17.712  0.00  0.00    +0.000 HD
BRANCH  17  19
ATOM     19  C   UNL     1      49.657   4.012  17.346  0.00  0.00    +0.000 A 
ATOM     20  C   UNL     1      50.925   4.459  17.735  0.00  0.00    +0.000 A 
ATOM     21  C   UNL     1      51.989   3.569  17.888  0.00  0.00    +0.000 A 
ATOM     22  C   UNL     1      51.814   2.194  17.697  0.00  0.00    +0.000 A 
ATOM     23  C   UNL     1      50.542   1.719  17.356  0.00  0.00    +0.000 A 
ATOM     24  C   UNL     1      49.490   2.623  17.199  0.00  0.00    +0.000 A 
ATOM     25  F   UNL     1      48.282   2.138  16.868  0.00  0.00    +0.000 F 
BRANCH  22  26
ATOM     26  C   UNL     1      53.004   1.323  17.878  0.00  0.00    +0.000 C 
ATOM     27  N   UNL     1      52.819  -0.010  18.116  0.00  0.00    +0.000 N 
ATOM     28  O   UNL     1      54.142   1.776  17.824  0.00  0.00    +0.000 OA
ATOM     29  H   UNL     1      51.928  -0.479  18.184  0.00  0.00    +0.000 HD
ATOM     30  H   UNL     1      53.658  -0.565  18.237  0.00  0.00    +0.000 HD
ENDBRANCH  22  26
ENDBRANCH  17  19
ENDBRANCH  16  17
ENDBRANCH   1  16
TORSDOF 7
ENDMDL
MODEL 6
REMARK VINA RESULT:    -7.254      1.710      2.398
REMARK INTER + INTRA:         -10.990
REMARK INTER:                 -10.098
REMARK INTRA:                  -0.891
REMARK UNBOUND:                -0.979
REMARK  Name = 
REMARK  8 active torsions:
REMARK  status: ('A' for Active; 'I' for Inactive)
REMARK    1  A    between atoms: C_1  and  C_2
REMARK    2  A    between atoms: C_2  and  C_3
REMARK    3  A    between atoms: C_7  and  C_8
REMARK    4  A    between atoms: C_8  and  C_9
REMARK    5  A    between atoms: C_9  and  N_10
REMARK    6  A    between atoms: N_10  and  C_11
REMARK    7  A    between atoms: C_14  and  C_15
REMARK    8  A    between atoms: C_24  and  O_25
REMARK                            x       y       z     vdW  Elec       q    Type
REMARK                         _______ _______ _______ _____ _____    ______ ____
ROOT
ATOM      1  C   UNL     1      45.901   3.965  12.887  0.00  0.00    +0.000 C 
ENDROOT
BRANCH   1   6
ATOM      2  C   UNL     1      47.982   5.516  15.700  0.00  0.00    +0.000 A 
ATOM      3  C   UNL     1      48.646   6.530  14.983  0.00  0.00    +0.000 A 
ATOM      4  C   UNL     1      48.398   6.744  13.624  0.00  0.00    +0.000 A 
ATOM      5  C   UNL     1      47.493   5.935  12.944  0.00  0.00    +0.000 A 
ATOM      6  C   UNL     1      46.834   4.904  13.618  0.00  0.00    +0.000 A 
ATOM      7  C   UNL     1      47.061   4.727  14.993  0.00  0.00    +0.000 A 
BRANCH   2   9
ATOM      8  C   UNL     1      48.433   6.609  17.893  0.00  0.00    +0.000 C 
ATOM      9  C   UNL     1      48.353   5.251  17.169  0.00  0.00    +0.000 C 
ATOM     10  C   UNL     1      47.330   4.303  17.855  0.00  0.00    +0.000 C 
ATOM     11  C   UNL     1      47.939   2.894  17.840  0.00  0.00    +0.000 C 
ATOM     12  C   UNL     1      49.300   3.030  17.171  0.00  0.00    +0.000 C 
ATOM     13  C   UNL     1      49.675   4.486  17.404  0.00  0.00    +0.000 C 
BRANCH  12  14
ATOM     14  O   UNL     1      50.259   2.148  17.725  0.00  0.00    +0.000 OA
ATOM     15  H   UNL     1      50.190   1.293  17.269  0.00  0.00    +0.000 HD
ENDBRANCH  12  14
ENDBRANCH   2   9
ENDBRANCH   1   6
BRANCH   1  16
ATOM     16  C   UNL     1      44.441   4.389  13.024  0.00  0.00    +0.000 C 
BRANCH  16  17
ATOM     17  N   UNL     1      43.848   4.659  11.711  0.00  0.00    +0.000 N 
ATOM     18  H   UNL     1      43.598   5.641  11.572  0.00  0.00    +0.000 HD
BRANCH  17  19
ATOM     19  C   UNL     1      44.550   4.180  10.587  0.00  0.00    +0.000 A 
ATOM     20  C   UNL     1      44.389   2.879  10.097  0.00  0.00    +0.000 A 
ATOM     21  C   UNL     1      45.060   2.450   8.950  0.00  0.00    +0.000 A 
ATOM     22  C   UNL     1      45.885   3.321   8.229  0.00  0.00    +0.000 A 
ATOM     23  C   UNL     1      46.021   4.641   8.673  0.00  0.00    +0.000 A 
ATOM     24  C   UNL     1      45.350   5.051   9.826  0.00  0.00    +0.000 A 
ATOM     25  F   UNL     1      45.504   6.324  10.229  0.00  0.00    +0.000 F 
BRANCH  22  26
ATOM     26  C   UNL     1      46.561   2.776   7.024  0.00  0.00    +0.000 C 
ATOM     27  N   UNL     1      46.955   3.638   6.039  0.00  0.00    +0.000 N 
ATOM     28  O   UNL     1      46.767   1.574   6.894  0.00  0.00    +0.000 OA
ATOM     29  H   UNL     1      46.829   4.639   6.047  0.00  0.00    +0.000 HD
ATOM     30  H   UNL     1      47.409   3.223   5.233  0.00  0.00    +0.000 HD
ENDBRANCH  22  26
ENDBRANCH  17  19
ENDBRANCH  16  17
ENDBRANCH   1  16
TORSDOF 7
ENDMDL
MODEL 7
REMARK VINA RESULT:    -6.994      2.865      4.079
REMARK INTER + INTRA:         -10.631
REMARK INTER:                  -9.215
REMARK INTRA:                  -1.416
REMARK UNBOUND:                -0.979
REMARK  Name = 
REMARK  8 active torsions:
REMARK  status: ('A' for Active; 'I' for Inactive)
REMARK    1  A    between atoms: C_1  and  C_2
REMARK    2  A    between atoms: C_2  and  C_3
REMARK    3  A    between atoms: C_7  and  C_8
REMARK    4  A    between atoms: C_8  and  C_9
REMARK    5  A    between atoms: C_9  and  N_10
REMARK    6  A    between atoms: N_10  and  C_11
REMARK    7  A    between atoms: C_14  and  C_15
REMARK    8  A    between atoms: C_24  and  O_25
REMARK                            x       y       z     vdW  Elec       q    Type
REMARK                         _______ _______ _______ _____ _____    ______ ____
ROOT
ATOM      1  C   UNL     1      49.512   8.222  12.985  0.00  0.00    +0.000 C 
ENDROOT
BRANCH   1   6
ATOM      2  C   UNL     1      49.046   6.913  16.551  0.00  0.00    +0.000 A 
ATOM      3  C   UNL     1      48.606   8.090  17.187  0.00  0.00    +0.000 A 
ATOM      4  C   UNL     1      48.418   9.277  16.476  0.00  0.00    +0.000 A 
ATOM      5  C   UNL     1      48.685   9.323  15.111  0.00  0.00    +0.000 A 
ATOM      6  C   UNL     1      49.146   8.182  14.451  0.00  0.00    +0.000 A 
ATOM      7  C   UNL     1      49.290   6.983  15.170  0.00  0.00    +0.000 A 
BRANCH   2   9
ATOM      8  C   UNL     1      50.853   5.403  17.366  0.00  0.00    +0.000 C 
ATOM      9  C   UNL     1      49.333   5.653  17.386  0.00  0.00    +0.000 C 
ATOM     10  C   UNL     1      48.803   5.798  18.840  0.00  0.00    +0.000 C 
ATOM     11  C   UNL     1      47.450   5.073  18.901  0.00  0.00    +0.000 C 
ATOM     12  C   UNL     1      47.212   4.505  17.508  0.00  0.00    +0.000 C 
ATOM     13  C   UNL     1      48.613   4.364  16.930  0.00  0.00    +0.000 C 
BRANCH  12  14
ATOM     14  O   UNL     1      46.536   3.262  17.545  0.00  0.00    +0.000 OA
ATOM     15  H   UNL     1      47.105   2.616  17.995  0.00  0.00    +0.000 HD
ENDBRANCH  12  14
ENDBRANCH   2   9
ENDBRANCH   1   6
BRANCH   1  16
ATOM     16  C   UNL     1      48.709   7.213  12.167  0.00  0.00    +0.000 C 
BRANCH  16  17
ATOM     17  N   UNL     1      47.270   7.374  12.401  0.00  0.00    +0.000 N 
ATOM     18  H   UNL     1      46.893   8.247  12.025  0.00  0.00    +0.000 HD
BRANCH  17  19
ATOM     19  C   UNL     1      46.442   6.296  12.029  0.00  0.00    +0.000 A 
ATOM     20  C   UNL     1      45.990   6.112  10.717  0.00  0.00    +0.000 A 
ATOM     21  C   UNL     1      45.214   5.005  10.369  0.00  0.00    +0.000 A 
ATOM     22  C   UNL     1      44.894   4.023  11.313  0.00  0.00    +0.000 A 
ATOM     23  C   UNL     1      45.377   4.162  12.619  0.00  0.00    +0.000 A 
ATOM     24  C   UNL     1      46.145   5.279  12.953  0.00  0.00    +0.000 A 
ATOM     25  F   UNL     1      46.591   5.386  14.216  0.00  0.00    +0.000 F 
BRANCH  22  26
ATOM     26  C   UNL     1      44.060   2.883  10.853  0.00  0.00    +0.000 C 
ATOM     27  N   UNL     1      44.496   2.123   9.803  0.00  0.00    +0.000 N 
ATOM     28  O   UNL     1      42.991   2.615  11.390  0.00  0.00    +0.000 OA
ATOM     29  H   UNL     1      45.355   2.263   9.292  0.00  0.00    +0.000 HD
ATOM     30  H   UNL     1      43.894   1.359   9.521  0.00  0.00    +0.000 HD
ENDBRANCH  22  26
ENDBRANCH  17  19
ENDBRANCH  16  17
ENDBRANCH   1  16
TORSDOF 7
ENDMDL
MODEL 8
REMARK VINA RESULT:    -6.892      2.496      3.706
REMARK INTER + INTRA:         -10.490
REMARK INTER:                  -9.118
REMARK INTRA:                  -1.372
REMARK UNBOUND:                -0.979
REMARK  Name = 
REMARK  8 active torsions:
REMARK  status: ('A' for Active; 'I' for Inactive)
REMARK    1  A    between atoms: C_1  and  C_2
REMARK    2  A    between atoms: C_2  and  C_3
REMARK    3  A    between atoms: C_7  and  C_8
REMARK    4  A    between atoms: C_8  and  C_9
REMARK    5  A    between atoms: C_9  and  N_10
REMARK    6  A    between atoms: N_10  and  C_11
REMARK    7  A    between atoms: C_14  and  C_15
REMARK    8  A    between atoms: C_24  and  O_25
REMARK                            x       y       z     vdW  Elec       q    Type
REMARK                         _______ _______ _______ _____ _____    ______ ____
ROOT
ATOM      1  C   UNL     1      48.244   7.069  12.978  0.00  0.00    +0.000 C 
ENDROOT
BRANCH   1   6
ATOM      2  C   UNL     1      48.859   5.732  16.511  0.00  0.00    +0.000 A 
ATOM      3  C   UNL     1      50.015   6.462  16.850  0.00  0.00    +0.000 A 
ATOM      4  C   UNL     1      50.566   7.402  15.977  0.00  0.00    +0.000 A 
ATOM      5  C   UNL     1      49.985   7.623  14.732  0.00  0.00    +0.000 A 
ATOM      6  C   UNL     1      48.852   6.901  14.352  0.00  0.00    +0.000 A 
ATOM      7  C   UNL     1      48.283   5.989  15.256  0.00  0.00    +0.000 A 
BRANCH   2   9
ATOM      8  C   UNL     1      47.344   5.291  18.439  0.00  0.00    +0.000 C 
ATOM      9  C   UNL     1      48.339   4.639  17.460  0.00  0.00    +0.000 C 
ATOM     10  C   UNL     1      47.678   3.470  16.677  0.00  0.00    +0.000 C 
ATOM     11  C   UNL     1      48.724   2.351  16.568  0.00  0.00    +0.000 C 
ATOM     12  C   UNL     1      49.963   2.860  17.292  0.00  0.00    +0.000 C 
ATOM     13  C   UNL     1      49.414   3.885  18.274  0.00  0.00    +0.000 C 
BRANCH  12  14
ATOM     14  O   UNL     1      50.659   1.823  17.957  0.00  0.00    +0.000 OA
ATOM     15  H   UNL     1      51.488   1.653  17.479  0.00  0.00    +0.000 HD
ENDBRANCH  12  14
ENDBRANCH   2   9
ENDBRANCH   1   6
BRANCH   1  16
ATOM     16  C   UNL     1      47.016   7.977  13.003  0.00  0.00    +0.000 C 
BRANCH  16  17
ATOM     17  N   UNL     1      45.796   7.202  13.248  0.00  0.00    +0.000 N 
ATOM     18  H   UNL     1      44.958   7.782  13.337  0.00  0.00    +0.000 HD
BRANCH  17  19
ATOM     19  C   UNL     1      45.542   6.125  12.375  0.00  0.00    +0.000 A 
ATOM     20  C   UNL     1      45.470   6.284  10.987  0.00  0.00    +0.000 A 
ATOM     21  C   UNL     1      45.270   5.188  10.144  0.00  0.00    +0.000 A 
ATOM     22  C   UNL     1      45.172   3.891  10.659  0.00  0.00    +0.000 A 
ATOM     23  C   UNL     1      45.290   3.704  12.041  0.00  0.00    +0.000 A 
ATOM     24  C   UNL     1      45.483   4.810  12.870  0.00  0.00    +0.000 A 
ATOM     25  F   UNL     1      45.589   4.600  14.192  0.00  0.00    +0.000 F 
BRANCH  22  26
ATOM     26  C   UNL     1      44.954   2.788   9.687  0.00  0.00    +0.000 C 
ATOM     27  N   UNL     1      44.103   1.770  10.020  0.00  0.00    +0.000 N 
ATOM     28  O   UNL     1      45.523   2.770   8.601  0.00  0.00    +0.000 OA
ATOM     29  H   UNL     1      43.592   1.689  10.886  0.00  0.00    +0.000 HD
ATOM     30  H   UNL     1      43.988   1.038   9.330  0.00  0.00    +0.000 HD
ENDBRANCH  22  26
ENDBRANCH  17  19
ENDBRANCH  16  17
ENDBRANCH   1  16
TORSDOF 7
ENDMDL
MODEL 9
REMARK VINA RESULT:    -6.814      3.591      4.886
REMARK INTER + INTRA:         -10.383
REMARK INTER:                  -8.822
REMARK INTRA:                  -1.561
REMARK UNBOUND:                -0.979
REMARK  Name = 
REMARK  8 active torsions:
REMARK  status: ('A' for Active; 'I' for Inactive)
REMARK    1  A    between atoms: C_1  and  C_2
REMARK    2  A    between atoms: C_2  and  C_3
REMARK    3  A    between atoms: C_7  and  C_8
REMARK    4  A    between atoms: C_8  and  C_9
REMARK    5  A    between atoms: C_9  and  N_10
REMARK    6  A    between atoms: N_10  and  C_11
REMARK    7  A    between atoms: C_14  and  C_15
REMARK    8  A    between atoms: C_24  and  O_25
REMARK                            x       y       z     vdW  Elec       q    Type
REMARK                         _______ _______ _______ _____ _____    ______ ____
ROOT
ATOM      1  C   UNL     1      48.229   8.204  14.770  0.00  0.00    +0.000 C 
ENDROOT
BRANCH   1   6
ATOM      2  C   UNL     1      49.870   5.694  17.149  0.00  0.00    +0.000 A 
ATOM      3  C   UNL     1      51.227   5.974  16.901  0.00  0.00    +0.000 A 
ATOM      4  C   UNL     1      51.614   6.984  16.016  0.00  0.00    +0.000 A 
ATOM      5  C   UNL     1      50.651   7.727  15.341  0.00  0.00    +0.000 A 
ATOM      6  C   UNL     1      49.295   7.461  15.544  0.00  0.00    +0.000 A 
ATOM      7  C   UNL     1      48.919   6.472  16.468  0.00  0.00    +0.000 A 
BRANCH   2   9
ATOM      8  C   UNL     1      50.046   4.790  19.464  0.00  0.00    +0.000 C 
ATOM      9  C   UNL     1      49.485   4.512  18.056  0.00  0.00    +0.000 C 
ATOM     10  C   UNL     1      47.947   4.296  18.092  0.00  0.00    +0.000 C 
ATOM     11  C   UNL     1      47.629   3.158  17.110  0.00  0.00    +0.000 C 
ATOM     12  C   UNL     1      48.965   2.714  16.531  0.00  0.00    +0.000 C 
ATOM     13  C   UNL     1      49.974   3.121  17.594  0.00  0.00    +0.000 C 
BRANCH  12  14
ATOM     14  O   UNL     1      49.004   1.322  16.280  0.00  0.00    +0.000 OA
ATOM     15  H   UNL     1      49.328   0.874  17.080  0.00  0.00    +0.000 HD
ENDBRANCH  12  14
ENDBRANCH   2   9
ENDBRANCH   1   6
BRANCH   1  16
ATOM     16  C   UNL     1      48.439   8.098  13.262  0.00  0.00    +0.000 C 
BRANCH  16  17
ATOM     17  N   UNL     1      48.371   6.702  12.819  0.00  0.00    +0.000 N 
ATOM     18  H   UNL     1      48.890   6.059  13.421  0.00  0.00    +0.000 HD
BRANCH  17  19
ATOM     19  C   UNL     1      47.088   6.181  12.557  0.00  0.00    +0.000 A 
ATOM     20  C   UNL     1      46.346   6.543  11.427  0.00  0.00    +0.000 A 
ATOM     21  C   UNL     1      45.100   5.970  11.167  0.00  0.00    +0.000 A 
ATOM     22  C   UNL     1      44.569   4.986  12.008  0.00  0.00    +0.000 A 
ATOM     23  C   UNL     1      45.317   4.573  13.117  0.00  0.00    +0.000 A 
ATOM     24  C   UNL     1      46.558   5.162  13.367  0.00  0.00    +0.000 A 
ATOM     25  F   UNL     1      47.250   4.747  14.441  0.00  0.00    +0.000 F 
BRANCH  22  26
ATOM     26  C   UNL     1      43.234   4.436  11.655  0.00  0.00    +0.000 C 
ATOM     27  N   UNL     1      42.140   5.252  11.736  0.00  0.00    +0.000 N 
ATOM     28  O   UNL     1      43.096   3.271  11.299  0.00  0.00    +0.000 OA
ATOM     29  H   UNL     1      42.146   6.220  12.021  0.00  0.00    +0.000 HD
ATOM     30  H   UNL     1      41.250   4.834  11.491  0.00  0.00    +0.000 HD
ENDBRANCH  22  26
ENDBRANCH  17  19
ENDBRANCH  16  17
ENDBRANCH   1  16
TORSDOF 7
ENDMDL
