MODEL 1
REMARK VINA RESULT:    -7.698      0.000      0.000
REMARK INTER + INTRA:          -9.868
REMARK INTER:                  -9.499
REMARK INTRA:                  -0.370
REMARK UNBOUND:                -0.370
REMARK  Name = 
REMARK  5 active torsions:
REMARK  status: ('A' for Active; 'I' for Inactive)
REMARK    1  A    between atoms: C_1  and  N_2
REMARK    2  A    between atoms: C_3  and  C_5
REMARK    3  A    between atoms: C_8  and  N_9
REMARK    4  A    between atoms: N_9  and  C_10
REMARK    5  A    between atoms: C_10  and  C_11
REMARK                            x       y       z     vdW  Elec       q    Type
REMARK                         _______ _______ _______ _____ _____    ______ ____
ROOT
ATOM      1  C   UNL     1      46.462   4.514  13.337  0.00  0.00    +0.000 A 
ATOM      2  C   UNL     1      46.716   5.732  12.699  0.00  0.00    +0.000 A 
ATOM      3  C   UNL     1      46.153   6.000  11.445  0.00  0.00    +0.000 A 
ATOM      4  C   UNL     1      45.359   5.048  10.796  0.00  0.00    +0.000 A 
ATOM      5  C   UNL     1      45.056   3.863  11.477  0.00  0.00    +0.000 A 
ATOM      6  C   UNL     1      45.621   3.583  12.724  0.00  0.00    +0.000 A 
ENDROOT
BRANCH   1   9
ATOM      7  C   UNL     1      47.744   4.847  16.883  0.00  0.00    +0.000 C 
ATOM      8  N   UNL     1      47.140   5.118  15.603  0.00  0.00    +0.000 N 
ATOM      9  C   UNL     1      47.106   4.144  14.629  0.00  0.00    +0.000 C 
ATOM     10  O   UNL     1      47.558   3.016  14.789  0.00  0.00    +0.000 OA
ATOM     11  H   UNL     1      46.596   5.962  15.493  0.00  0.00    +0.000 HD
ENDBRANCH   1   9
BRANCH   4  12
ATOM     12  N   UNL     1      44.794   5.233   9.533  0.00  0.00    +0.000 N 
ATOM     13  H   UNL     1      45.408   5.782   8.931  0.00  0.00    +0.000 HD
BRANCH  12  14
ATOM     14  C   UNL     1      44.282   4.057   8.825  0.00  0.00    +0.000 C 
BRANCH  14  15
ATOM     15  C   UNL     1      45.416   3.312   8.147  0.00  0.00    +0.000 A 
ATOM     16  C   UNL     1      45.616   1.957   8.420  0.00  0.00    +0.000 A 
ATOM     17  C   UNL     1      46.685   1.297   7.824  0.00  0.00    +0.000 A 
ATOM     18  C   UNL     1      47.528   2.002   6.975  0.00  0.00    +0.000 A 
ATOM     19  C   UNL     1      47.262   3.344   6.754  0.00  0.00    +0.000 A 
ATOM     20  N   UNL     1      46.231   4.014   7.317  0.00  0.00    +0.000 NA
ENDBRANCH  14  15
ENDBRANCH  12  14
ENDBRANCH   4  12
TORSDOF 4
ENDMDL
MODEL 2
REMARK VINA RESULT:    -7.678      1.213      1.494
REMARK INTER + INTRA:          -9.843
REMARK INTER:                  -9.378
REMARK INTRA:                  -0.465
REMARK UNBOUND:                -0.370
REMARK  Name = 
REMARK  5 active torsions:
REMARK  status: ('A' for Active; 'I' for Inactive)
REMARK    1  A    between atoms: C_1  and  N_2
REMARK    2  A    between atoms: C_3  and  C_5
REMARK    3  A    between atoms: C_8  and  N_9
REMARK    4  A    between atoms: N_9  and  C_10
REMARK    5  A    between atoms: C_10  and  C_11
REMARK                            x       y       z     vdW  Elec       q    Type
REMARK                         _______ _______ _______ _____ _____    ______ ____
ROOT
ATOM      1  C   UNL     1      46.413   4.908  13.202  0.00  0.00    +0.000 A 
ATOM      2  C   UNL     1      46.366   5.889  12.207  0.00  0.00    +0.000 A 
ATOM      3  C   UNL     1      45.673   5.649  11.014  0.00  0.00    +0.000 A 
ATOM      4  C   UNL     1      45.048   4.419  10.783  0.00  0.00    +0.000 A 
ATOM      5  C   UNL     1      45.043   3.473  11.814  0.00  0.00    +0.000 A 
ATOM      6  C   UNL     1      45.740   3.701  13.004  0.00  0.00    +0.000 A 
ENDROOT
BRANCH   1   9
ATOM      7  C   UNL     1      47.525   4.440  16.790  0.00  0.00    +0.000 C 
ATOM      8  N   UNL     1      46.812   4.338  15.542  0.00  0.00    +0.000 N 
ATOM      9  C   UNL     1      47.210   5.079  14.450  0.00  0.00    +0.000 C 
ATOM     10  O   UNL     1      48.174   5.836  14.465  0.00  0.00    +0.000 OA
ATOM     11  H   UNL     1      46.135   3.597  15.430  0.00  0.00    +0.000 HD
ENDBRANCH   1   9
BRANCH   4  12
ATOM     12  N   UNL     1      44.369   4.098   9.605  0.00  0.00    +0.000 N 
ATOM     13  H   UNL     1      44.630   4.726   8.846  0.00  0.00    +0.000 HD
BRANCH  12  14
ATOM     14  C   UNL     1      44.380   2.703   9.159  0.00  0.00    +0.000 C 
BRANCH  14  15
ATOM     15  C   UNL     1      45.547   2.457   8.221  0.00  0.00    +0.000 A 
ATOM     16  C   UNL     1      45.910   3.436   7.294  0.00  0.00    +0.000 A 
ATOM     17  C   UNL     1      46.954   3.180   6.413  0.00  0.00    +0.000 A 
ATOM     18  C   UNL     1      47.608   1.956   6.475  0.00  0.00    +0.000 A 
ATOM     19  C   UNL     1      47.190   1.038   7.424  0.00  0.00    +0.000 A 
ATOM     20  N   UNL     1      46.179   1.257   8.295  0.00  0.00    +0.000 NA
ENDBRANCH  14  15
ENDBRANCH  12  14
ENDBRANCH   4  12
TORSDOF 4
ENDMDL
MODEL 3
REMARK VINA RESULT:    -7.247      1.878      2.316
REMARK INTER + INTRA:          -9.311
REMARK INTER:                  -8.845
REMARK INTRA:                  -0.466
REMARK UNBOUND:                -0.370
REMARK  Name = 
REMARK  5 active torsions:
REMARK  status: ('A' for Active; 'I' for Inactive)
REMARK    1  A    between atoms: C_1  and  N_2
REMARK    2  A    between atoms: C_3  and  C_5
REMARK    3  A    between atoms: C_8  and  N_9
REMARK    4  A    between atoms: N_9  and  C_10
REMARK    5  A    between atoms: C_10  and  C_11
REMARK                            x       y       z     vdW  Elec       q    Type
REMARK                         _______ _______ _______ _____ _____    ______ ____
ROOT
ATOM      1  C   UNL     1      46.807   5.595  13.248  0.00  0.00    +0.000 A 
ATOM      2  C   UNL     1      46.013   5.996  12.170  0.00  0.00    +0.000 A 
ATOM      3  C   UNL     1      45.271   5.049  11.452  0.00  0.00    +0.000 A 
ATOM      4  C   UNL     1      45.337   3.690  11.777  0.00  0.00    +0.000 A 
ATOM      5  C   UNL     1      46.080   3.312  12.901  0.00  0.00    +0.000 A 
ATOM      6  C   UNL     1      46.831   4.248  13.617  0.00  0.00    +0.000 A 
ENDROOT
BRANCH   1   9
ATOM      7  C   UNL     1      48.061   8.852  14.714  0.00  0.00    +0.000 C 
ATOM      8  N   UNL     1      47.274   7.862  14.022  0.00  0.00    +0.000 N 
ATOM      9  C   UNL     1      47.684   6.547  13.988  0.00  0.00    +0.000 C 
ATOM     10  O   UNL     1      48.701   6.144  14.540  0.00  0.00    +0.000 OA
ATOM     11  H   UNL     1      46.345   8.111  13.715  0.00  0.00    +0.000 HD
ENDBRANCH   1   9
BRANCH   4  12
ATOM     12  N   UNL     1      44.653   2.688  11.085  0.00  0.00    +0.000 N 
ATOM     13  H   UNL     1      43.888   2.311  11.643  0.00  0.00    +0.000 HD
BRANCH  12  14
ATOM     14  C   UNL     1      44.213   2.969   9.717  0.00  0.00    +0.000 C 
BRANCH  14  15
ATOM     15  C   UNL     1      45.320   2.651   8.729  0.00  0.00    +0.000 A 
ATOM     16  C   UNL     1      45.808   3.654   7.889  0.00  0.00    +0.000 A 
ATOM     17  C   UNL     1      46.793   3.338   6.959  0.00  0.00    +0.000 A 
ATOM     18  C   UNL     1      47.264   2.034   6.888  0.00  0.00    +0.000 A 
ATOM     19  C   UNL     1      46.730   1.097   7.758  0.00  0.00    +0.000 A 
ATOM     20  N   UNL     1      45.773   1.372   8.672  0.00  0.00    +0.000 NA
ENDBRANCH  14  15
ENDBRANCH  12  14
ENDBRANCH   4  12
TORSDOF 4
ENDMDL
MODEL 4
REMARK VINA RESULT:    -7.134      2.342      6.218
REMARK INTER + INTRA:          -9.172
REMARK INTER:                  -8.677
REMARK INTRA:                  -0.496
REMARK UNBOUND:                -0.370
REMARK  Name = 
REMARK  5 active torsions:
REMARK  status: ('A' for Active; 'I' for Inactive)
REMARK    1  A    between atoms: C_1  and  N_2
REMARK    2  A    between atoms: C_3  and  C_5
REMARK    3  A    between atoms: C_8  and  N_9
REMARK    4  A    between atoms: N_9  and  C_10
REMARK    5  A    between atoms: C_10  and  C_11
REMARK                            x       y       z     vdW  Elec       q    Type
REMARK                         _______ _______ _______ _____ _____    ______ ____
ROOT
ATOM      1  C   UNL     1      45.310   2.738   8.876  0.00  0.00    +0.000 A 
ATOM      2  C   UNL     1      44.565   2.113   9.881  0.00  0.00    +0.000 A 
ATOM      3  C   UNL     1      43.740   2.872  10.721  0.00  0.00    +0.000 A 
ATOM      4  C   UNL     1      43.673   4.264  10.594  0.00  0.00    +0.000 A 
ATOM      5  C   UNL     1      44.369   4.868   9.540  0.00  0.00    +0.000 A 
ATOM      6  C   UNL     1      45.201   4.120   8.703  0.00  0.00    +0.000 A 
ENDROOT
BRANCH   1   9
ATOM      7  C   UNL     1      47.972   2.097   6.262  0.00  0.00    +0.000 C 
ATOM      8  N   UNL     1      47.019   2.737   7.134  0.00  0.00    +0.000 N 
ATOM      9  C   UNL     1      46.269   1.990   8.015  0.00  0.00    +0.000 C 
ATOM     10  O   UNL     1      46.370   0.773   8.122  0.00  0.00    +0.000 OA
ATOM     11  H   UNL     1      47.035   3.744   7.211  0.00  0.00    +0.000 HD
ENDBRANCH   1   9
BRANCH   4  12
ATOM     12  N   UNL     1      42.900   5.086  11.416  0.00  0.00    +0.000 N 
ATOM     13  H   UNL     1      41.905   4.959  11.234  0.00  0.00    +0.000 HD
BRANCH  12  14
ATOM     14  C   UNL     1      43.174   5.079  12.855  0.00  0.00    +0.000 C 
BRANCH  14  15
ATOM     15  C   UNL     1      44.633   5.401  13.117  0.00  0.00    +0.000 A 
ATOM     16  C   UNL     1      45.142   6.651  12.760  0.00  0.00    +0.000 A 
ATOM     17  C   UNL     1      46.491   6.918  12.967  0.00  0.00    +0.000 A 
ATOM     18  C   UNL     1      47.298   5.933  13.521  0.00  0.00    +0.000 A 
ATOM     19  C   UNL     1      46.718   4.719  13.849  0.00  0.00    +0.000 A 
ATOM     20  N   UNL     1      45.411   4.430  13.661  0.00  0.00    +0.000 NA
ENDBRANCH  14  15
ENDBRANCH  12  14
ENDBRANCH   4  12
TORSDOF 4
ENDMDL
MODEL 5
REMARK VINA RESULT:    -5.932      1.573      2.645
REMARK INTER + INTRA:          -7.689
REMARK INTER:                  -7.323
REMARK INTRA:                  -0.366
REMARK UNBOUND:                -0.370
REMARK  Name = 
REMARK  5 active torsions:
REMARK  status: ('A' for Active; 'I' for Inactive)
REMARK    1  A    between atoms: C_1  and  N_2
REMARK    2  A    between atoms: C_3  and  C_5
REMARK    3  A    between atoms: C_8  and  N_9
REMARK    4  A    between atoms: N_9  and  C_10
REMARK    5  A    between atoms: C_10  and  C_11
REMARK                            x       y       z     vdW  Elec       q    Type
REMARK                         _______ _______ _______ _____ _____    ______ ____
ROOT
ATOM      1  C   UNL     1      47.628   5.202  15.025  0.00  0.00    +0.000 A 
ATOM      2  C   UNL     1      46.771   4.244  14.477  0.00  0.00    +0.000 A 
ATOM      3  C   UNL     1      46.153   4.477  13.241  0.00  0.00    +0.000 A 
ATOM      4  C   UNL     1      46.355   5.679  12.554  0.00  0.00    +0.000 A 
ATOM      5  C   UNL     1      47.269   6.599  13.080  0.00  0.00    +0.000 A 
ATOM      6  C   UNL     1      47.882   6.378  14.316  0.00  0.00    +0.000 A 
ENDROOT
BRANCH   1   9
ATOM      7  C   UNL     1      48.532   5.968  18.621  0.00  0.00    +0.000 C 
ATOM      8  N   UNL     1      47.981   6.040  17.291  0.00  0.00    +0.000 N 
ATOM      9  C   UNL     1      48.239   5.043  16.375  0.00  0.00    +0.000 C 
ATOM     10  O   UNL     1      48.917   4.054  16.629  0.00  0.00    +0.000 OA
ATOM     11  H   UNL     1      47.273   6.733  17.097  0.00  0.00    +0.000 HD
ENDBRANCH   1   9
BRANCH   4  12
ATOM     12  N   UNL     1      45.747   5.993  11.336  0.00  0.00    +0.000 N 
ATOM     13  H   UNL     1      46.437   6.081  10.592  0.00  0.00    +0.000 HD
BRANCH  12  14
ATOM     14  C   UNL     1      44.608   5.180  10.902  0.00  0.00    +0.000 C 
BRANCH  14  15
ATOM     15  C   UNL     1      45.041   4.192   9.835  0.00  0.00    +0.000 A 
ATOM     16  C   UNL     1      45.645   4.655   8.665  0.00  0.00    +0.000 A 
ATOM     17  C   UNL     1      45.998   3.742   7.677  0.00  0.00    +0.000 A 
ATOM     18  C   UNL     1      45.737   2.393   7.878  0.00  0.00    +0.000 A 
ATOM     19  C   UNL     1      45.136   2.013   9.066  0.00  0.00    +0.000 A 
ATOM     20  N   UNL     1      44.782   2.875  10.046  0.00  0.00    +0.000 NA
ENDBRANCH  14  15
ENDBRANCH  12  14
ENDBRANCH   4  12
TORSDOF 4
ENDMDL
MODEL 6
REMARK VINA RESULT:    -5.854      2.485      7.377
REMARK INTER + INTRA:          -7.592
REMARK INTER:                  -7.231
REMARK INTRA:                  -0.362
REMARK UNBOUND:                -0.370
REMARK  Name = 
REMARK  5 active torsions:
REMARK  status: ('A' for Active; 'I' for Inactive)
REMARK    1  A    between atoms: C_1  and  N_2
REMARK    2  A    between atoms: C_3  and  C_5
REMARK    3  A    between atoms: C_8  and  N_9
REMARK    4  A    between atoms: N_9  and  C_10
REMARK    5  A    between atoms: C_10  and  C_11
REMARK                            x       y       z     vdW  Elec       q    Type
REMARK                         _______ _______ _______ _____ _____    ______ ____
ROOT
ATOM      1  C   UNL     1      45.526   4.216  11.828  0.00  0.00    +0.000 A 
ATOM      2  C   UNL     1      45.733   5.568  12.117  0.00  0.00    +0.000 A 
ATOM      3  C   UNL     1      46.405   5.943  13.287  0.00  0.00    +0.000 A 
ATOM      4  C   UNL     1      46.849   4.979  14.199  0.00  0.00    +0.000 A 
ATOM      5  C   UNL     1      46.697   3.629  13.864  0.00  0.00    +0.000 A 
ATOM      6  C   UNL     1      46.019   3.247  12.703  0.00  0.00    +0.000 A 
ENDROOT
BRANCH   1   9
ATOM      7  C   UNL     1      44.447   2.089   8.888  0.00  0.00    +0.000 C 
ATOM      8  N   UNL     1      45.148   2.598  10.040  0.00  0.00    +0.000 N 
ATOM      9  C   UNL     1      44.740   3.767  10.644  0.00  0.00    +0.000 C 
ATOM     10  O   UNL     1      43.776   4.421  10.262  0.00  0.00    +0.000 OA
ATOM     11  H   UNL     1      45.825   2.003  10.496  0.00  0.00    +0.000 HD
ENDBRANCH   1   9
BRANCH   4  12
ATOM     12  N   UNL     1      47.495   5.281  15.400  0.00  0.00    +0.000 N 
ATOM     13  H   UNL     1      47.282   6.230  15.705  0.00  0.00    +0.000 HD
BRANCH  12  14
ATOM     14  C   UNL     1      47.369   4.333  16.510  0.00  0.00    +0.000 C 
BRANCH  14  15
ATOM     15  C   UNL     1      48.733   3.795  16.903  0.00  0.00    +0.000 A 
ATOM     16  C   UNL     1      49.674   4.648  17.482  0.00  0.00    +0.000 A 
ATOM     17  C   UNL     1      50.934   4.151  17.799  0.00  0.00    +0.000 A 
ATOM     18  C   UNL     1      51.225   2.821  17.527  0.00  0.00    +0.000 A 
ATOM     19  C   UNL     1      50.237   2.039  16.952  0.00  0.00    +0.000 A 
ATOM     20  N   UNL     1      49.003   2.491  16.634  0.00  0.00    +0.000 NA
ENDBRANCH  14  15
ENDBRANCH  12  14
ENDBRANCH   4  12
TORSDOF 4
ENDMDL
MODEL 7
REMARK VINA RESULT:    -5.698      2.897      3.731
REMARK INTER + INTRA:          -7.400
REMARK INTER:                  -6.890
REMARK INTRA:                  -0.510
REMARK UNBOUND:                -0.370
REMARK  Name = 
REMARK  5 active torsions:
REMARK  status: ('A' for Active; 'I' for Inactive)
REMARK    1  A    between atoms: C_1  and  N_2
REMARK    2  A    between atoms: C_3  and  C_5
REMARK    3  A    between atoms: C_8  and  N_9
REMARK    4  A    between atoms: N_9  and  C_10
REMARK    5  A    between atoms: C_10  and  C_11
REMARK                            x       y       z     vdW  Elec       q    Type
REMARK                         _______ _______ _______ _____ _____    ______ ____
ROOT
ATOM      1  C   UNL     1      47.630   7.547  12.762  0.00  0.00    +0.000 A 
ATOM      2  C   UNL     1      46.398   8.111  12.417  0.00  0.00    +0.000 A 
ATOM      3  C   UNL     1      45.259   7.303  12.309  0.00  0.00    +0.000 A 
ATOM      4  C   UNL     1      45.339   5.921  12.510  0.00  0.00    +0.000 A 
ATOM      5  C   UNL     1      46.562   5.380  12.923  0.00  0.00    +0.000 A 
ATOM      6  C   UNL     1      47.705   6.177  13.024  0.00  0.00    +0.000 A 
ENDROOT
BRANCH   1   9
ATOM      7  C   UNL     1      51.332   8.327  12.893  0.00  0.00    +0.000 C 
ATOM      8  N   UNL     1      50.067   7.636  12.851  0.00  0.00    +0.000 N 
ATOM      9  C   UNL     1      48.887   8.346  12.803  0.00  0.00    +0.000 C 
ATOM     10  O   UNL     1      48.838   9.570  12.777  0.00  0.00    +0.000 OA
ATOM     11  H   UNL     1      50.066   6.640  12.684  0.00  0.00    +0.000 HD
ENDBRANCH   1   9
BRANCH   4  12
ATOM     12  N   UNL     1      44.253   5.051  12.386  0.00  0.00    +0.000 N 
ATOM     13  H   UNL     1      43.613   5.146  13.174  0.00  0.00    +0.000 HD
BRANCH  12  14
ATOM     14  C   UNL     1      43.523   5.032  11.117  0.00  0.00    +0.000 C 
BRANCH  14  15
ATOM     15  C   UNL     1      44.245   4.163  10.104  0.00  0.00    +0.000 A 
ATOM     16  C   UNL     1      45.094   4.753   9.165  0.00  0.00    +0.000 A 
ATOM     17  C   UNL     1      45.717   3.949   8.216  0.00  0.00    +0.000 A 
ATOM     18  C   UNL     1      45.476   2.581   8.225  0.00  0.00    +0.000 A 
ATOM     19  C   UNL     1      44.623   2.073   9.190  0.00  0.00    +0.000 A 
ATOM     20  N   UNL     1      44.003   2.827  10.126  0.00  0.00    +0.000 NA
ENDBRANCH  14  15
ENDBRANCH  12  14
ENDBRANCH   4  12
TORSDOF 4
ENDMDL
MODEL 8
REMARK VINA RESULT:    -5.475      2.316      7.397
REMARK INTER + INTRA:          -7.125
REMARK INTER:                  -6.768
REMARK INTRA:                  -0.356
REMARK UNBOUND:                -0.370
REMARK  Name = 
REMARK  5 active torsions:
REMARK  status: ('A' for Active; 'I' for Inactive)
REMARK    1  A    between atoms: C_1  and  N_2
REMARK    2  A    between atoms: C_3  and  C_5
REMARK    3  A    between atoms: C_8  and  N_9
REMARK    4  A    between atoms: N_9  and  C_10
REMARK    5  A    between atoms: C_10  and  C_11
REMARK                            x       y       z     vdW  Elec       q    Type
REMARK                         _______ _______ _______ _____ _____    ______ ____
ROOT
ATOM      1  C   UNL     1      45.095   4.318  11.569  0.00  0.00    +0.000 A 
ATOM      2  C   UNL     1      45.329   4.125  12.934  0.00  0.00    +0.000 A 
ATOM      3  C   UNL     1      45.988   5.110  13.681  0.00  0.00    +0.000 A 
ATOM      4  C   UNL     1      46.452   6.281  13.072  0.00  0.00    +0.000 A 
ATOM      5  C   UNL     1      46.150   6.492  11.722  0.00  0.00    +0.000 A 
ATOM      6  C   UNL     1      45.501   5.511  10.967  0.00  0.00    +0.000 A 
ENDROOT
BRANCH   1   9
ATOM      7  C   UNL     1      44.754   1.725   8.832  0.00  0.00    +0.000 C 
ATOM      8  N   UNL     1      45.269   2.746   9.710  0.00  0.00    +0.000 N 
ATOM      9  C   UNL     1      44.479   3.266  10.711  0.00  0.00    +0.000 C 
ATOM     10  O   UNL     1      43.330   2.895  10.925  0.00  0.00    +0.000 OA
ATOM     11  H   UNL     1      46.259   2.948   9.690  0.00  0.00    +0.000 HD
ENDBRANCH   1   9
BRANCH   4  12
ATOM     12  N   UNL     1      47.145   7.289  13.747  0.00  0.00    +0.000 N 
ATOM     13  H   UNL     1      46.628   7.609  14.564  0.00  0.00    +0.000 HD
BRANCH  12  14
ATOM     14  C   UNL     1      48.554   7.058  14.076  0.00  0.00    +0.000 C 
BRANCH  14  15
ATOM     15  C   UNL     1      48.713   6.790  15.561  0.00  0.00    +0.000 A 
ATOM     16  C   UNL     1      48.817   7.860  16.451  0.00  0.00    +0.000 A 
ATOM     17  C   UNL     1      49.005   7.600  17.804  0.00  0.00    +0.000 A 
ATOM     18  C   UNL     1      49.086   6.283  18.235  0.00  0.00    +0.000 A 
ATOM     19  C   UNL     1      48.971   5.276  17.290  0.00  0.00    +0.000 A 
ATOM     20  N   UNL     1      48.788   5.496  15.969  0.00  0.00    +0.000 NA
ENDBRANCH  14  15
ENDBRANCH  12  14
ENDBRANCH   4  12
TORSDOF 4
ENDMDL
MODEL 9
REMARK VINA RESULT:    -5.109      4.041      5.960
REMARK INTER + INTRA:          -6.674
REMARK INTER:                  -6.304
REMARK INTRA:                  -0.370
REMARK UNBOUND:                -0.370
REMARK  Name = 
REMARK  5 active torsions:
REMARK  status: ('A' for Active; 'I' for Inactive)
REMARK    1  A    between atoms: C_1  and  N_2
REMARK    2  A    between atoms: C_3  and  C_5
REMARK    3  A    between atoms: C_8  and  N_9
REMARK    4  A    between atoms: N_9  and  C_10
REMARK    5  A    between atoms: C_10  and  C_11
REMARK                            x       y       z     vdW  Elec       q    Type
REMARK                         _______ _______ _______ _____ _____    ______ ____
ROOT
ATOM      1  C   UNL     1      50.052   7.920  12.251  0.00  0.00    +0.000 A 
ATOM      2  C   UNL     1      48.918   7.632  11.486  0.00  0.00    +0.000 A 
ATOM      3  C   UNL     1      47.786   7.068  12.089  0.00  0.00    +0.000 A 
ATOM      4  C   UNL     1      47.782   6.752  13.452  0.00  0.00    +0.000 A 
ATOM      5  C   UNL     1      48.897   7.109  14.219  0.00  0.00    +0.000 A 
ATOM      6  C   UNL     1      50.033   7.664  13.624  0.00  0.00    +0.000 A 
ENDROOT
BRANCH   1   9
ATOM      7  C   UNL     1      53.363   7.922  10.416  0.00  0.00    +0.000 C 
ATOM      8  N   UNL     1      52.125   7.511  11.030  0.00  0.00    +0.000 N 
ATOM      9  C   UNL     1      51.311   8.437  11.644  0.00  0.00    +0.000 C 
ATOM     10  O   UNL     1      51.570   9.634  11.692  0.00  0.00    +0.000 OA
ATOM     11  H   UNL     1      51.785   6.576  10.855  0.00  0.00    +0.000 HD
ENDBRANCH   1   9
BRANCH   4  12
ATOM     12  N   UNL     1      46.704   6.158  14.112  0.00  0.00    +0.000 N 
ATOM     13  H   UNL     1      45.847   6.690  13.970  0.00  0.00    +0.000 HD
BRANCH  12  14
ATOM     14  C   UNL     1      46.473   4.726  13.909  0.00  0.00    +0.000 C 
BRANCH  14  15
ATOM     15  C   UNL     1      45.211   4.505  13.095  0.00  0.00    +0.000 A 
ATOM     16  C   UNL     1      45.150   3.448  12.185  0.00  0.00    +0.000 A 
ATOM     17  C   UNL     1      44.003   3.282  11.416  0.00  0.00    +0.000 A 
ATOM     18  C   UNL     1      42.950   4.174  11.570  0.00  0.00    +0.000 A 
ATOM     19  C   UNL     1      43.087   5.195  12.495  0.00  0.00    +0.000 A 
ATOM     20  N   UNL     1      44.188   5.383  13.258  0.00  0.00    +0.000 NA
ENDBRANCH  14  15
ENDBRANCH  12  14
ENDBRANCH   4  12
TORSDOF 4
ENDMDL
