MODEL 1
REMARK VINA RESULT:    -8.882      0.000      0.000
REMARK INTER + INTRA:         -12.045
REMARK INTER:                 -11.479
REMARK INTRA:                  -0.567
REMARK UNBOUND:                -0.567
REMARK  Name = 
REMARK  5 active torsions:
REMARK  status: ('A' for Active; 'I' for Inactive)
REMARK    1  A    between atoms: C_2  and  C_4
REMARK    2  A    between atoms: C_7  and  O_8
REMARK    3  A    between atoms: O_8  and  C_9
REMARK    4  A    between atoms: C_9  and  C_10
REMARK    5  A    between atoms: C_14  and  C_15
REMARK                            x       y       z     vdW  Elec       q    Type
REMARK                         _______ _______ _______ _____ _____    ______ ____
ROOT
ATOM      1  C   UNL     1      43.986   4.344  11.475  0.00  0.00    +0.000 C 
ENDROOT
BRANCH   1   2
ATOM      2  C   UNL     1      45.240   4.879  12.135  0.00  0.00    +0.000 A 
ATOM      3  C   UNL     1      45.821   6.086  11.736  0.00  0.00    +0.000 A 
ATOM      4  C   UNL     1      46.912   6.604  12.429  0.00  0.00    +0.000 A 
ATOM      5  C   UNL     1      47.404   5.942  13.556  0.00  0.00    +0.000 A 
ATOM      6  C   UNL     1      46.827   4.743  14.011  0.00  0.00    +0.000 A 
ATOM      7  C   UNL     1      45.756   4.216  13.266  0.00  0.00    +0.000 A 
BRANCH   6   8
ATOM      8  C   UNL     1      47.269   4.129  15.276  0.00  0.00    +0.000 A 
ATOM      9  C   UNL     1      47.160   4.745  16.521  0.00  0.00    +0.000 A 
ATOM     10  N   UNL     1      47.663   4.216  17.668  0.00  0.00    +0.000 NA
ATOM     11  C   UNL     1      48.289   3.029  17.524  0.00  0.00    +0.000 A 
ATOM     12  C   UNL     1      48.388   2.391  16.302  0.00  0.00    +0.000 A 
ATOM     13  N   UNL     1      47.878   2.916  15.165  0.00  0.00    +0.000 NA
ENDBRANCH   6   8
ENDBRANCH   1   2
BRANCH   1  14
ATOM     14  O   UNL     1      43.909   4.730  10.099  0.00  0.00    +0.000 OA
BRANCH  14  18
ATOM     15  C   UNL     1      46.410   2.457   7.753  0.00  0.00    +0.000 A 
ATOM     16  C   UNL     1      45.588   1.829   8.692  0.00  0.00    +0.000 A 
ATOM     17  C   UNL     1      44.747   2.610   9.487  0.00  0.00    +0.000 A 
ATOM     18  C   UNL     1      44.756   3.986   9.305  0.00  0.00    +0.000 A 
ATOM     19  N   UNL     1      45.542   4.615   8.404  0.00  0.00    +0.000 NA
ATOM     20  C   UNL     1      46.361   3.836   7.659  0.00  0.00    +0.000 A 
BRANCH  15  22
ATOM     21  N   UNL     1      48.457   2.400   6.440  0.00  0.00    +0.000 N 
ATOM     22  C   UNL     1      47.345   1.730   6.867  0.00  0.00    +0.000 C 
ATOM     23  O   UNL     1      47.155   0.560   6.565  0.00  0.00    +0.000 OA
ATOM     24  H   UNL     1      49.140   1.847   5.936  0.00  0.00    +0.000 HD
ATOM     25  H   UNL     1      48.775   3.258   6.867  0.00  0.00    +0.000 HD
ENDBRANCH  15  22
ENDBRANCH  14  18
ENDBRANCH   1  14
TORSDOF 5
ENDMDL
MODEL 2
REMARK VINA RESULT:    -8.158      1.777      2.331
REMARK INTER + INTRA:         -11.109
REMARK INTER:                 -10.423
REMARK INTRA:                  -0.687
REMARK UNBOUND:                -0.567
REMARK  Name = 
REMARK  5 active torsions:
REMARK  status: ('A' for Active; 'I' for Inactive)
REMARK    1  A    between atoms: C_2  and  C_4
REMARK    2  A    between atoms: C_7  and  O_8
REMARK    3  A    between atoms: O_8  and  C_9
REMARK    4  A    between atoms: C_9  and  C_10
REMARK    5  A    between atoms: C_14  and  C_15
REMARK                            x       y       z     vdW  Elec       q    Type
REMARK                         _______ _______ _______ _____ _____    ______ ____
ROOT
ATOM      1  C   UNL     1      44.179   4.682  11.403  0.00  0.00    +0.000 C 
ENDROOT
BRANCH   1   2
ATOM      2  C   UNL     1      44.993   5.914  11.736  0.00  0.00    +0.000 A 
ATOM      3  C   UNL     1      44.549   7.198  11.407  0.00  0.00    +0.000 A 
ATOM      4  C   UNL     1      45.267   8.318  11.818  0.00  0.00    +0.000 A 
ATOM      5  C   UNL     1      46.414   8.166  12.600  0.00  0.00    +0.000 A 
ATOM      6  C   UNL     1      46.876   6.895  12.982  0.00  0.00    +0.000 A 
ATOM      7  C   UNL     1      46.159   5.777  12.515  0.00  0.00    +0.000 A 
BRANCH   6   8
ATOM      8  C   UNL     1      48.007   6.756  13.917  0.00  0.00    +0.000 A 
ATOM      9  C   UNL     1      48.020   5.876  14.998  0.00  0.00    +0.000 A 
ATOM     10  N   UNL     1      49.023   5.826  15.914  0.00  0.00    +0.000 NA
ATOM     11  C   UNL     1      50.029   6.703  15.709  0.00  0.00    +0.000 A 
ATOM     12  C   UNL     1      50.045   7.568  14.631  0.00  0.00    +0.000 A 
ATOM     13  N   UNL     1      49.050   7.607  13.716  0.00  0.00    +0.000 NA
ENDBRANCH   6   8
ENDBRANCH   1   2
BRANCH   1  14
ATOM     14  O   UNL     1      43.794   4.660  10.024  0.00  0.00    +0.000 OA
BRANCH  14  18
ATOM     15  C   UNL     1      46.421   2.469   7.738  0.00  0.00    +0.000 A 
ATOM     16  C   UNL     1      45.621   1.819   8.681  0.00  0.00    +0.000 A 
ATOM     17  C   UNL     1      44.736   2.573   9.455  0.00  0.00    +0.000 A 
ATOM     18  C   UNL     1      44.683   3.945   9.251  0.00  0.00    +0.000 A 
ATOM     19  N   UNL     1      45.447   4.595   8.346  0.00  0.00    +0.000 NA
ATOM     20  C   UNL     1      46.308   3.844   7.621  0.00  0.00    +0.000 A 
BRANCH  15  22
ATOM     21  N   UNL     1      48.493   2.481   6.463  0.00  0.00    +0.000 N 
ATOM     22  C   UNL     1      47.397   1.774   6.873  0.00  0.00    +0.000 C 
ATOM     23  O   UNL     1      47.255   0.596   6.572  0.00  0.00    +0.000 OA
ATOM     24  H   UNL     1      49.204   1.951   5.974  0.00  0.00    +0.000 HD
ATOM     25  H   UNL     1      48.772   3.351   6.892  0.00  0.00    +0.000 HD
ENDBRANCH  15  22
ENDBRANCH  14  18
ENDBRANCH   1  14
TORSDOF 5
ENDMDL
MODEL 3
REMARK VINA RESULT:    -8.134      2.362      3.658
REMARK INTER + INTRA:         -11.078
REMARK INTER:                 -10.344
REMARK INTRA:                  -0.734
REMARK UNBOUND:                -0.567
REMARK  Name = 
REMARK  5 active torsions:
REMARK  status: ('A' for Active; 'I' for Inactive)
REMARK    1  A    between atoms: C_2  and  C_4
REMARK    2  A    between atoms: C_7  and  O_8
REMARK    3  A    between atoms: O_8  and  C_9
REMARK    4  A    between atoms: C_9  and  C_10
REMARK    5  A    between atoms: C_14  and  C_15
REMARK                            x       y       z     vdW  Elec       q    Type
REMARK                         _______ _______ _______ _____ _____    ______ ____
ROOT
ATOM      1  C   UNL     1      43.754   5.136  10.641  0.00  0.00    +0.000 C 
ENDROOT
BRANCH   1   2
ATOM      2  C   UNL     1      44.832   5.257  11.699  0.00  0.00    +0.000 A 
ATOM      3  C   UNL     1      45.009   4.279  12.681  0.00  0.00    +0.000 A 
ATOM      4  C   UNL     1      46.072   4.364  13.576  0.00  0.00    +0.000 A 
ATOM      5  C   UNL     1      46.996   5.406  13.468  0.00  0.00    +0.000 A 
ATOM      6  C   UNL     1      46.874   6.392  12.473  0.00  0.00    +0.000 A 
ATOM      7  C   UNL     1      45.764   6.309  11.611  0.00  0.00    +0.000 A 
BRANCH   6   8
ATOM      8  C   UNL     1      47.927   7.406  12.287  0.00  0.00    +0.000 A 
ATOM      9  C   UNL     1      47.678   8.737  11.954  0.00  0.00    +0.000 A 
ATOM     10  N   UNL     1      48.657   9.640  11.684  0.00  0.00    +0.000 NA
ATOM     11  C   UNL     1      49.916   9.158  11.759  0.00  0.00    +0.000 A 
ATOM     12  C   UNL     1      50.185   7.849  12.110  0.00  0.00    +0.000 A 
ATOM     13  N   UNL     1      49.208   6.956  12.388  0.00  0.00    +0.000 NA
ENDBRANCH   6   8
ENDBRANCH   1   2
BRANCH   1  14
ATOM     14  O   UNL     1      43.588   3.781  10.210  0.00  0.00    +0.000 OA
BRANCH  14  18
ATOM     15  C   UNL     1      46.430   2.616   7.473  0.00  0.00    +0.000 A 
ATOM     16  C   UNL     1      45.920   1.681   8.376  0.00  0.00    +0.000 A 
ATOM     17  C   UNL     1      44.959   2.087   9.304  0.00  0.00    +0.000 A 
ATOM     18  C   UNL     1      44.543   3.411   9.288  0.00  0.00    +0.000 A 
ATOM     19  N   UNL     1      45.022   4.334   8.425  0.00  0.00    +0.000 NA
ATOM     20  C   UNL     1      45.965   3.918   7.547  0.00  0.00    +0.000 A 
BRANCH  15  22
ATOM     21  N   UNL     1      47.410   2.991   5.279  0.00  0.00    +0.000 N 
ATOM     22  C   UNL     1      47.455   2.299   6.457  0.00  0.00    +0.000 C 
ATOM     23  O   UNL     1      48.338   1.481   6.677  0.00  0.00    +0.000 OA
ATOM     24  H   UNL     1      48.189   2.843   4.649  0.00  0.00    +0.000 HD
ATOM     25  H   UNL     1      46.870   3.837   5.163  0.00  0.00    +0.000 HD
ENDBRANCH  15  22
ENDBRANCH  14  18
ENDBRANCH   1  14
TORSDOF 5
ENDMDL
MODEL 4
REMARK VINA RESULT:    -7.935      3.374      5.343
REMARK INTER + INTRA:         -10.822
REMARK INTER:                 -10.090
REMARK INTRA:                  -0.731
REMARK UNBOUND:                -0.567
REMARK  Name = 
REMARK  5 active torsions:
REMARK  status: ('A' for Active; 'I' for Inactive)
REMARK    1  A    between atoms: C_2  and  C_4
REMARK    2  A    between atoms: C_7  and  O_8
REMARK    3  A    between atoms: O_8  and  C_9
REMARK    4  A    between atoms: C_9  and  C_10
REMARK    5  A    between atoms: C_14  and  C_15
REMARK                            x       y       z     vdW  Elec       q    Type
REMARK                         _______ _______ _______ _____ _____    ______ ____
ROOT
ATOM      1  C   UNL     1      44.342   4.225  11.449  0.00  0.00    +0.000 C 
ENDROOT
BRANCH   1   2
ATOM      2  C   UNL     1      44.987   5.557  11.770  0.00  0.00    +0.000 A 
ATOM      3  C   UNL     1      46.311   5.644  12.207  0.00  0.00    +0.000 A 
ATOM      4  C   UNL     1      46.911   6.887  12.394  0.00  0.00    +0.000 A 
ATOM      5  C   UNL     1      46.203   8.055  12.102  0.00  0.00    +0.000 A 
ATOM      6  C   UNL     1      44.881   8.012  11.628  0.00  0.00    +0.000 A 
ATOM      7  C   UNL     1      44.283   6.745  11.492  0.00  0.00    +0.000 A 
BRANCH   6   8
ATOM      8  C   UNL     1      44.196   9.243  11.197  0.00  0.00    +0.000 A 
ATOM      9  C   UNL     1      42.923   9.270  10.630  0.00  0.00    +0.000 A 
ATOM     10  N   UNL     1      42.341  10.397  10.142  0.00  0.00    +0.000 NA
ATOM     11  C   UNL     1      43.089  11.516  10.242  0.00  0.00    +0.000 A 
ATOM     12  C   UNL     1      44.344  11.516  10.820  0.00  0.00    +0.000 A 
ATOM     13  N   UNL     1      44.915  10.394  11.314  0.00  0.00    +0.000 NA
ENDBRANCH   6   8
ENDBRANCH   1   2
BRANCH   1  14
ATOM     14  O   UNL     1      43.843   4.189  10.108  0.00  0.00    +0.000 OA
BRANCH  14  18
ATOM     15  C   UNL     1      46.618   2.667   7.480  0.00  0.00    +0.000 A 
ATOM     16  C   UNL     1      45.977   1.810   8.377  0.00  0.00    +0.000 A 
ATOM     17  C   UNL     1      45.040   2.337   9.268  0.00  0.00    +0.000 A 
ATOM     18  C   UNL     1      44.778   3.699   9.222  0.00  0.00    +0.000 A 
ATOM     19  N   UNL     1      45.386   4.548   8.364  0.00  0.00    +0.000 NA
ATOM     20  C   UNL     1      46.302   4.014   7.522  0.00  0.00    +0.000 A 
BRANCH  15  22
ATOM     21  N   UNL     1      47.797   2.976   5.375  0.00  0.00    +0.000 N 
ATOM     22  C   UNL     1      47.631   2.220   6.501  0.00  0.00    +0.000 C 
ATOM     23  O   UNL     1      48.328   1.236   6.711  0.00  0.00    +0.000 OA
ATOM     24  H   UNL     1      48.575   2.719   4.780  0.00  0.00    +0.000 HD
ATOM     25  H   UNL     1      47.435   3.915   5.290  0.00  0.00    +0.000 HD
ENDBRANCH  15  22
ENDBRANCH  14  18
ENDBRANCH   1  14
TORSDOF 5
ENDMDL
MODEL 5
REMARK VINA RESULT:    -7.073      2.969      8.416
REMARK INTER + INTRA:          -9.707
REMARK INTER:                  -9.224
REMARK INTRA:                  -0.483
REMARK UNBOUND:                -0.567
REMARK  Name = 
REMARK  5 active torsions:
REMARK  status: ('A' for Active; 'I' for Inactive)
REMARK    1  A    between atoms: C_2  and  C_4
REMARK    2  A    between atoms: C_7  and  O_8
REMARK    3  A    between atoms: O_8  and  C_9
REMARK    4  A    between atoms: C_9  and  C_10
REMARK    5  A    between atoms: C_14  and  C_15
REMARK                            x       y       z     vdW  Elec       q    Type
REMARK                         _______ _______ _______ _____ _____    ______ ____
ROOT
ATOM      1  C   UNL     1      46.125   5.114  14.020  0.00  0.00    +0.000 C 
ENDROOT
BRANCH   1   2
ATOM      2  C   UNL     1      45.165   4.933  12.863  0.00  0.00    +0.000 A 
ATOM      3  C   UNL     1      43.913   5.555  12.845  0.00  0.00    +0.000 A 
ATOM      4  C   UNL     1      43.094   5.456  11.723  0.00  0.00    +0.000 A 
ATOM      5  C   UNL     1      43.540   4.770  10.590  0.00  0.00    +0.000 A 
ATOM      6  C   UNL     1      44.805   4.159  10.555  0.00  0.00    +0.000 A 
ATOM      7  C   UNL     1      45.594   4.234  11.718  0.00  0.00    +0.000 A 
BRANCH   6   8
ATOM      8  C   UNL     1      45.314   3.557   9.310  0.00  0.00    +0.000 A 
ATOM      9  C   UNL     1      45.460   2.185   9.110  0.00  0.00    +0.000 A 
ATOM     10  N   UNL     1      46.025   1.643   7.999  0.00  0.00    +0.000 NA
ATOM     11  C   UNL     1      46.447   2.535   7.079  0.00  0.00    +0.000 A 
ATOM     12  C   UNL     1      46.290   3.898   7.247  0.00  0.00    +0.000 A 
ATOM     13  N   UNL     1      45.719   4.433   8.349  0.00  0.00    +0.000 NA
ENDBRANCH   6   8
ENDBRANCH   1   2
BRANCH   1  14
ATOM     14  O   UNL     1      46.536   3.856  14.567  0.00  0.00    +0.000 OA
BRANCH  14  18
ATOM     15  C   UNL     1      48.529   4.363  18.130  0.00  0.00    +0.000 A 
ATOM     16  C   UNL     1      48.569   5.376  17.168  0.00  0.00    +0.000 A 
ATOM     17  C   UNL     1      47.893   5.192  15.960  0.00  0.00    +0.000 A 
ATOM     18  C   UNL     1      47.200   4.005  15.765  0.00  0.00    +0.000 A 
ATOM     19  N   UNL     1      47.147   3.012  16.680  0.00  0.00    +0.000 NA
ATOM     20  C   UNL     1      47.824   3.209  17.835  0.00  0.00    +0.000 A 
BRANCH  15  22
ATOM     21  N   UNL     1      48.586   3.889  20.515  0.00  0.00    +0.000 N 
ATOM     22  C   UNL     1      49.214   4.448  19.437  0.00  0.00    +0.000 C 
ATOM     23  O   UNL     1      50.321   4.957  19.543  0.00  0.00    +0.000 OA
ATOM     24  H   UNL     1      49.125   3.853  21.371  0.00  0.00    +0.000 HD
ATOM     25  H   UNL     1      47.812   3.247  20.423  0.00  0.00    +0.000 HD
ENDBRANCH  15  22
ENDBRANCH  14  18
ENDBRANCH   1  14
TORSDOF 5
ENDMDL
MODEL 6
REMARK VINA RESULT:    -7.052      3.117      3.846
REMARK INTER + INTRA:          -9.680
REMARK INTER:                  -9.131
REMARK INTRA:                  -0.549
REMARK UNBOUND:                -0.567
REMARK  Name = 
REMARK  5 active torsions:
REMARK  status: ('A' for Active; 'I' for Inactive)
REMARK    1  A    between atoms: C_2  and  C_4
REMARK    2  A    between atoms: C_7  and  O_8
REMARK    3  A    between atoms: O_8  and  C_9
REMARK    4  A    between atoms: C_9  and  C_10
REMARK    5  A    between atoms: C_14  and  C_15
REMARK                            x       y       z     vdW  Elec       q    Type
REMARK                         _______ _______ _______ _____ _____    ______ ____
ROOT
ATOM      1  C   UNL     1      44.984   5.319  11.159  0.00  0.00    +0.000 C 
ENDROOT
BRANCH   1   2
ATOM      2  C   UNL     1      45.438   6.713  11.538  0.00  0.00    +0.000 A 
ATOM      3  C   UNL     1      44.525   7.713  11.883  0.00  0.00    +0.000 A 
ATOM      4  C   UNL     1      44.974   8.954  12.327  0.00  0.00    +0.000 A 
ATOM      5  C   UNL     1      46.343   9.190  12.474  0.00  0.00    +0.000 A 
ATOM      6  C   UNL     1      47.294   8.200  12.171  0.00  0.00    +0.000 A 
ATOM      7  C   UNL     1      46.816   6.971  11.679  0.00  0.00    +0.000 A 
BRANCH   6   8
ATOM      8  C   UNL     1      48.723   8.418  12.458  0.00  0.00    +0.000 A 
ATOM      9  C   UNL     1      49.597   9.088  11.603  0.00  0.00    +0.000 A 
ATOM     10  N   UNL     1      50.933   9.195  11.827  0.00  0.00    +0.000 NA
ATOM     11  C   UNL     1      51.373   8.598  12.955  0.00  0.00    +0.000 A 
ATOM     12  C   UNL     1      50.520   7.949  13.828  0.00  0.00    +0.000 A 
ATOM     13  N   UNL     1      49.190   7.853  13.606  0.00  0.00    +0.000 NA
ENDBRANCH   6   8
ENDBRANCH   1   2
BRANCH   1  14
ATOM     14  O   UNL     1      44.514   5.266   9.807  0.00  0.00    +0.000 OA
BRANCH  14  18
ATOM     15  C   UNL     1      46.509   2.421   7.604  0.00  0.00    +0.000 A 
ATOM     16  C   UNL     1      45.640   2.019   8.622  0.00  0.00    +0.000 A 
ATOM     17  C   UNL     1      44.971   2.993   9.366  0.00  0.00    +0.000 A 
ATOM     18  C   UNL     1      45.195   4.328   9.060  0.00  0.00    +0.000 A 
ATOM     19  N   UNL     1      46.031   4.740   8.082  0.00  0.00    +0.000 NA
ATOM     20  C   UNL     1      46.679   3.777   7.387  0.00  0.00    +0.000 A 
BRANCH  15  22
ATOM     21  N   UNL     1      48.259   1.998   5.969  0.00  0.00    +0.000 N 
ATOM     22  C   UNL     1      47.274   1.478   6.761  0.00  0.00    +0.000 C 
ATOM     23  O   UNL     1      47.066   0.273   6.805  0.00  0.00    +0.000 OA
ATOM     24  H   UNL     1      48.846   1.324   5.493  0.00  0.00    +0.000 HD
ATOM     25  H   UNL     1      48.627   2.930   6.096  0.00  0.00    +0.000 HD
ENDBRANCH  15  22
ENDBRANCH  14  18
ENDBRANCH   1  14
TORSDOF 5
ENDMDL
MODEL 7
REMARK VINA RESULT:    -6.933      3.966      7.359
REMARK INTER + INTRA:          -9.527
REMARK INTER:                  -8.825
REMARK INTRA:                  -0.701
REMARK UNBOUND:                -0.567
REMARK  Name = 
REMARK  5 active torsions:
REMARK  status: ('A' for Active; 'I' for Inactive)
REMARK    1  A    between atoms: C_2  and  C_4
REMARK    2  A    between atoms: C_7  and  O_8
REMARK    3  A    between atoms: O_8  and  C_9
REMARK    4  A    between atoms: C_9  and  C_10
REMARK    5  A    between atoms: C_14  and  C_15
REMARK                            x       y       z     vdW  Elec       q    Type
REMARK                         _______ _______ _______ _____ _____    ______ ____
ROOT
ATOM      1  C   UNL     1      44.305   6.663  11.476  0.00  0.00    +0.000 C 
ENDROOT
BRANCH   1   2
ATOM      2  C   UNL     1      44.290   5.183  11.154  0.00  0.00    +0.000 A 
ATOM      3  C   UNL     1      43.424   4.299  11.804  0.00  0.00    +0.000 A 
ATOM      4  C   UNL     1      43.359   2.964  11.416  0.00  0.00    +0.000 A 
ATOM      5  C   UNL     1      44.128   2.509  10.342  0.00  0.00    +0.000 A 
ATOM      6  C   UNL     1      44.987   3.372   9.639  0.00  0.00    +0.000 A 
ATOM      7  C   UNL     1      45.069   4.706  10.081  0.00  0.00    +0.000 A 
BRANCH   6   8
ATOM      8  C   UNL     1      45.688   2.912   8.427  0.00  0.00    +0.000 A 
ATOM      9  C   UNL     1      46.185   1.621   8.257  0.00  0.00    +0.000 A 
ATOM     10  N   UNL     1      46.919   1.234   7.181  0.00  0.00    +0.000 NA
ATOM     11  C   UNL     1      47.143   2.199   6.265  0.00  0.00    +0.000 A 
ATOM     12  C   UNL     1      46.640   3.479   6.403  0.00  0.00    +0.000 A 
ATOM     13  N   UNL     1      45.902   3.857   7.471  0.00  0.00    +0.000 NA
ENDBRANCH   6   8
ENDBRANCH   1   2
BRANCH   1  14
ATOM     14  O   UNL     1      45.070   6.939  12.654  0.00  0.00    +0.000 OA
BRANCH  14  18
ATOM     15  C   UNL     1      48.494   9.051  11.792  0.00  0.00    +0.000 A 
ATOM     16  C   UNL     1      48.510   7.656  11.723  0.00  0.00    +0.000 A 
ATOM     17  C   UNL     1      47.344   6.948  12.022  0.00  0.00    +0.000 A 
ATOM     18  C   UNL     1      46.208   7.665  12.372  0.00  0.00    +0.000 A 
ATOM     19  N   UNL     1      46.169   9.013  12.445  0.00  0.00    +0.000 NA
ATOM     20  C   UNL     1      47.317   9.674  12.167  0.00  0.00    +0.000 A 
BRANCH  15  22
ATOM     21  N   UNL     1      49.517  11.252  11.626  0.00  0.00    +0.000 N 
ATOM     22  C   UNL     1      49.671   9.899  11.506  0.00  0.00    +0.000 C 
ATOM     23  O   UNL     1      50.754   9.408  11.218  0.00  0.00    +0.000 OA
ATOM     24  H   UNL     1      50.363  11.802  11.543  0.00  0.00    +0.000 HD
ATOM     25  H   UNL     1      48.732  11.672  12.103  0.00  0.00    +0.000 HD
ENDBRANCH  15  22
ENDBRANCH  14  18
ENDBRANCH   1  14
TORSDOF 5
ENDMDL
MODEL 8
REMARK VINA RESULT:    -6.645      2.877      4.077
REMARK INTER + INTRA:          -9.154
REMARK INTER:                  -8.536
REMARK INTRA:                  -0.618
REMARK UNBOUND:                -0.567
REMARK  Name = 
REMARK  5 active torsions:
REMARK  status: ('A' for Active; 'I' for Inactive)
REMARK    1  A    between atoms: C_2  and  C_4
REMARK    2  A    between atoms: C_7  and  O_8
REMARK    3  A    between atoms: O_8  and  C_9
REMARK    4  A    between atoms: C_9  and  C_10
REMARK    5  A    between atoms: C_14  and  C_15
REMARK                            x       y       z     vdW  Elec       q    Type
REMARK                         _______ _______ _______ _____ _____    ______ ____
ROOT
ATOM      1  C   UNL     1      47.119   8.062  12.458  0.00  0.00    +0.000 C 
ENDROOT
BRANCH   1   2
ATOM      2  C   UNL     1      48.028   7.747  13.628  0.00  0.00    +0.000 A 
ATOM      3  C   UNL     1      48.911   8.698  14.147  0.00  0.00    +0.000 A 
ATOM      4  C   UNL     1      49.659   8.416  15.287  0.00  0.00    +0.000 A 
ATOM      5  C   UNL     1      49.497   7.194  15.946  0.00  0.00    +0.000 A 
ATOM      6  C   UNL     1      48.595   6.224  15.477  0.00  0.00    +0.000 A 
ATOM      7  C   UNL     1      47.886   6.515  14.296  0.00  0.00    +0.000 A 
BRANCH   6   8
ATOM      8  C   UNL     1      48.336   5.000  16.255  0.00  0.00    +0.000 A 
ATOM      9  C   UNL     1      47.105   4.348  16.296  0.00  0.00    +0.000 A 
ATOM     10  N   UNL     1      46.846   3.279  17.096  0.00  0.00    +0.000 NA
ATOM     11  C   UNL     1      47.880   2.879  17.866  0.00  0.00    +0.000 A 
ATOM     12  C   UNL     1      49.115   3.497  17.824  0.00  0.00    +0.000 A 
ATOM     13  N   UNL     1      49.371   4.554  17.020  0.00  0.00    +0.000 NA
ENDBRANCH   6   8
ENDBRANCH   1   2
BRANCH   1  14
ATOM     14  O   UNL     1      45.742   7.859  12.791  0.00  0.00    +0.000 OA
BRANCH  14  18
ATOM     15  C   UNL     1      44.394   4.222  11.421  0.00  0.00    +0.000 A 
ATOM     16  C   UNL     1      45.192   5.016  10.594  0.00  0.00    +0.000 A 
ATOM     17  C   UNL     1      45.640   6.251  11.066  0.00  0.00    +0.000 A 
ATOM     18  C   UNL     1      45.278   6.639  12.349  0.00  0.00    +0.000 A 
ATOM     19  N   UNL     1      44.507   5.888  13.166  0.00  0.00    +0.000 NA
ATOM     20  C   UNL     1      44.072   4.703  12.677  0.00  0.00    +0.000 A 
BRANCH  15  22
ATOM     21  N   UNL     1      44.460   2.272   9.968  0.00  0.00    +0.000 N 
ATOM     22  C   UNL     1      43.857   2.904  11.020  0.00  0.00    +0.000 C 
ATOM     23  O   UNL     1      42.940   2.377  11.634  0.00  0.00    +0.000 OA
ATOM     24  H   UNL     1      44.155   1.323   9.789  0.00  0.00    +0.000 HD
ATOM     25  H   UNL     1      45.363   2.547   9.611  0.00  0.00    +0.000 HD
ENDBRANCH  15  22
ENDBRANCH  14  18
ENDBRANCH   1  14
TORSDOF 5
ENDMDL
MODEL 9
REMARK VINA RESULT:    -6.269      3.609      7.386
REMARK INTER + INTRA:          -8.668
REMARK INTER:                  -7.965
REMARK INTRA:                  -0.703
REMARK UNBOUND:                -0.567
REMARK  Name = 
REMARK  5 active torsions:
REMARK  status: ('A' for Active; 'I' for Inactive)
REMARK    1  A    between atoms: C_2  and  C_4
REMARK    2  A    between atoms: C_7  and  O_8
REMARK    3  A    between atoms: O_8  and  C_9
REMARK    4  A    between atoms: C_9  and  C_10
REMARK    5  A    between atoms: C_14  and  C_15
REMARK                            x       y       z     vdW  Elec       q    Type
REMARK                         _______ _______ _______ _____ _____    ______ ____
ROOT
ATOM      1  C   UNL     1      44.849   7.713  11.958  0.00  0.00    +0.000 C 
ENDROOT
BRANCH   1   2
ATOM      2  C   UNL     1      44.582   6.234  11.766  0.00  0.00    +0.000 A 
ATOM      3  C   UNL     1      43.631   5.555  12.532  0.00  0.00    +0.000 A 
ATOM      4  C   UNL     1      43.333   4.222  12.264  0.00  0.00    +0.000 A 
ATOM      5  C   UNL     1      43.952   3.567  11.196  0.00  0.00    +0.000 A 
ATOM      6  C   UNL     1      44.889   4.224  10.380  0.00  0.00    +0.000 A 
ATOM      7  C   UNL     1      45.208   5.557  10.701  0.00  0.00    +0.000 A 
BRANCH   6   8
ATOM      8  C   UNL     1      45.432   3.565   9.178  0.00  0.00    +0.000 A 
ATOM      9  C   UNL     1      45.555   2.183   9.036  0.00  0.00    +0.000 A 
ATOM     10  N   UNL     1      46.150   1.588   7.969  0.00  0.00    +0.000 NA
ATOM     11  C   UNL     1      46.626   2.436   7.033  0.00  0.00    +0.000 A 
ATOM     12  C   UNL     1      46.494   3.808   7.144  0.00  0.00    +0.000 A 
ATOM     13  N   UNL     1      45.892   4.395   8.203  0.00  0.00    +0.000 NA
ENDBRANCH   6   8
ENDBRANCH   1   2
BRANCH   1  14
ATOM     14  O   UNL     1      46.131   8.088  11.445  0.00  0.00    +0.000 OA
BRANCH  14  18
ATOM     15  C   UNL     1      49.156   7.548  14.182  0.00  0.00    +0.000 A 
ATOM     16  C   UNL     1      49.314   7.073  12.878  0.00  0.00    +0.000 A 
ATOM     17  C   UNL     1      48.280   7.257  11.958  0.00  0.00    +0.000 A 
ATOM     18  C   UNL     1      47.132   7.914  12.378  0.00  0.00    +0.000 A 
ATOM     19  N   UNL     1      46.955   8.382  13.633  0.00  0.00    +0.000 NA
ATOM     20  C   UNL     1      47.966   8.175  14.509  0.00  0.00    +0.000 A 
BRANCH  15  22
ATOM     21  N   UNL     1      50.960   8.487  15.515  0.00  0.00    +0.000 N 
ATOM     22  C   UNL     1      50.180   7.400  15.237  0.00  0.00    +0.000 C 
ATOM     23  O   UNL     1      50.294   6.360  15.871  0.00  0.00    +0.000 OA
ATOM     24  H   UNL     1      51.570   8.400  16.319  0.00  0.00    +0.000 HD
ATOM     25  H   UNL     1      50.728   9.419  15.204  0.00  0.00    +0.000 HD
ENDBRANCH  15  22
ENDBRANCH  14  18
ENDBRANCH   1  14
TORSDOF 5
ENDMDL
