MODEL 1
REMARK VINA RESULT:    -7.461      0.000      0.000
REMARK INTER + INTRA:         -11.573
REMARK INTER:                 -10.514
REMARK INTRA:                  -1.058
REMARK UNBOUND:                -1.058
REMARK  Name = 
REMARK  9 active torsions:
REMARK  status: ('A' for Active; 'I' for Inactive)
REMARK    1  A    between atoms: C_1  and  O_2
REMARK    2  A    between atoms: O_2  and  C_3
REMARK    3  A    between atoms: C_7  and  C_8
REMARK    4  A    between atoms: C_12  and  C_13
REMARK    5  A    between atoms: C_13  and  N_14
REMARK    6  A    between atoms: N_14  and  C_15
REMARK    7  A    between atoms: C_18  and  C_19
REMARK    8  A    between atoms: C_23  and  O_24
REMARK    9  A    between atoms: O_24  and  C_25
REMARK                            x       y       z     vdW  Elec       q    Type
REMARK                         _______ _______ _______ _____ _____    ______ ____
ROOT
ATOM      1  C   UNL     1      47.933   8.054  12.554  0.00  0.00    +0.000 C 
ATOM      2  C   UNL     1      48.195   9.536  12.723  0.00  0.00    +0.000 C 
ATOM      3  C   UNL     1      48.737   8.852  11.514  0.00  0.00    +0.000 C 
ENDROOT
BRANCH   1   8
ATOM      4  C   UNL     1      45.257   5.872  10.816  0.00  0.00    +0.000 A 
ATOM      5  C   UNL     1      44.092   6.589  11.122  0.00  0.00    +0.000 A 
ATOM      6  C   UNL     1      44.150   7.775  11.852  0.00  0.00    +0.000 A 
ATOM      7  C   UNL     1      45.378   8.267  12.292  0.00  0.00    +0.000 A 
ATOM      8  C   UNL     1      46.568   7.562  12.069  0.00  0.00    +0.000 A 
ATOM      9  C   UNL     1      46.467   6.360  11.340  0.00  0.00    +0.000 A 
BRANCH   4  14
ATOM     10  C   UNL     1      45.905   3.687   7.772  0.00  0.00    +0.000 A 
ATOM     11  C   UNL     1      45.434   2.453   8.204  0.00  0.00    +0.000 A 
ATOM     12  C   UNL     1      44.864   2.333   9.472  0.00  0.00    +0.000 A 
ATOM     13  C   UNL     1      44.765   3.448  10.309  0.00  0.00    +0.000 A 
ATOM     14  C   UNL     1      45.246   4.704   9.906  0.00  0.00    +0.000 A 
ATOM     15  C   UNL     1      45.803   4.796   8.618  0.00  0.00    +0.000 A 
BRANCH  10  17
ATOM     16  C   UNL     1      46.994   2.844   5.835  0.00  0.00    +0.000 C 
ATOM     17  O   UNL     1      46.495   3.952   6.569  0.00  0.00    +0.000 OA
ENDBRANCH  10  17
ENDBRANCH   4  14
ENDBRANCH   1   8
BRANCH   1  18
ATOM     18  N   UNL     1      48.730   7.038  13.281  0.00  0.00    +0.000 N 
ATOM     19  H   UNL     1      49.257   6.418  12.665  0.00  0.00    +0.000 HD
BRANCH  18  20
ATOM     20  C   UNL     1      48.280   6.271  14.390  0.00  0.00    +0.000 A 
ATOM     21  C   UNL     1      47.463   5.146  14.223  0.00  0.00    +0.000 A 
ATOM     22  C   UNL     1      47.177   4.286  15.292  0.00  0.00    +0.000 A 
ATOM     23  C   UNL     1      47.682   4.551  16.565  0.00  0.00    +0.000 A 
ATOM     24  C   UNL     1      48.507   5.663  16.747  0.00  0.00    +0.000 A 
ATOM     25  C   UNL     1      48.802   6.525  15.677  0.00  0.00    +0.000 A 
BRANCH  23  26
ATOM     26  C   UNL     1      47.357   3.620  17.670  0.00  0.00    +0.000 C 
ATOM     27  N   UNL     1      48.049   3.773  18.842  0.00  0.00    +0.000 N 
ATOM     28  O   UNL     1      46.483   2.769  17.560  0.00  0.00    +0.000 OA
ATOM     29  H   UNL     1      48.593   4.597  19.043  0.00  0.00    +0.000 HD
ATOM     30  H   UNL     1      47.737   3.210  19.624  0.00  0.00    +0.000 HD
ENDBRANCH  23  26
BRANCH  25  31
ATOM     31  O   UNL     1      49.662   7.535  16.022  0.00  0.00    +0.000 OA
ATOM     32  C   UNL     1      49.069   8.752  16.461  0.00  0.00    +0.000 C 
ENDBRANCH  25  31
ENDBRANCH  18  20
ENDBRANCH   1  18
TORSDOF 7
ENDMDL
MODEL 2
REMARK VINA RESULT:    -7.188      1.714      2.727
REMARK INTER + INTRA:         -11.188
REMARK INTER:                 -10.045
REMARK INTRA:                  -1.143
REMARK UNBOUND:                -1.058
REMARK  Name = 
REMARK  9 active torsions:
REMARK  status: ('A' for Active; 'I' for Inactive)
REMARK    1  A    between atoms: C_1  and  O_2
REMARK    2  A    between atoms: O_2  and  C_3
REMARK    3  A    between atoms: C_7  and  C_8
REMARK    4  A    between atoms: C_12  and  C_13
REMARK    5  A    between atoms: C_13  and  N_14
REMARK    6  A    between atoms: N_14  and  C_15
REMARK    7  A    between atoms: C_18  and  C_19
REMARK    8  A    between atoms: C_23  and  O_24
REMARK    9  A    between atoms: O_24  and  C_25
REMARK                            x       y       z     vdW  Elec       q    Type
REMARK                         _______ _______ _______ _____ _____    ______ ____
ROOT
ATOM      1  C   UNL     1      46.421   7.314  12.606  0.00  0.00    +0.000 C 
ATOM      2  C   UNL     1      45.939   8.554  13.331  0.00  0.00    +0.000 C 
ATOM      3  C   UNL     1      46.673   8.723  12.043  0.00  0.00    +0.000 C 
ENDROOT
BRANCH   1   8
ATOM      4  C   UNL     1      45.086   4.738  10.051  0.00  0.00    +0.000 A 
ATOM      5  C   UNL     1      43.704   4.869  10.243  0.00  0.00    +0.000 A 
ATOM      6  C   UNL     1      43.188   5.787  11.156  0.00  0.00    +0.000 A 
ATOM      7  C   UNL     1      44.049   6.594  11.898  0.00  0.00    +0.000 A 
ATOM      8  C   UNL     1      45.440   6.465  11.795  0.00  0.00    +0.000 A 
ATOM      9  C   UNL     1      45.923   5.517  10.871  0.00  0.00    +0.000 A 
BRANCH   4  14
ATOM     10  C   UNL     1      46.069   1.664   8.041  0.00  0.00    +0.000 A 
ATOM     11  C   UNL     1      46.545   2.234   6.866  0.00  0.00    +0.000 A 
ATOM     12  C   UNL     1      46.590   3.623   6.737  0.00  0.00    +0.000 A 
ATOM     13  C   UNL     1      46.157   4.442   7.784  0.00  0.00    +0.000 A 
ATOM     14  C   UNL     1      45.656   3.896   8.976  0.00  0.00    +0.000 A 
ATOM     15  C   UNL     1      45.636   2.493   9.081  0.00  0.00    +0.000 A 
BRANCH  10  17
ATOM     16  C   UNL     1      46.679  -0.560   7.467  0.00  0.00    +0.000 C 
ATOM     17  O   UNL     1      45.955   0.328   8.305  0.00  0.00    +0.000 OA
ENDBRANCH  10  17
ENDBRANCH   4  14
ENDBRANCH   1   8
BRANCH   1  18
ATOM     18  N   UNL     1      47.652   6.602  13.023  0.00  0.00    +0.000 N 
ATOM     19  H   UNL     1      47.961   5.899  12.351  0.00  0.00    +0.000 HD
BRANCH  18  20
ATOM     20  C   UNL     1      47.921   6.107  14.327  0.00  0.00    +0.000 A 
ATOM     21  C   UNL     1      48.799   6.764  15.197  0.00  0.00    +0.000 A 
ATOM     22  C   UNL     1      48.919   6.383  16.540  0.00  0.00    +0.000 A 
ATOM     23  C   UNL     1      48.177   5.311  17.038  0.00  0.00    +0.000 A 
ATOM     24  C   UNL     1      47.288   4.652  16.187  0.00  0.00    +0.000 A 
ATOM     25  C   UNL     1      47.160   5.034  14.841  0.00  0.00    +0.000 A 
BRANCH  23  26
ATOM     26  C   UNL     1      48.331   4.938  18.463  0.00  0.00    +0.000 C 
ATOM     27  N   UNL     1      47.278   5.204  19.297  0.00  0.00    +0.000 N 
ATOM     28  O   UNL     1      49.339   4.381  18.878  0.00  0.00    +0.000 OA
ATOM     29  H   UNL     1      46.361   5.437  18.950  0.00  0.00    +0.000 HD
ATOM     30  H   UNL     1      47.348   4.838  20.240  0.00  0.00    +0.000 HD
ENDBRANCH  23  26
BRANCH  25  31
ATOM     31  O   UNL     1      46.210   4.312  14.166  0.00  0.00    +0.000 OA
ATOM     32  C   UNL     1      46.682   3.235  13.363  0.00  0.00    +0.000 C 
ENDBRANCH  25  31
ENDBRANCH  18  20
ENDBRANCH   1  18
TORSDOF 7
ENDMDL
MODEL 3
REMARK VINA RESULT:    -7.034      1.779      2.675
REMARK INTER + INTRA:         -10.971
REMARK INTER:                  -9.845
REMARK INTRA:                  -1.126
REMARK UNBOUND:                -1.058
REMARK  Name = 
REMARK  9 active torsions:
REMARK  status: ('A' for Active; 'I' for Inactive)
REMARK    1  A    between atoms: C_1  and  O_2
REMARK    2  A    between atoms: O_2  and  C_3
REMARK    3  A    between atoms: C_7  and  C_8
REMARK    4  A    between atoms: C_12  and  C_13
REMARK    5  A    between atoms: C_13  and  N_14
REMARK    6  A    between atoms: N_14  and  C_15
REMARK    7  A    between atoms: C_18  and  C_19
REMARK    8  A    between atoms: C_23  and  O_24
REMARK    9  A    between atoms: O_24  and  C_25
REMARK                            x       y       z     vdW  Elec       q    Type
REMARK                         _______ _______ _______ _____ _____    ______ ____
ROOT
ATOM      1  C   UNL     1      49.045   7.817  12.757  0.00  0.00    +0.000 C 
ATOM      2  C   UNL     1      49.866   9.020  12.339  0.00  0.00    +0.000 C 
ATOM      3  C   UNL     1      50.012   7.755  11.563  0.00  0.00    +0.000 C 
ENDROOT
BRANCH   1   8
ATOM      4  C   UNL     1      45.724   6.442  11.335  0.00  0.00    +0.000 A 
ATOM      5  C   UNL     1      44.847   7.487  11.656  0.00  0.00    +0.000 A 
ATOM      6  C   UNL     1      45.304   8.638  12.296  0.00  0.00    +0.000 A 
ATOM      7  C   UNL     1      46.652   8.765  12.628  0.00  0.00    +0.000 A 
ATOM      8  C   UNL     1      47.563   7.729  12.388  0.00  0.00    +0.000 A 
ATOM      9  C   UNL     1      47.061   6.575  11.752  0.00  0.00    +0.000 A 
BRANCH   4  14
ATOM     10  C   UNL     1      45.476   4.009   8.423  0.00  0.00    +0.000 A 
ATOM     11  C   UNL     1      44.695   2.996   8.967  0.00  0.00    +0.000 A 
ATOM     12  C   UNL     1      44.209   3.117  10.270  0.00  0.00    +0.000 A 
ATOM     13  C   UNL     1      44.505   4.252  11.029  0.00  0.00    +0.000 A 
ATOM     14  C   UNL     1      45.303   5.286  10.513  0.00  0.00    +0.000 A 
ATOM     15  C   UNL     1      45.767   5.140   9.193  0.00  0.00    +0.000 A 
BRANCH  10  17
ATOM     16  C   UNL     1      47.047   3.072   6.906  0.00  0.00    +0.000 C 
ATOM     17  O   UNL     1      46.028   4.024   7.174  0.00  0.00    +0.000 OA
ENDBRANCH  10  17
ENDBRANCH   4  14
ENDBRANCH   1   8
BRANCH   1  18
ATOM     18  N   UNL     1      49.446   6.965  13.901  0.00  0.00    +0.000 N 
ATOM     19  H   UNL     1      49.244   5.975  13.760  0.00  0.00    +0.000 HD
BRANCH  18  20
ATOM     20  C   UNL     1      49.226   7.264  15.273  0.00  0.00    +0.000 A 
ATOM     21  C   UNL     1      49.229   8.580  15.749  0.00  0.00    +0.000 A 
ATOM     22  C   UNL     1      48.827   8.886  17.057  0.00  0.00    +0.000 A 
ATOM     23  C   UNL     1      48.438   7.870  17.930  0.00  0.00    +0.000 A 
ATOM     24  C   UNL     1      48.418   6.552  17.468  0.00  0.00    +0.000 A 
ATOM     25  C   UNL     1      48.813   6.241  16.156  0.00  0.00    +0.000 A 
BRANCH  23  26
ATOM     26  C   UNL     1      48.020   8.231  19.304  0.00  0.00    +0.000 C 
ATOM     27  N   UNL     1      47.086   9.224  19.435  0.00  0.00    +0.000 N 
ATOM     28  O   UNL     1      48.461   7.647  20.286  0.00  0.00    +0.000 OA
ATOM     29  H   UNL     1      46.538   9.554  18.656  0.00  0.00    +0.000 HD
ATOM     30  H   UNL     1      46.724   9.380  20.368  0.00  0.00    +0.000 HD
ENDBRANCH  23  26
BRANCH  25  31
ATOM     31  O   UNL     1      48.687   4.910  15.858  0.00  0.00    +0.000 OA
ATOM     32  C   UNL     1      47.427   4.312  16.142  0.00  0.00    +0.000 C 
ENDBRANCH  25  31
ENDBRANCH  18  20
ENDBRANCH   1  18
TORSDOF 7
ENDMDL
MODEL 4
REMARK VINA RESULT:    -6.803      2.813      7.330
REMARK INTER + INTRA:         -10.645
REMARK INTER:                  -9.299
REMARK INTRA:                  -1.346
REMARK UNBOUND:                -1.058
REMARK  Name = 
REMARK  9 active torsions:
REMARK  status: ('A' for Active; 'I' for Inactive)
REMARK    1  A    between atoms: C_1  and  O_2
REMARK    2  A    between atoms: O_2  and  C_3
REMARK    3  A    between atoms: C_7  and  C_8
REMARK    4  A    between atoms: C_12  and  C_13
REMARK    5  A    between atoms: C_13  and  N_14
REMARK    6  A    between atoms: N_14  and  C_15
REMARK    7  A    between atoms: C_18  and  C_19
REMARK    8  A    between atoms: C_23  and  O_24
REMARK    9  A    between atoms: O_24  and  C_25
REMARK                            x       y       z     vdW  Elec       q    Type
REMARK                         _______ _______ _______ _____ _____    ______ ____
ROOT
ATOM      1  C   UNL     1      47.686   7.832  13.106  0.00  0.00    +0.000 C 
ATOM      2  C   UNL     1      48.484   7.382  11.900  0.00  0.00    +0.000 C 
ATOM      3  C   UNL     1      48.085   8.816  11.994  0.00  0.00    +0.000 C 
ENDROOT
BRANCH   1   8
ATOM      4  C   UNL     1      49.807   7.167  16.269  0.00  0.00    +0.000 A 
ATOM      5  C   UNL     1      49.690   8.399  16.928  0.00  0.00    +0.000 A 
ATOM      6  C   UNL     1      48.921   9.430  16.393  0.00  0.00    +0.000 A 
ATOM      7  C   UNL     1      48.253   9.249  15.183  0.00  0.00    +0.000 A 
ATOM      8  C   UNL     1      48.382   8.064  14.449  0.00  0.00    +0.000 A 
ATOM      9  C   UNL     1      49.180   7.049  15.016  0.00  0.00    +0.000 A 
BRANCH   4  14
ATOM     10  C   UNL     1      50.369   3.681  17.678  0.00  0.00    +0.000 A 
ATOM     11  C   UNL     1      51.744   3.678  17.886  0.00  0.00    +0.000 A 
ATOM     12  C   UNL     1      52.490   4.825  17.610  0.00  0.00    +0.000 A 
ATOM     13  C   UNL     1      51.861   5.975  17.124  0.00  0.00    +0.000 A 
ATOM     14  C   UNL     1      50.477   6.003  16.889  0.00  0.00    +0.000 A 
ATOM     15  C   UNL     1      49.751   4.836  17.189  0.00  0.00    +0.000 A 
BRANCH  10  17
ATOM     16  C   UNL     1      48.138   2.943  18.033  0.00  0.00    +0.000 C 
ATOM     17  O   UNL     1      49.517   2.635  17.890  0.00  0.00    +0.000 OA
ENDBRANCH  10  17
ENDBRANCH   4  14
ENDBRANCH   1   8
BRANCH   1  18
ATOM     18  N   UNL     1      46.227   7.592  13.204  0.00  0.00    +0.000 N 
ATOM     19  H   UNL     1      45.836   7.832  14.115  0.00  0.00    +0.000 HD
BRANCH  18  20
ATOM     20  C   UNL     1      45.543   6.442  12.725  0.00  0.00    +0.000 A 
ATOM     21  C   UNL     1      44.829   6.458  11.521  0.00  0.00    +0.000 A 
ATOM     22  C   UNL     1      44.316   5.281  10.959  0.00  0.00    +0.000 A 
ATOM     23  C   UNL     1      44.484   4.058  11.609  0.00  0.00    +0.000 A 
ATOM     24  C   UNL     1      45.203   4.022  12.805  0.00  0.00    +0.000 A 
ATOM     25  C   UNL     1      45.725   5.198  13.370  0.00  0.00    +0.000 A 
BRANCH  23  26
ATOM     26  C   UNL     1      43.928   2.836  10.985  0.00  0.00    +0.000 C 
ATOM     27  N   UNL     1      44.530   2.387   9.840  0.00  0.00    +0.000 N 
ATOM     28  O   UNL     1      42.991   2.226  11.485  0.00  0.00    +0.000 OA
ATOM     29  H   UNL     1      45.433   2.721   9.540  0.00  0.00    +0.000 HD
ATOM     30  H   UNL     1      44.217   1.489   9.490  0.00  0.00    +0.000 HD
ENDBRANCH  23  26
BRANCH  25  31
ATOM     31  O   UNL     1      46.441   4.973  14.516  0.00  0.00    +0.000 OA
ATOM     32  C   UNL     1      47.257   3.807  14.537  0.00  0.00    +0.000 C 
ENDBRANCH  25  31
ENDBRANCH  18  20
ENDBRANCH   1  18
TORSDOF 7
ENDMDL
MODEL 5
REMARK VINA RESULT:    -6.623      2.535      7.698
REMARK INTER + INTRA:         -10.391
REMARK INTER:                  -9.277
REMARK INTRA:                  -1.114
REMARK UNBOUND:                -1.058
REMARK  Name = 
REMARK  9 active torsions:
REMARK  status: ('A' for Active; 'I' for Inactive)
REMARK    1  A    between atoms: C_1  and  O_2
REMARK    2  A    between atoms: O_2  and  C_3
REMARK    3  A    between atoms: C_7  and  C_8
REMARK    4  A    between atoms: C_12  and  C_13
REMARK    5  A    between atoms: C_13  and  N_14
REMARK    6  A    between atoms: N_14  and  C_15
REMARK    7  A    between atoms: C_18  and  C_19
REMARK    8  A    between atoms: C_23  and  O_24
REMARK    9  A    between atoms: O_24  and  C_25
REMARK                            x       y       z     vdW  Elec       q    Type
REMARK                         _______ _______ _______ _____ _____    ______ ____
ROOT
ATOM      1  C   UNL     1      44.914   7.076  11.378  0.00  0.00    +0.000 C 
ATOM      2  C   UNL     1      44.537   8.380  10.706  0.00  0.00    +0.000 C 
ATOM      3  C   UNL     1      44.034   8.120  12.086  0.00  0.00    +0.000 C 
ENDROOT
BRANCH   1   8
ATOM      4  C   UNL     1      47.710   5.986  13.814  0.00  0.00    +0.000 A 
ATOM      5  C   UNL     1      48.838   6.524  13.179  0.00  0.00    +0.000 A 
ATOM      6  C   UNL     1      48.718   7.254  11.999  0.00  0.00    +0.000 A 
ATOM      7  C   UNL     1      47.462   7.460  11.429  0.00  0.00    +0.000 A 
ATOM      8  C   UNL     1      46.308   6.895  11.983  0.00  0.00    +0.000 A 
ATOM      9  C   UNL     1      46.471   6.151  13.169  0.00  0.00    +0.000 A 
BRANCH   4  14
ATOM     10  C   UNL     1      48.540   5.431  17.484  0.00  0.00    +0.000 A 
ATOM     11  C   UNL     1      47.802   4.288  17.771  0.00  0.00    +0.000 A 
ATOM     12  C   UNL     1      47.064   3.666  16.762  0.00  0.00    +0.000 A 
ATOM     13  C   UNL     1      47.064   4.189  15.466  0.00  0.00    +0.000 A 
ATOM     14  C   UNL     1      47.786   5.350  15.149  0.00  0.00    +0.000 A 
ATOM     15  C   UNL     1      48.530   5.946  16.183  0.00  0.00    +0.000 A 
BRANCH  10  17
ATOM     16  C   UNL     1      50.271   7.024  17.820  0.00  0.00    +0.000 C 
ATOM     17  O   UNL     1      49.295   6.150  18.366  0.00  0.00    +0.000 OA
ENDBRANCH  10  17
ENDBRANCH   4  14
ENDBRANCH   1   8
BRANCH   1  18
ATOM     18  N   UNL     1      44.212   5.810  11.062  0.00  0.00    +0.000 N 
ATOM     19  H   UNL     1      43.869   5.319  11.888  0.00  0.00    +0.000 HD
BRANCH  18  20
ATOM     20  C   UNL     1      44.644   4.835  10.123  0.00  0.00    +0.000 A 
ATOM     21  C   UNL     1      45.661   5.105   9.198  0.00  0.00    +0.000 A 
ATOM     22  C   UNL     1      46.215   4.091   8.405  0.00  0.00    +0.000 A 
ATOM     23  C   UNL     1      45.740   2.782   8.499  0.00  0.00    +0.000 A 
ATOM     24  C   UNL     1      44.733   2.494   9.424  0.00  0.00    +0.000 A 
ATOM     25  C   UNL     1      44.180   3.506  10.227  0.00  0.00    +0.000 A 
BRANCH  23  26
ATOM     26  C   UNL     1      46.348   1.738   7.644  0.00  0.00    +0.000 C 
ATOM     27  N   UNL     1      46.840   2.131   6.429  0.00  0.00    +0.000 N 
ATOM     28  O   UNL     1      46.444   0.575   8.016  0.00  0.00    +0.000 OA
ATOM     29  H   UNL     1      46.991   3.101   6.197  0.00  0.00    +0.000 HD
ATOM     30  H   UNL     1      47.358   1.435   5.906  0.00  0.00    +0.000 HD
ENDBRANCH  23  26
BRANCH  25  31
ATOM     31  O   UNL     1      43.240   3.038  11.108  0.00  0.00    +0.000 OA
ATOM     32  C   UNL     1      43.649   2.910  12.465  0.00  0.00    +0.000 C 
ENDBRANCH  25  31
ENDBRANCH  18  20
ENDBRANCH   1  18
TORSDOF 7
ENDMDL
MODEL 6
REMARK VINA RESULT:    -6.615      3.742      5.645
REMARK INTER + INTRA:         -10.381
REMARK INTER:                  -9.296
REMARK INTRA:                  -1.084
REMARK UNBOUND:                -1.058
REMARK  Name = 
REMARK  9 active torsions:
REMARK  status: ('A' for Active; 'I' for Inactive)
REMARK    1  A    between atoms: C_1  and  O_2
REMARK    2  A    between atoms: O_2  and  C_3
REMARK    3  A    between atoms: C_7  and  C_8
REMARK    4  A    between atoms: C_12  and  C_13
REMARK    5  A    between atoms: C_13  and  N_14
REMARK    6  A    between atoms: N_14  and  C_15
REMARK    7  A    between atoms: C_18  and  C_19
REMARK    8  A    between atoms: C_23  and  O_24
REMARK    9  A    between atoms: O_24  and  C_25
REMARK                            x       y       z     vdW  Elec       q    Type
REMARK                         _______ _______ _______ _____ _____    ______ ____
ROOT
ATOM      1  C   UNL     1      48.858   5.537  17.533  0.00  0.00    +0.000 C 
ATOM      2  C   UNL     1      47.608   4.828  18.012  0.00  0.00    +0.000 C 
ATOM      3  C   UNL     1      47.861   6.220  18.484  0.00  0.00    +0.000 C 
ENDROOT
BRANCH   1   8
ATOM      4  C   UNL     1      47.912   6.300  13.863  0.00  0.00    +0.000 A 
ATOM      5  C   UNL     1      48.944   7.177  13.501  0.00  0.00    +0.000 A 
ATOM      6  C   UNL     1      49.955   7.507  14.402  0.00  0.00    +0.000 A 
ATOM      7  C   UNL     1      49.951   6.966  15.687  0.00  0.00    +0.000 A 
ATOM      8  C   UNL     1      48.913   6.134  16.125  0.00  0.00    +0.000 A 
ATOM      9  C   UNL     1      47.902   5.834  15.190  0.00  0.00    +0.000 A 
BRANCH   4  14
ATOM     10  C   UNL     1      45.053   4.304  12.346  0.00  0.00    +0.000 A 
ATOM     11  C   UNL     1      44.878   4.943  11.125  0.00  0.00    +0.000 A 
ATOM     12  C   UNL     1      45.717   6.001  10.768  0.00  0.00    +0.000 A 
ATOM     13  C   UNL     1      46.730   6.419  11.635  0.00  0.00    +0.000 A 
ATOM     14  C   UNL     1      46.922   5.803  12.882  0.00  0.00    +0.000 A 
ATOM     15  C   UNL     1      46.070   4.732  13.207  0.00  0.00    +0.000 A 
BRANCH  10  17
ATOM     16  C   UNL     1      43.409   2.639  11.930  0.00  0.00    +0.000 C 
ATOM     17  O   UNL     1      44.305   3.269  12.833  0.00  0.00    +0.000 OA
ENDBRANCH  10  17
ENDBRANCH   4  14
ENDBRANCH   1   8
BRANCH   1  18
ATOM     18  N   UNL     1      50.182   5.269  18.140  0.00  0.00    +0.000 N 
ATOM     19  H   UNL     1      50.869   6.002  17.957  0.00  0.00    +0.000 HD
BRANCH  18  20
ATOM     20  C   UNL     1      50.863   4.021  18.124  0.00  0.00    +0.000 A 
ATOM     21  C   UNL     1      50.370   2.924  17.407  0.00  0.00    +0.000 A 
ATOM     22  C   UNL     1      51.132   1.759  17.239  0.00  0.00    +0.000 A 
ATOM     23  C   UNL     1      52.400   1.657  17.812  0.00  0.00    +0.000 A 
ATOM     24  C   UNL     1      52.911   2.747  18.521  0.00  0.00    +0.000 A 
ATOM     25  C   UNL     1      52.154   3.919  18.687  0.00  0.00    +0.000 A 
BRANCH  23  26
ATOM     26  C   UNL     1      53.176   0.411  17.613  0.00  0.00    +0.000 C 
ATOM     27  N   UNL     1      53.001  -0.589  18.531  0.00  0.00    +0.000 N 
ATOM     28  O   UNL     1      53.917   0.261  16.649  0.00  0.00    +0.000 OA
ATOM     29  H   UNL     1      52.236  -0.590  19.188  0.00  0.00    +0.000 HD
ATOM     30  H   UNL     1      53.444  -1.475  18.320  0.00  0.00    +0.000 HD
ENDBRANCH  23  26
BRANCH  25  31
ATOM     31  O   UNL     1      52.826   4.901  19.367  0.00  0.00    +0.000 OA
ATOM     32  C   UNL     1      54.023   4.510  20.029  0.00  0.00    +0.000 C 
ENDBRANCH  25  31
ENDBRANCH  18  20
ENDBRANCH   1  18
TORSDOF 7
ENDMDL
MODEL 7
REMARK VINA RESULT:    -6.449      3.381      7.287
REMARK INTER + INTRA:         -10.146
REMARK INTER:                  -8.828
REMARK INTRA:                  -1.318
REMARK UNBOUND:                -1.058
REMARK  Name = 
REMARK  9 active torsions:
REMARK  status: ('A' for Active; 'I' for Inactive)
REMARK    1  A    between atoms: C_1  and  O_2
REMARK    2  A    between atoms: O_2  and  C_3
REMARK    3  A    between atoms: C_7  and  C_8
REMARK    4  A    between atoms: C_12  and  C_13
REMARK    5  A    between atoms: C_13  and  N_14
REMARK    6  A    between atoms: N_14  and  C_15
REMARK    7  A    between atoms: C_18  and  C_19
REMARK    8  A    between atoms: C_23  and  O_24
REMARK    9  A    between atoms: O_24  and  C_25
REMARK                            x       y       z     vdW  Elec       q    Type
REMARK                         _______ _______ _______ _____ _____    ______ ____
ROOT
ATOM      1  C   UNL     1      44.472   6.846  11.112  0.00  0.00    +0.000 C 
ATOM      2  C   UNL     1      44.235   8.230  10.542  0.00  0.00    +0.000 C 
ATOM      3  C   UNL     1      43.544   7.855  11.810  0.00  0.00    +0.000 C 
ENDROOT
BRANCH   1   8
ATOM      4  C   UNL     1      48.133   7.112  12.326  0.00  0.00    +0.000 A 
ATOM      5  C   UNL     1      48.196   6.027  13.211  0.00  0.00    +0.000 A 
ATOM      6  C   UNL     1      47.097   5.194  13.407  0.00  0.00    +0.000 A 
ATOM      7  C   UNL     1      45.908   5.431  12.718  0.00  0.00    +0.000 A 
ATOM      8  C   UNL     1      45.765   6.535  11.869  0.00  0.00    +0.000 A 
ATOM      9  C   UNL     1      46.895   7.363  11.708  0.00  0.00    +0.000 A 
BRANCH   4  14
ATOM     10  C   UNL     1      51.427   8.127  10.721  0.00  0.00    +0.000 A 
ATOM     11  C   UNL     1      51.530   9.460  11.104  0.00  0.00    +0.000 A 
ATOM     12  C   UNL     1      50.550  10.024  11.923  0.00  0.00    +0.000 A 
ATOM     13  C   UNL     1      49.466   9.256  12.357  0.00  0.00    +0.000 A 
ATOM     14  C   UNL     1      49.327   7.912  11.974  0.00  0.00    +0.000 A 
ATOM     15  C   UNL     1      50.337   7.368  11.160  0.00  0.00    +0.000 A 
BRANCH  10  17
ATOM     16  C   UNL     1      53.565   8.043   9.687  0.00  0.00    +0.000 C 
ATOM     17  O   UNL     1      52.298   7.446   9.919  0.00  0.00    +0.000 OA
ENDBRANCH  10  17
ENDBRANCH   4  14
ENDBRANCH   1   8
BRANCH   1  18
ATOM     18  N   UNL     1      43.773   5.656  10.574  0.00  0.00    +0.000 N 
ATOM     19  H   UNL     1      43.144   5.216  11.247  0.00  0.00    +0.000 HD
BRANCH  18  20
ATOM     20  C   UNL     1      44.369   4.627   9.797  0.00  0.00    +0.000 A 
ATOM     21  C   UNL     1      45.375   4.900   8.863  0.00  0.00    +0.000 A 
ATOM     22  C   UNL     1      46.090   3.869   8.237  0.00  0.00    +0.000 A 
ATOM     23  C   UNL     1      45.792   2.535   8.513  0.00  0.00    +0.000 A 
ATOM     24  C   UNL     1      44.799   2.245   9.451  0.00  0.00    +0.000 A 
ATOM     25  C   UNL     1      44.083   3.274  10.086  0.00  0.00    +0.000 A 
BRANCH  23  26
ATOM     26  C   UNL     1      46.569   1.474   7.832  0.00  0.00    +0.000 C 
ATOM     27  N   UNL     1      47.554   1.874   6.970  0.00  0.00    +0.000 N 
ATOM     28  O   UNL     1      46.368   0.286   8.053  0.00  0.00    +0.000 OA
ATOM     29  H   UNL     1      47.898   2.821   6.947  0.00  0.00    +0.000 HD
ATOM     30  H   UNL     1      48.153   1.144   6.602  0.00  0.00    +0.000 HD
ENDBRANCH  23  26
BRANCH  25  31
ATOM     31  O   UNL     1      43.181   2.812  11.009  0.00  0.00    +0.000 OA
ATOM     32  C   UNL     1      43.718   2.322  12.233  0.00  0.00    +0.000 C 
ENDBRANCH  25  31
ENDBRANCH  18  20
ENDBRANCH   1  18
TORSDOF 7
ENDMDL
MODEL 8
REMARK VINA RESULT:    -6.388      2.923      7.858
REMARK INTER + INTRA:         -10.060
REMARK INTER:                  -8.985
REMARK INTRA:                  -1.075
REMARK UNBOUND:                -1.058
REMARK  Name = 
REMARK  9 active torsions:
REMARK  status: ('A' for Active; 'I' for Inactive)
REMARK    1  A    between atoms: C_1  and  O_2
REMARK    2  A    between atoms: O_2  and  C_3
REMARK    3  A    between atoms: C_7  and  C_8
REMARK    4  A    between atoms: C_12  and  C_13
REMARK    5  A    between atoms: C_13  and  N_14
REMARK    6  A    between atoms: N_14  and  C_15
REMARK    7  A    between atoms: C_18  and  C_19
REMARK    8  A    between atoms: C_23  and  O_24
REMARK    9  A    between atoms: O_24  and  C_25
REMARK                            x       y       z     vdW  Elec       q    Type
REMARK                         _______ _______ _______ _____ _____    ______ ____
ROOT
ATOM      1  C   UNL     1      48.245   7.695  13.003  0.00  0.00    +0.000 C 
ATOM      2  C   UNL     1      48.403   7.760  11.498  0.00  0.00    +0.000 C 
ATOM      3  C   UNL     1      48.085   9.017  12.235  0.00  0.00    +0.000 C 
ENDROOT
BRANCH   1   8
ATOM      4  C   UNL     1      50.482   6.893  16.052  0.00  0.00    +0.000 A 
ATOM      5  C   UNL     1      51.699   7.454  15.641  0.00  0.00    +0.000 A 
ATOM      6  C   UNL     1      51.811   8.110  14.416  0.00  0.00    +0.000 A 
ATOM      7  C   UNL     1      50.703   8.216  13.577  0.00  0.00    +0.000 A 
ATOM      8  C   UNL     1      49.479   7.622  13.905  0.00  0.00    +0.000 A 
ATOM      9  C   UNL     1      49.409   6.955  15.145  0.00  0.00    +0.000 A 
BRANCH   4  14
ATOM     10  C   UNL     1      48.789   5.807  19.279  0.00  0.00    +0.000 A 
ATOM     11  C   UNL     1      49.813   5.118  19.918  0.00  0.00    +0.000 A 
ATOM     12  C   UNL     1      51.073   5.038  19.322  0.00  0.00    +0.000 A 
ATOM     13  C   UNL     1      51.308   5.648  18.087  0.00  0.00    +0.000 A 
ATOM     14  C   UNL     1      50.290   6.338  17.410  0.00  0.00    +0.000 A 
ATOM     15  C   UNL     1      49.035   6.412  18.042  0.00  0.00    +0.000 A 
BRANCH  10  17
ATOM     16  C   UNL     1      47.312   5.919  21.137  0.00  0.00    +0.000 C 
ATOM     17  O   UNL     1      47.509   5.958  19.732  0.00  0.00    +0.000 OA
ENDBRANCH  10  17
ENDBRANCH   4  14
ENDBRANCH   1   8
BRANCH   1  18
ATOM     18  N   UNL     1      46.995   7.207  13.630  0.00  0.00    +0.000 N 
ATOM     19  H   UNL     1      47.068   7.086  14.641  0.00  0.00    +0.000 HD
BRANCH  18  20
ATOM     20  C   UNL     1      46.166   6.168  13.126  0.00  0.00    +0.000 A 
ATOM     21  C   UNL     1      45.146   6.424  12.201  0.00  0.00    +0.000 A 
ATOM     22  C   UNL     1      44.457   5.382  11.565  0.00  0.00    +0.000 A 
ATOM     23  C   UNL     1      44.757   4.053  11.864  0.00  0.00    +0.000 A 
ATOM     24  C   UNL     1      45.779   3.779  12.776  0.00  0.00    +0.000 A 
ATOM     25  C   UNL     1      46.477   4.820  13.412  0.00  0.00    +0.000 A 
BRANCH  23  26
ATOM     26  C   UNL     1      44.008   2.979  11.173  0.00  0.00    +0.000 C 
ATOM     27  N   UNL     1      44.550   2.480  10.019  0.00  0.00    +0.000 N 
ATOM     28  O   UNL     1      42.965   2.525  11.627  0.00  0.00    +0.000 OA
ATOM     29  H   UNL     1      45.506   2.659   9.751  0.00  0.00    +0.000 HD
ATOM     30  H   UNL     1      44.091   1.669   9.621  0.00  0.00    +0.000 HD
ENDBRANCH  23  26
BRANCH  25  31
ATOM     31  O   UNL     1      47.476   4.373  14.237  0.00  0.00    +0.000 OA
ATOM     32  C   UNL     1      47.120   4.136  15.594  0.00  0.00    +0.000 C 
ENDBRANCH  25  31
ENDBRANCH  18  20
ENDBRANCH   1  18
TORSDOF 7
ENDMDL
MODEL 9
REMARK VINA RESULT:    -6.386      2.234      3.979
REMARK INTER + INTRA:         -10.057
REMARK INTER:                  -9.036
REMARK INTRA:                  -1.021
REMARK UNBOUND:                -1.058
REMARK  Name = 
REMARK  9 active torsions:
REMARK  status: ('A' for Active; 'I' for Inactive)
REMARK    1  A    between atoms: C_1  and  O_2
REMARK    2  A    between atoms: O_2  and  C_3
REMARK    3  A    between atoms: C_7  and  C_8
REMARK    4  A    between atoms: C_12  and  C_13
REMARK    5  A    between atoms: C_13  and  N_14
REMARK    6  A    between atoms: N_14  and  C_15
REMARK    7  A    between atoms: C_18  and  C_19
REMARK    8  A    between atoms: C_23  and  O_24
REMARK    9  A    between atoms: O_24  and  C_25
REMARK                            x       y       z     vdW  Elec       q    Type
REMARK                         _______ _______ _______ _____ _____    ______ ____
ROOT
ATOM      1  C   UNL     1      48.608   8.250  16.249  0.00  0.00    +0.000 C 
ATOM      2  C   UNL     1      48.293   9.654  16.721  0.00  0.00    +0.000 C 
ATOM      3  C   UNL     1      49.708   9.186  16.776  0.00  0.00    +0.000 C 
ENDROOT
BRANCH   1   8
ATOM      4  C   UNL     1      47.546   7.192  12.686  0.00  0.00    +0.000 A 
ATOM      5  C   UNL     1      48.758   7.331  11.997  0.00  0.00    +0.000 A 
ATOM      6  C   UNL     1      49.918   7.732  12.658  0.00  0.00    +0.000 A 
ATOM      7  C   UNL     1      49.887   8.001  14.025  0.00  0.00    +0.000 A 
ATOM      8  C   UNL     1      48.692   7.940  14.753  0.00  0.00    +0.000 A 
ATOM      9  C   UNL     1      47.538   7.545  14.048  0.00  0.00    +0.000 A 
BRANCH   4  14
ATOM     10  C   UNL     1      45.311   5.451  10.149  0.00  0.00    +0.000 A 
ATOM     11  C   UNL     1      44.126   5.314  10.863  0.00  0.00    +0.000 A 
ATOM     12  C   UNL     1      44.033   5.826  12.158  0.00  0.00    +0.000 A 
ATOM     13  C   UNL     1      45.126   6.474  12.740  0.00  0.00    +0.000 A 
ATOM     14  C   UNL     1      46.341   6.613  12.051  0.00  0.00    +0.000 A 
ATOM     15  C   UNL     1      46.400   6.099  10.743  0.00  0.00    +0.000 A 
BRANCH  10  17
ATOM     16  C   UNL     1      44.731   3.935   8.414  0.00  0.00    +0.000 C 
ATOM     17  O   UNL     1      45.552   4.992   8.886  0.00  0.00    +0.000 OA
ENDBRANCH  10  17
ENDBRANCH   4  14
ENDBRANCH   1   8
BRANCH   1  18
ATOM     18  N   UNL     1      48.359   7.069  17.109  0.00  0.00    +0.000 N 
ATOM     19  H   UNL     1      48.160   7.310  18.081  0.00  0.00    +0.000 HD
BRANCH  18  20
ATOM     20  C   UNL     1      49.116   5.867  17.104  0.00  0.00    +0.000 A 
ATOM     21  C   UNL     1      50.439   5.828  17.563  0.00  0.00    +0.000 A 
ATOM     22  C   UNL     1      51.118   4.614  17.734  0.00  0.00    +0.000 A 
ATOM     23  C   UNL     1      50.494   3.407  17.420  0.00  0.00    +0.000 A 
ATOM     24  C   UNL     1      49.171   3.426  16.972  0.00  0.00    +0.000 A 
ATOM     25  C   UNL     1      48.484   4.640  16.805  0.00  0.00    +0.000 A 
BRANCH  23  26
ATOM     26  C   UNL     1      51.244   2.144  17.613  0.00  0.00    +0.000 C 
ATOM     27  N   UNL     1      52.339   2.185  18.433  0.00  0.00    +0.000 N 
ATOM     28  O   UNL     1      50.884   1.095  17.093  0.00  0.00    +0.000 OA
ATOM     29  H   UNL     1      52.520   2.960  19.053  0.00  0.00    +0.000 HD
ATOM     30  H   UNL     1      52.772   1.295  18.649  0.00  0.00    +0.000 HD
ENDBRANCH  23  26
BRANCH  25  31
ATOM     31  O   UNL     1      47.184   4.471  16.404  0.00  0.00    +0.000 OA
ATOM     32  C   UNL     1      46.981   4.097  15.046  0.00  0.00    +0.000 C 
ENDBRANCH  25  31
ENDBRANCH  18  20
ENDBRANCH   1  18
TORSDOF 7
ENDMDL
