MODEL 1
REMARK VINA RESULT:    -7.820      0.000      0.000
REMARK INTER + INTRA:         -11.640
REMARK INTER:                 -10.563
REMARK INTRA:                  -1.076
REMARK UNBOUND:                -1.076
REMARK  Name = 
REMARK  6 active torsions:
REMARK  status: ('A' for Active; 'I' for Inactive)
REMARK    1  A    between atoms: C_2  and  C_25
REMARK    2  A    between atoms: N_3  and  C_4
REMARK    3  A    between atoms: C_4  and  C_5
REMARK    4  A    between atoms: C_8  and  C_9
REMARK    5  A    between atoms: C_9  and  N_10
REMARK    6  A    between atoms: C_11  and  C_13
REMARK                            x       y       z     vdW  Elec       q    Type
REMARK                         _______ _______ _______ _____ _____    ______ ____
ROOT
ATOM      1  C   UNL     1      44.882   5.635  10.805  0.00  0.00    +0.000 A 
ATOM      2  C   UNL     1      46.227   5.944  10.563  0.00  0.00    +0.000 A 
ATOM      3  C   UNL     1      46.934   6.783  11.432  0.00  0.00    +0.000 A 
ATOM      4  C   UNL     1      46.316   7.313  12.573  0.00  0.00    +0.000 A 
ATOM      5  C   UNL     1      44.970   7.007  12.811  0.00  0.00    +0.000 A 
ATOM      6  C   UNL     1      44.263   6.167  11.943  0.00  0.00    +0.000 A 
ENDROOT
BRANCH   1   7
ATOM      7  C   UNL     1      44.116   4.754   9.853  0.00  0.00    +0.000 C 
BRANCH   7  10
ATOM      8  O   UNL     1      45.055   2.170   9.808  0.00  0.00    +0.000 OA
ATOM      9  C   UNL     1      45.376   2.898   8.870  0.00  0.00    +0.000 C 
ATOM     10  N   UNL     1      44.950   4.209   8.810  0.00  0.00    +0.000 N 
ATOM     11  H   UNL     1      45.184   4.777   8.006  0.00  0.00    +0.000 HD
BRANCH   9  12
ATOM     12  C   UNL     1      46.203   2.431   7.777  0.00  0.00    +0.000 A 
ATOM     13  C   UNL     1      46.835   1.204   7.677  0.00  0.00    +0.000 A 
ATOM     14  N   UNL     1      47.591   0.999   6.537  0.00  0.00    +0.000 NA
ATOM     15  C   UNL     1      47.529   2.074   5.785  0.00  0.00    +0.000 A 
ATOM     16  S   UNL     1      46.568   3.363   6.383  0.00  0.00    +0.000 S 
ENDBRANCH   9  12
ENDBRANCH   7  10
ENDBRANCH   1   7
BRANCH   4  17
ATOM     17  C   UNL     1      47.073   8.213  13.515  0.00  0.00    +0.000 C 
BRANCH  17  18
ATOM     18  N   UNL     1      47.511   7.507  14.695  0.00  0.00    +0.000 N 
ATOM     19  C   UNL     1      48.750   6.914  14.740  0.00  0.00    +0.000 C 
ATOM     20  O   UNL     1      49.542   7.003  13.804  0.00  0.00    +0.000 OA
ATOM     21  H   UNL     1      46.799   7.235  15.367  0.00  0.00    +0.000 HD
BRANCH  19  22
ATOM     22  C   UNL     1      49.109   6.220  15.982  0.00  0.00    +0.000 A 
ATOM     23  C   UNL     1      50.189   6.671  16.729  0.00  0.00    +0.000 A 
ATOM     24  S   UNL     1      50.444   5.791  18.168  0.00  0.00    +0.000 S 
ATOM     25  C   UNL     1      49.152   4.741  17.817  0.00  0.00    +0.000 A 
ATOM     26  N   UNL     1      48.838   3.716  18.656  0.00  0.00    +0.000 NA
ATOM     27  C   UNL     1      47.859   2.977  18.251  0.00  0.00    +0.000 A 
ATOM     28  N   UNL     1      47.164   3.172  17.085  0.00  0.00    +0.000 N 
ATOM     29  C   UNL     1      47.426   4.211  16.223  0.00  0.00    +0.000 A 
ATOM     30  O   UNL     1      46.758   4.382  15.209  0.00  0.00    +0.000 OA
ATOM     31  C   UNL     1      48.525   5.067  16.627  0.00  0.00    +0.000 A 
ATOM     32  H   UNL     1      46.405   2.560  16.829  0.00  0.00    +0.000 HD
ENDBRANCH  19  22
ENDBRANCH  17  18
ENDBRANCH   4  17
TORSDOF 6
ENDMDL
MODEL 2
REMARK VINA RESULT:    -7.067      4.826      9.215
REMARK INTER + INTRA:         -10.622
REMARK INTER:                  -9.867
REMARK INTRA:                  -0.755
REMARK UNBOUND:                -1.076
REMARK  Name = 
REMARK  6 active torsions:
REMARK  status: ('A' for Active; 'I' for Inactive)
REMARK    1  A    between atoms: C_2  and  C_25
REMARK    2  A    between atoms: N_3  and  C_4
REMARK    3  A    between atoms: C_4  and  C_5
REMARK    4  A    between atoms: C_8  and  C_9
REMARK    5  A    between atoms: C_9  and  N_10
REMARK    6  A    between atoms: C_11  and  C_13
REMARK                            x       y       z     vdW  Elec       q    Type
REMARK                         _______ _______ _______ _____ _____    ______ ____
ROOT
ATOM      1  C   UNL     1      51.415   3.105  17.666  0.00  0.00    +0.000 A 
ATOM      2  C   UNL     1      50.735   4.302  17.925  0.00  0.00    +0.000 A 
ATOM      3  C   UNL     1      49.359   4.407  17.689  0.00  0.00    +0.000 A 
ATOM      4  C   UNL     1      48.630   3.310  17.210  0.00  0.00    +0.000 A 
ATOM      5  C   UNL     1      49.312   2.115  16.947  0.00  0.00    +0.000 A 
ATOM      6  C   UNL     1      50.687   2.009  17.183  0.00  0.00    +0.000 A 
ENDROOT
BRANCH   1   7
ATOM      7  C   UNL     1      52.900   3.003  17.893  0.00  0.00    +0.000 C 
BRANCH   7  10
ATOM      8  O   UNL     1      54.187   1.145  19.460  0.00  0.00    +0.000 OA
ATOM      9  C   UNL     1      54.083   0.889  18.262  0.00  0.00    +0.000 C 
ATOM     10  N   UNL     1      53.451   1.764  17.401  0.00  0.00    +0.000 N 
ATOM     11  H   UNL     1      53.333   1.513  16.428  0.00  0.00    +0.000 HD
BRANCH   9  12
ATOM     12  C   UNL     1      54.600  -0.334  17.684  0.00  0.00    +0.000 A 
ATOM     13  C   UNL     1      54.798  -0.600  16.340  0.00  0.00    +0.000 A 
ATOM     14  N   UNL     1      55.287  -1.856  16.034  0.00  0.00    +0.000 NA
ATOM     15  C   UNL     1      55.451  -2.534  17.148  0.00  0.00    +0.000 A 
ATOM     16  S   UNL     1      55.050  -1.713  18.600  0.00  0.00    +0.000 S 
ENDBRANCH   9  12
ENDBRANCH   7  10
ENDBRANCH   1   7
BRANCH   4  17
ATOM     17  C   UNL     1      47.148   3.416  16.959  0.00  0.00    +0.000 C 
BRANCH  17  18
ATOM     18  N   UNL     1      46.842   4.413  15.964  0.00  0.00    +0.000 N 
ATOM     19  C   UNL     1      46.968   4.132  14.625  0.00  0.00    +0.000 C 
ATOM     20  O   UNL     1      47.297   3.016  14.228  0.00  0.00    +0.000 OA
ATOM     21  H   UNL     1      46.795   5.381  16.271  0.00  0.00    +0.000 HD
BRANCH  19  22
ATOM     22  C   UNL     1      46.632   5.208  13.685  0.00  0.00    +0.000 A 
ATOM     23  C   UNL     1      47.572   6.191  13.408  0.00  0.00    +0.000 A 
ATOM     24  S   UNL     1      47.048   7.339  12.260  0.00  0.00    +0.000 S 
ATOM     25  C   UNL     1      45.524   6.593  12.133  0.00  0.00    +0.000 A 
ATOM     26  N   UNL     1      44.564   7.103  11.313  0.00  0.00    +0.000 NA
ATOM     27  C   UNL     1      43.444   6.460  11.340  0.00  0.00    +0.000 A 
ATOM     28  N   UNL     1      43.199   5.351  12.110  0.00  0.00    +0.000 N 
ATOM     29  C   UNL     1      44.147   4.785  12.928  0.00  0.00    +0.000 A 
ATOM     30  O   UNL     1      43.909   3.768  13.572  0.00  0.00    +0.000 OA
ATOM     31  C   UNL     1      45.422   5.476  12.942  0.00  0.00    +0.000 A 
ATOM     32  H   UNL     1      42.302   4.891  12.080  0.00  0.00    +0.000 HD
ENDBRANCH  19  22
ENDBRANCH  17  18
ENDBRANCH   4  17
TORSDOF 6
ENDMDL
MODEL 3
REMARK VINA RESULT:    -6.725      4.767      9.179
REMARK INTER + INTRA:         -10.160
REMARK INTER:                  -9.088
REMARK INTRA:                  -1.072
REMARK UNBOUND:                -1.076
REMARK  Name = 
REMARK  6 active torsions:
REMARK  status: ('A' for Active; 'I' for Inactive)
REMARK    1  A    between atoms: C_2  and  C_25
REMARK    2  A    between atoms: N_3  and  C_4
REMARK    3  A    between atoms: C_4  and  C_5
REMARK    4  A    between atoms: C_8  and  C_9
REMARK    5  A    between atoms: C_9  and  N_10
REMARK    6  A    between atoms: C_11  and  C_13
REMARK                            x       y       z     vdW  Elec       q    Type
REMARK                         _______ _______ _______ _____ _____    ______ ____
ROOT
ATOM      1  C   UNL     1      51.491   3.039  17.747  0.00  0.00    +0.000 A 
ATOM      2  C   UNL     1      50.922   4.305  17.940  0.00  0.00    +0.000 A 
ATOM      3  C   UNL     1      49.573   4.533  17.640  0.00  0.00    +0.000 A 
ATOM      4  C   UNL     1      48.762   3.496  17.162  0.00  0.00    +0.000 A 
ATOM      5  C   UNL     1      49.334   2.233  16.965  0.00  0.00    +0.000 A 
ATOM      6  C   UNL     1      50.681   2.003  17.265  0.00  0.00    +0.000 A 
ENDROOT
BRANCH   1   7
ATOM      7  C   UNL     1      52.949   2.803  18.044  0.00  0.00    +0.000 C 
BRANCH   7  10
ATOM      8  O   UNL     1      54.284   0.847  19.442  0.00  0.00    +0.000 OA
ATOM      9  C   UNL     1      54.102   0.650  18.241  0.00  0.00    +0.000 C 
ATOM     10  N   UNL     1      53.440   1.578  17.462  0.00  0.00    +0.000 N 
ATOM     11  H   UNL     1      53.257   1.376  16.488  0.00  0.00    +0.000 HD
BRANCH   9  12
ATOM     12  C   UNL     1      54.554  -0.555  17.577  0.00  0.00    +0.000 A 
ATOM     13  C   UNL     1      54.867  -0.697  16.236  0.00  0.00    +0.000 A 
ATOM     14  N   UNL     1      55.259  -1.961  15.834  0.00  0.00    +0.000 NA
ATOM     15  C   UNL     1      55.236  -2.766  16.872  0.00  0.00    +0.000 A 
ATOM     16  S   UNL     1      54.765  -2.064  18.365  0.00  0.00    +0.000 S 
ENDBRANCH   9  12
ENDBRANCH   7  10
ENDBRANCH   1   7
BRANCH   4  17
ATOM     17  C   UNL     1      47.309   3.734  16.842  0.00  0.00    +0.000 C 
BRANCH  17  18
ATOM     18  N   UNL     1      47.143   4.714  15.796  0.00  0.00    +0.000 N 
ATOM     19  C   UNL     1      47.143   4.337  14.474  0.00  0.00    +0.000 C 
ATOM     20  O   UNL     1      47.236   3.158  14.140  0.00  0.00    +0.000 OA
ATOM     21  H   UNL     1      47.295   5.688  16.040  0.00  0.00    +0.000 HD
BRANCH  19  22
ATOM     22  C   UNL     1      46.967   5.401  13.480  0.00  0.00    +0.000 A 
ATOM     23  C   UNL     1      45.928   5.316  12.564  0.00  0.00    +0.000 A 
ATOM     24  S   UNL     1      45.827   6.655  11.512  0.00  0.00    +0.000 S 
ATOM     25  C   UNL     1      47.203   7.372  12.209  0.00  0.00    +0.000 A 
ATOM     26  N   UNL     1      47.683   8.558  11.744  0.00  0.00    +0.000 NA
ATOM     27  C   UNL     1      48.752   8.971  12.339  0.00  0.00    +0.000 A 
ATOM     28  N   UNL     1      49.383   8.306  13.359  0.00  0.00    +0.000 N 
ATOM     29  C   UNL     1      48.918   7.122  13.881  0.00  0.00    +0.000 A 
ATOM     30  O   UNL     1      49.483   6.574  14.822  0.00  0.00    +0.000 OA
ATOM     31  C   UNL     1      47.722   6.609  13.239  0.00  0.00    +0.000 A 
ATOM     32  H   UNL     1      50.214   8.686  13.786  0.00  0.00    +0.000 HD
ENDBRANCH  19  22
ENDBRANCH  17  18
ENDBRANCH   4  17
TORSDOF 6
ENDMDL
MODEL 4
REMARK VINA RESULT:    -6.719      3.754      5.088
REMARK INTER + INTRA:         -10.152
REMARK INTER:                  -9.141
REMARK INTRA:                  -1.011
REMARK UNBOUND:                -1.076
REMARK  Name = 
REMARK  6 active torsions:
REMARK  status: ('A' for Active; 'I' for Inactive)
REMARK    1  A    between atoms: C_2  and  C_25
REMARK    2  A    between atoms: N_3  and  C_4
REMARK    3  A    between atoms: C_4  and  C_5
REMARK    4  A    between atoms: C_8  and  C_9
REMARK    5  A    between atoms: C_9  and  N_10
REMARK    6  A    between atoms: C_11  and  C_13
REMARK                            x       y       z     vdW  Elec       q    Type
REMARK                         _______ _______ _______ _____ _____    ______ ____
ROOT
ATOM      1  C   UNL     1      44.930   4.785  11.918  0.00  0.00    +0.000 A 
ATOM      2  C   UNL     1      46.151   4.817  12.604  0.00  0.00    +0.000 A 
ATOM      3  C   UNL     1      46.667   6.026  13.086  0.00  0.00    +0.000 A 
ATOM      4  C   UNL     1      45.963   7.224  12.911  0.00  0.00    +0.000 A 
ATOM      5  C   UNL     1      44.744   7.191  12.221  0.00  0.00    +0.000 A 
ATOM      6  C   UNL     1      44.226   5.984  11.740  0.00  0.00    +0.000 A 
ENDROOT
BRANCH   1   7
ATOM      7  C   UNL     1      44.390   3.488  11.376  0.00  0.00    +0.000 C 
BRANCH   7  10
ATOM      8  O   UNL     1      44.259   3.988   8.674  0.00  0.00    +0.000 OA
ATOM      9  C   UNL     1      45.125   3.202   9.056  0.00  0.00    +0.000 C 
ATOM     10  N   UNL     1      45.263   2.893  10.394  0.00  0.00    +0.000 N 
ATOM     11  H   UNL     1      46.012   2.282  10.693  0.00  0.00    +0.000 HD
BRANCH   9  12
ATOM     12  C   UNL     1      46.049   2.565   8.141  0.00  0.00    +0.000 A 
ATOM     13  C   UNL     1      46.334   1.213   8.055  0.00  0.00    +0.000 A 
ATOM     14  N   UNL     1      47.273   0.848   7.107  0.00  0.00    +0.000 NA
ATOM     15  C   UNL     1      47.695   1.927   6.487  0.00  0.00    +0.000 A 
ATOM     16  S   UNL     1      46.992   3.411   6.985  0.00  0.00    +0.000 S 
ENDBRANCH   9  12
ENDBRANCH   7  10
ENDBRANCH   1   7
BRANCH   4  17
ATOM     17  C   UNL     1      46.510   8.527  13.433  0.00  0.00    +0.000 C 
BRANCH  17  18
ATOM     18  N   UNL     1      47.810   8.823  12.880  0.00  0.00    +0.000 N 
ATOM     19  C   UNL     1      47.960   9.794  11.920  0.00  0.00    +0.000 C 
ATOM     20  O   UNL     1      47.011  10.473  11.534  0.00  0.00    +0.000 OA
ATOM     21  H   UNL     1      48.542   8.132  13.015  0.00  0.00    +0.000 HD
BRANCH  19  22
ATOM     22  C   UNL     1      49.319  10.026  11.417  0.00  0.00    +0.000 A 
ATOM     23  C   UNL     1      49.716  11.316  11.091  0.00  0.00    +0.000 A 
ATOM     24  S   UNL     1      51.338  11.425  10.573  0.00  0.00    +0.000 S 
ATOM     25  C   UNL     1      51.551   9.743  10.714  0.00  0.00    +0.000 A 
ATOM     26  N   UNL     1      52.738   9.160  10.392  0.00  0.00    +0.000 NA
ATOM     27  C   UNL     1      52.751   7.874  10.511  0.00  0.00    +0.000 A 
ATOM     28  N   UNL     1      51.685   7.119  10.926  0.00  0.00    +0.000 N 
ATOM     29  C   UNL     1      50.477   7.666  11.291  0.00  0.00    +0.000 A 
ATOM     30  O   UNL     1      49.556   6.965  11.698  0.00  0.00    +0.000 OA
ATOM     31  C   UNL     1      50.407   9.110  11.165  0.00  0.00    +0.000 A 
ATOM     32  H   UNL     1      51.762   6.116  11.003  0.00  0.00    +0.000 HD
ENDBRANCH  19  22
ENDBRANCH  17  18
ENDBRANCH   4  17
TORSDOF 6
ENDMDL
MODEL 5
REMARK VINA RESULT:    -6.709      3.069      8.151
REMARK INTER + INTRA:         -10.139
REMARK INTER:                  -9.273
REMARK INTRA:                  -0.865
REMARK UNBOUND:                -1.076
REMARK  Name = 
REMARK  6 active torsions:
REMARK  status: ('A' for Active; 'I' for Inactive)
REMARK    1  A    between atoms: C_2  and  C_25
REMARK    2  A    between atoms: N_3  and  C_4
REMARK    3  A    between atoms: C_4  and  C_5
REMARK    4  A    between atoms: C_8  and  C_9
REMARK    5  A    between atoms: C_9  and  N_10
REMARK    6  A    between atoms: C_11  and  C_13
REMARK                            x       y       z     vdW  Elec       q    Type
REMARK                         _______ _______ _______ _____ _____    ______ ____
ROOT
ATOM      1  C   UNL     1      50.235   7.267  15.721  0.00  0.00    +0.000 A 
ATOM      2  C   UNL     1      50.909   7.883  14.658  0.00  0.00    +0.000 A 
ATOM      3  C   UNL     1      50.240   8.182  13.466  0.00  0.00    +0.000 A 
ATOM      4  C   UNL     1      48.877   7.889  13.319  0.00  0.00    +0.000 A 
ATOM      5  C   UNL     1      48.206   7.268  14.380  0.00  0.00    +0.000 A 
ATOM      6  C   UNL     1      48.874   6.971  15.573  0.00  0.00    +0.000 A 
ENDROOT
BRANCH   1   7
ATOM      7  C   UNL     1      50.965   6.921  16.992  0.00  0.00    +0.000 C 
BRANCH   7  10
ATOM      8  O   UNL     1      49.739   4.870  18.354  0.00  0.00    +0.000 OA
ATOM      9  C   UNL     1      50.756   4.591  17.720  0.00  0.00    +0.000 C 
ATOM     10  N   UNL     1      51.435   5.558  17.007  0.00  0.00    +0.000 N 
ATOM     11  H   UNL     1      52.241   5.299  16.453  0.00  0.00    +0.000 HD
BRANCH   9  12
ATOM     12  C   UNL     1      51.294   3.248  17.673  0.00  0.00    +0.000 A 
ATOM     13  C   UNL     1      50.634   2.101  17.267  0.00  0.00    +0.000 A 
ATOM     14  N   UNL     1      51.360   0.926  17.331  0.00  0.00    +0.000 NA
ATOM     15  C   UNL     1      52.562   1.191  17.789  0.00  0.00    +0.000 A 
ATOM     16  S   UNL     1      52.890   2.836  18.150  0.00  0.00    +0.000 S 
ENDBRANCH   9  12
ENDBRANCH   7  10
ENDBRANCH   1   7
BRANCH   4  17
ATOM     17  C   UNL     1      48.150   8.213  12.040  0.00  0.00    +0.000 C 
BRANCH  17  18
ATOM     18  N   UNL     1      47.515   7.048  11.473  0.00  0.00    +0.000 N 
ATOM     19  C   UNL     1      46.148   6.982  11.351  0.00  0.00    +0.000 C 
ATOM     20  O   UNL     1      45.425   7.923  11.672  0.00  0.00    +0.000 OA
ATOM     21  H   UNL     1      48.066   6.195  11.422  0.00  0.00    +0.000 HD
BRANCH  19  22
ATOM     22  C   UNL     1      45.592   5.758  10.762  0.00  0.00    +0.000 A 
ATOM     23  C   UNL     1      45.800   5.492   9.416  0.00  0.00    +0.000 A 
ATOM     24  S   UNL     1      45.136   4.008   8.899  0.00  0.00    +0.000 S 
ATOM     25  C   UNL     1      44.499   3.694  10.444  0.00  0.00    +0.000 A 
ATOM     26  N   UNL     1      43.777   2.566  10.685  0.00  0.00    +0.000 NA
ATOM     27  C   UNL     1      43.323   2.470  11.891  0.00  0.00    +0.000 A 
ATOM     28  N   UNL     1      43.530   3.400  12.878  0.00  0.00    +0.000 N 
ATOM     29  C   UNL     1      44.277   4.538  12.689  0.00  0.00    +0.000 A 
ATOM     30  O   UNL     1      44.477   5.329  13.605  0.00  0.00    +0.000 OA
ATOM     31  C   UNL     1      44.802   4.699  11.346  0.00  0.00    +0.000 A 
ATOM     32  H   UNL     1      43.151   3.263  13.803  0.00  0.00    +0.000 HD
ENDBRANCH  19  22
ENDBRANCH  17  18
ENDBRANCH   4  17
TORSDOF 6
ENDMDL
MODEL 6
REMARK VINA RESULT:    -6.707      2.636      2.838
REMARK INTER + INTRA:         -10.136
REMARK INTER:                  -9.299
REMARK INTRA:                  -0.837
REMARK UNBOUND:                -1.076
REMARK  Name = 
REMARK  6 active torsions:
REMARK  status: ('A' for Active; 'I' for Inactive)
REMARK    1  A    between atoms: C_2  and  C_25
REMARK    2  A    between atoms: N_3  and  C_4
REMARK    3  A    between atoms: C_4  and  C_5
REMARK    4  A    between atoms: C_8  and  C_9
REMARK    5  A    between atoms: C_9  and  N_10
REMARK    6  A    between atoms: C_11  and  C_13
REMARK                            x       y       z     vdW  Elec       q    Type
REMARK                         _______ _______ _______ _____ _____    ______ ____
ROOT
ATOM      1  C   UNL     1      45.367   6.660  11.550  0.00  0.00    +0.000 A 
ATOM      2  C   UNL     1      46.669   6.236  11.846  0.00  0.00    +0.000 A 
ATOM      3  C   UNL     1      47.506   7.013  12.655  0.00  0.00    +0.000 A 
ATOM      4  C   UNL     1      47.051   8.220  13.203  0.00  0.00    +0.000 A 
ATOM      5  C   UNL     1      45.750   8.645  12.903  0.00  0.00    +0.000 A 
ATOM      6  C   UNL     1      44.913   7.868  12.095  0.00  0.00    +0.000 A 
ENDROOT
BRANCH   1   7
ATOM      7  C   UNL     1      44.478   5.836  10.657  0.00  0.00    +0.000 C 
BRANCH   7  10
ATOM      8  O   UNL     1      43.701   3.291   9.962  0.00  0.00    +0.000 OA
ATOM      9  C   UNL     1      44.759   3.701   9.487  0.00  0.00    +0.000 C 
ATOM     10  N   UNL     1      45.225   4.967   9.782  0.00  0.00    +0.000 N 
ATOM     11  H   UNL     1      46.073   5.304   9.343  0.00  0.00    +0.000 HD
BRANCH   9  12
ATOM     12  C   UNL     1      45.570   2.900   8.594  0.00  0.00    +0.000 A 
ATOM     13  C   UNL     1      45.748   1.528   8.639  0.00  0.00    +0.000 A 
ATOM     14  N   UNL     1      46.591   0.993   7.682  0.00  0.00    +0.000 NA
ATOM     15  C   UNL     1      47.048   1.963   6.924  0.00  0.00    +0.000 A 
ATOM     16  S   UNL     1      46.492   3.543   7.298  0.00  0.00    +0.000 S 
ENDBRANCH   9  12
ENDBRANCH   7  10
ENDBRANCH   1   7
BRANCH   4  17
ATOM     17  C   UNL     1      47.946   9.058  14.079  0.00  0.00    +0.000 C 
BRANCH  17  18
ATOM     18  N   UNL     1      47.655   8.869  15.479  0.00  0.00    +0.000 N 
ATOM     19  C   UNL     1      48.362   9.551  16.441  0.00  0.00    +0.000 C 
ATOM     20  O   UNL     1      49.225  10.374  16.146  0.00  0.00    +0.000 OA
ATOM     21  H   UNL     1      47.121   8.044  15.738  0.00  0.00    +0.000 HD
BRANCH  19  22
ATOM     22  C   UNL     1      47.995   9.295  17.839  0.00  0.00    +0.000 A 
ATOM     23  C   UNL     1      47.615  10.355  18.651  0.00  0.00    +0.000 A 
ATOM     24  S   UNL     1      47.171   9.887  20.230  0.00  0.00    +0.000 S 
ATOM     25  C   UNL     1      47.524   8.255  19.901  0.00  0.00    +0.000 A 
ATOM     26  N   UNL     1      47.378   7.303  20.863  0.00  0.00    +0.000 NA
ATOM     27  C   UNL     1      47.715   6.113  20.490  0.00  0.00    +0.000 A 
ATOM     28  N   UNL     1      48.181   5.789  19.241  0.00  0.00    +0.000 N 
ATOM     29  C   UNL     1      48.315   6.712  18.230  0.00  0.00    +0.000 A 
ATOM     30  O   UNL     1      48.695   6.382  17.112  0.00  0.00    +0.000 OA
ATOM     31  C   UNL     1      47.959   8.069  18.602  0.00  0.00    +0.000 A 
ATOM     32  H   UNL     1      48.422   4.837  19.011  0.00  0.00    +0.000 HD
ENDBRANCH  19  22
ENDBRANCH  17  18
ENDBRANCH   4  17
TORSDOF 6
ENDMDL
MODEL 7
REMARK VINA RESULT:    -6.530      4.682      7.501
REMARK INTER + INTRA:          -9.897
REMARK INTER:                  -9.062
REMARK INTRA:                  -0.835
REMARK UNBOUND:                -1.076
REMARK  Name = 
REMARK  6 active torsions:
REMARK  status: ('A' for Active; 'I' for Inactive)
REMARK    1  A    between atoms: C_2  and  C_25
REMARK    2  A    between atoms: N_3  and  C_4
REMARK    3  A    between atoms: C_4  and  C_5
REMARK    4  A    between atoms: C_8  and  C_9
REMARK    5  A    between atoms: C_9  and  N_10
REMARK    6  A    between atoms: C_11  and  C_13
REMARK                            x       y       z     vdW  Elec       q    Type
REMARK                         _______ _______ _______ _____ _____    ______ ____
ROOT
ATOM      1  C   UNL     1      50.637   8.910  11.358  0.00  0.00    +0.000 A 
ATOM      2  C   UNL     1      50.203   7.626  11.711  0.00  0.00    +0.000 A 
ATOM      3  C   UNL     1      48.870   7.399  12.076  0.00  0.00    +0.000 A 
ATOM      4  C   UNL     1      47.941   8.447  12.076  0.00  0.00    +0.000 A 
ATOM      5  C   UNL     1      48.378   9.732  11.727  0.00  0.00    +0.000 A 
ATOM      6  C   UNL     1      49.709   9.959  11.361  0.00  0.00    +0.000 A 
ENDROOT
BRANCH   1   7
ATOM      7  C   UNL     1      52.077   9.157  10.992  0.00  0.00    +0.000 C 
BRANCH   7  10
ATOM      8  O   UNL     1      53.764   6.997  10.762  0.00  0.00    +0.000 OA
ATOM      9  C   UNL     1      53.300   7.457   9.720  0.00  0.00    +0.000 C 
ATOM     10  N   UNL     1      52.445   8.540   9.741  0.00  0.00    +0.000 N 
ATOM     11  H   UNL     1      52.035   8.874   8.878  0.00  0.00    +0.000 HD
BRANCH   9  12
ATOM     12  C   UNL     1      53.608   6.896   8.421  0.00  0.00    +0.000 A 
ATOM     13  C   UNL     1      52.731   6.711   7.366  0.00  0.00    +0.000 A 
ATOM     14  N   UNL     1      53.264   6.134   6.227  0.00  0.00    +0.000 NA
ATOM     15  C   UNL     1      54.537   5.883   6.431  0.00  0.00    +0.000 A 
ATOM     16  S   UNL     1      55.162   6.329   7.965  0.00  0.00    +0.000 S 
ENDBRANCH   9  12
ENDBRANCH   7  10
ENDBRANCH   1   7
BRANCH   4  17
ATOM     17  C   UNL     1      46.504   8.208  12.463  0.00  0.00    +0.000 C 
BRANCH  17  18
ATOM     18  N   UNL     1      46.090   6.855  12.180  0.00  0.00    +0.000 N 
ATOM     19  C   UNL     1      44.863   6.600  11.616  0.00  0.00    +0.000 C 
ATOM     20  O   UNL     1      44.101   7.507  11.291  0.00  0.00    +0.000 OA
ATOM     21  H   UNL     1      46.596   6.106  12.644  0.00  0.00    +0.000 HD
BRANCH  19  22
ATOM     22  C   UNL     1      44.529   5.193  11.364  0.00  0.00    +0.000 A 
ATOM     23  C   UNL     1      43.794   4.486  12.305  0.00  0.00    +0.000 A 
ATOM     24  S   UNL     1      43.445   2.882  11.839  0.00  0.00    +0.000 S 
ATOM     25  C   UNL     1      44.312   3.059  10.387  0.00  0.00    +0.000 A 
ATOM     26  N   UNL     1      44.429   2.022   9.513  0.00  0.00    +0.000 NA
ATOM     27  C   UNL     1      45.143   2.282   8.469  0.00  0.00    +0.000 A 
ATOM     28  N   UNL     1      45.747   3.487   8.218  0.00  0.00    +0.000 N 
ATOM     29  C   UNL     1      45.631   4.571   9.056  0.00  0.00    +0.000 A 
ATOM     30  O   UNL     1      46.150   5.648   8.781  0.00  0.00    +0.000 OA
ATOM     31  C   UNL     1      44.846   4.328  10.251  0.00  0.00    +0.000 A 
ATOM     32  H   UNL     1      46.288   3.628   7.378  0.00  0.00    +0.000 HD
ENDBRANCH  19  22
ENDBRANCH  17  18
ENDBRANCH   4  17
TORSDOF 6
ENDMDL
MODEL 8
REMARK VINA RESULT:    -5.655      4.697      7.099
REMARK INTER + INTRA:          -8.715
REMARK INTER:                  -8.248
REMARK INTRA:                  -0.467
REMARK UNBOUND:                -1.076
REMARK  Name = 
REMARK  6 active torsions:
REMARK  status: ('A' for Active; 'I' for Inactive)
REMARK    1  A    between atoms: C_2  and  C_25
REMARK    2  A    between atoms: N_3  and  C_4
REMARK    3  A    between atoms: C_4  and  C_5
REMARK    4  A    between atoms: C_8  and  C_9
REMARK    5  A    between atoms: C_9  and  N_10
REMARK    6  A    between atoms: C_11  and  C_13
REMARK                            x       y       z     vdW  Elec       q    Type
REMARK                         _______ _______ _______ _____ _____    ______ ____
ROOT
ATOM      1  C   UNL     1      51.823   9.284  12.529  0.00  0.00    +0.000 A 
ATOM      2  C   UNL     1      50.474   9.531  12.240  0.00  0.00    +0.000 A 
ATOM      3  C   UNL     1      49.462   8.980  13.035  0.00  0.00    +0.000 A 
ATOM      4  C   UNL     1      49.778   8.190  14.148  0.00  0.00    +0.000 A 
ATOM      5  C   UNL     1      51.126   7.940  14.433  0.00  0.00    +0.000 A 
ATOM      6  C   UNL     1      52.139   8.490  13.640  0.00  0.00    +0.000 A 
ENDROOT
BRANCH   1   7
ATOM      7  C   UNL     1      52.910   9.853  11.656  0.00  0.00    +0.000 C 
BRANCH   7  10
ATOM      8  O   UNL     1      54.301   7.641  10.797  0.00  0.00    +0.000 OA
ATOM      9  C   UNL     1      53.599   8.217   9.967  0.00  0.00    +0.000 C 
ATOM     10  N   UNL     1      52.867   9.336  10.310  0.00  0.00    +0.000 N 
ATOM     11  H   UNL     1      52.258   9.767   9.625  0.00  0.00    +0.000 HD
BRANCH   9  12
ATOM     12  C   UNL     1      53.491   7.763   8.596  0.00  0.00    +0.000 A 
ATOM     13  C   UNL     1      52.531   6.911   8.077  0.00  0.00    +0.000 A 
ATOM     14  N   UNL     1      52.652   6.607   6.733  0.00  0.00    +0.000 NA
ATOM     15  C   UNL     1      53.704   7.227   6.247  0.00  0.00    +0.000 A 
ATOM     16  S   UNL     1      54.584   8.203   7.350  0.00  0.00    +0.000 S 
ENDBRANCH   9  12
ENDBRANCH   7  10
ENDBRANCH   1   7
BRANCH   4  17
ATOM     17  C   UNL     1      48.693   7.599  15.011  0.00  0.00    +0.000 C 
BRANCH  17  18
ATOM     18  N   UNL     1      47.487   7.348  14.260  0.00  0.00    +0.000 N 
ATOM     19  C   UNL     1      47.389   6.253  13.434  0.00  0.00    +0.000 C 
ATOM     20  O   UNL     1      48.297   5.431  13.343  0.00  0.00    +0.000 OA
ATOM     21  H   UNL     1      46.836   8.120  14.149  0.00  0.00    +0.000 HD
BRANCH  19  22
ATOM     22  C   UNL     1      46.124   6.078  12.711  0.00  0.00    +0.000 A 
ATOM     23  C   UNL     1      45.481   7.188  12.181  0.00  0.00    +0.000 A 
ATOM     24  S   UNL     1      44.052   6.811  11.328  0.00  0.00    +0.000 S 
ATOM     25  C   UNL     1      44.214   5.155  11.684  0.00  0.00    +0.000 A 
ATOM     26  N   UNL     1      43.285   4.256  11.257  0.00  0.00    +0.000 NA
ATOM     27  C   UNL     1      43.512   3.039  11.627  0.00  0.00    +0.000 A 
ATOM     28  N   UNL     1      44.585   2.641  12.383  0.00  0.00    +0.000 N 
ATOM     29  C   UNL     1      45.562   3.509  12.811  0.00  0.00    +0.000 A 
ATOM     30  O   UNL     1      46.531   3.113  13.451  0.00  0.00    +0.000 OA
ATOM     31  C   UNL     1      45.349   4.892  12.429  0.00  0.00    +0.000 A 
ATOM     32  H   UNL     1      44.707   1.672  12.635  0.00  0.00    +0.000 HD
ENDBRANCH  19  22
ENDBRANCH  17  18
ENDBRANCH   4  17
TORSDOF 6
ENDMDL
MODEL 9
REMARK VINA RESULT:    -5.522      2.367      3.305
REMARK INTER + INTRA:          -8.535
REMARK INTER:                  -7.501
REMARK INTRA:                  -1.034
REMARK UNBOUND:                -1.076
REMARK  Name = 
REMARK  6 active torsions:
REMARK  status: ('A' for Active; 'I' for Inactive)
REMARK    1  A    between atoms: C_2  and  C_25
REMARK    2  A    between atoms: N_3  and  C_4
REMARK    3  A    between atoms: C_4  and  C_5
REMARK    4  A    between atoms: C_8  and  C_9
REMARK    5  A    between atoms: C_9  and  N_10
REMARK    6  A    between atoms: C_11  and  C_13
REMARK                            x       y       z     vdW  Elec       q    Type
REMARK                         _______ _______ _______ _____ _____    ______ ____
ROOT
ATOM      1  C   UNL     1      46.964   7.755  12.269  0.00  0.00    +0.000 A 
ATOM      2  C   UNL     1      48.164   7.643  11.554  0.00  0.00    +0.000 A 
ATOM      3  C   UNL     1      49.396   7.708  12.215  0.00  0.00    +0.000 A 
ATOM      4  C   UNL     1      49.454   7.866  13.606  0.00  0.00    +0.000 A 
ATOM      5  C   UNL     1      48.254   7.983  14.318  0.00  0.00    +0.000 A 
ATOM      6  C   UNL     1      47.021   7.916  13.659  0.00  0.00    +0.000 A 
ENDROOT
BRANCH   1   7
ATOM      7  C   UNL     1      45.640   7.713  11.553  0.00  0.00    +0.000 C 
BRANCH   7  10
ATOM      8  O   UNL     1      44.600   5.270  12.269  0.00  0.00    +0.000 OA
ATOM      9  C   UNL     1      44.991   5.392  11.109  0.00  0.00    +0.000 C 
ATOM     10  N   UNL     1      45.527   6.583  10.663  0.00  0.00    +0.000 N 
ATOM     11  H   UNL     1      45.799   6.679   9.693  0.00  0.00    +0.000 HD
BRANCH   9  12
ATOM     12  C   UNL     1      44.909   4.314  10.147  0.00  0.00    +0.000 A 
ATOM     13  C   UNL     1      45.335   4.340   8.830  0.00  0.00    +0.000 A 
ATOM     14  N   UNL     1      45.129   3.183   8.101  0.00  0.00    +0.000 NA
ATOM     15  C   UNL     1      44.544   2.292   8.869  0.00  0.00    +0.000 A 
ATOM     16  S   UNL     1      44.228   2.776  10.485  0.00  0.00    +0.000 S 
ENDBRANCH   9  12
ENDBRANCH   7  10
ENDBRANCH   1   7
BRANCH   4  17
ATOM     17  C   UNL     1      50.778   7.931  14.323  0.00  0.00    +0.000 C 
BRANCH  17  18
ATOM     18  N   UNL     1      50.663   7.518  15.700  0.00  0.00    +0.000 N 
ATOM     19  C   UNL     1      51.709   6.894  16.336  0.00  0.00    +0.000 C 
ATOM     20  O   UNL     1      52.787   6.708  15.776  0.00  0.00    +0.000 OA
ATOM     21  H   UNL     1      49.727   7.456  16.092  0.00  0.00    +0.000 HD
BRANCH  19  22
ATOM     22  C   UNL     1      51.501   6.511  17.738  0.00  0.00    +0.000 A 
ATOM     23  C   UNL     1      52.405   6.932  18.702  0.00  0.00    +0.000 A 
ATOM     24  S   UNL     1      51.995   6.449  20.286  0.00  0.00    +0.000 S 
ATOM     25  C   UNL     1      50.621   5.613  19.732  0.00  0.00    +0.000 A 
ATOM     26  N   UNL     1      49.817   4.938  20.599  0.00  0.00    +0.000 NA
ATOM     27  C   UNL     1      48.831   4.320  20.040  0.00  0.00    +0.000 A 
ATOM     28  N   UNL     1      48.573   4.318  18.693  0.00  0.00    +0.000 N 
ATOM     29  C   UNL     1      49.339   5.010  17.784  0.00  0.00    +0.000 A 
ATOM     30  O   UNL     1      49.057   5.021  16.590  0.00  0.00    +0.000 OA
ATOM     31  C   UNL     1      50.469   5.715  18.361  0.00  0.00    +0.000 A 
ATOM     32  H   UNL     1      47.781   3.818  18.320  0.00  0.00    +0.000 HD
ENDBRANCH  19  22
ENDBRANCH  17  18
ENDBRANCH   4  17
TORSDOF 6
ENDMDL
