MODEL 1
REMARK VINA RESULT:    -8.332      0.000      0.000
REMARK INTER + INTRA:         -12.472
REMARK INTER:                 -11.741
REMARK INTRA:                  -0.731
REMARK UNBOUND:                -0.731
REMARK  Name = 
REMARK  7 active torsions:
REMARK  status: ('A' for Active; 'I' for Inactive)
REMARK    1  A    between atoms: C_2  and  O_3
REMARK    2  A    between atoms: C_2  and  C_21
REMARK    3  A    between atoms: O_3  and  C_4
REMARK    4  A    between atoms: C_4  and  C_5
REMARK    5  A    between atoms: C_8  and  C_9
REMARK    6  A    between atoms: C_9  and  N_10
REMARK    7  A    between atoms: C_11  and  C_13
REMARK                            x       y       z     vdW  Elec       q    Type
REMARK                         _______ _______ _______ _____ _____    ______ ____
ROOT
ATOM      1  C   UNL     1      46.788   4.417  14.053  0.00  0.00    +0.000 A 
ATOM      2  C   UNL     1      47.338   5.644  13.691  0.00  0.00    +0.000 A 
ATOM      3  C   UNL     1      46.905   6.265  12.522  0.00  0.00    +0.000 A 
ATOM      4  C   UNL     1      45.931   5.651  11.734  0.00  0.00    +0.000 A 
ATOM      5  C   UNL     1      45.414   4.444  12.189  0.00  0.00    +0.000 A 
ATOM      6  N   UNL     1      45.809   3.826  13.325  0.00  0.00    +0.000 NA
ENDROOT
BRANCH   1   7
ATOM      7  C   UNL     1      47.279   3.692  15.285  0.00  0.00    +0.000 C 
BRANCH   7   8
ATOM      8  O   UNL     1      48.308   4.434  15.962  0.00  0.00    +0.000 OA
BRANCH   8  10
ATOM      9  O   UNL     1      47.342   4.406  18.038  0.00  0.00    +0.000 OA
ATOM     10  C   UNL     1      48.325   4.306  17.316  0.00  0.00    +0.000 C 
BRANCH  10  11
ATOM     11  C   UNL     1      49.673   4.148  17.857  0.00  0.00    +0.000 A 
ATOM     12  C   UNL     1      50.192   5.082  18.740  0.00  0.00    +0.000 A 
ATOM     13  S   UNL     1      51.802   4.754  19.200  0.00  0.00    +0.000 S 
ATOM     14  C   UNL     1      51.820   3.305  18.306  0.00  0.00    +0.000 A 
ATOM     15  N   UNL     1      52.910   2.491  18.316  0.00  0.00    +0.000 NA
ATOM     16  C   UNL     1      52.759   1.392  17.655  0.00  0.00    +0.000 A 
ATOM     17  N   UNL     1      51.624   1.043  16.969  0.00  0.00    +0.000 N 
ATOM     18  C   UNL     1      50.501   1.839  16.914  0.00  0.00    +0.000 A 
ATOM     19  O   UNL     1      49.500   1.467  16.316  0.00  0.00    +0.000 OA
ATOM     20  C   UNL     1      50.623   3.087  17.647  0.00  0.00    +0.000 A 
ATOM     21  H   UNL     1      51.558   0.155  16.498  0.00  0.00    +0.000 HD
ENDBRANCH  10  11
ENDBRANCH   8  10
ENDBRANCH   7   8
ENDBRANCH   1   7
BRANCH   4  22
ATOM     22  C   UNL     1      45.434   6.270  10.464  0.00  0.00    +0.000 C 
BRANCH  22  23
ATOM     23  N   UNL     1      44.860   5.280   9.582  0.00  0.00    +0.000 N 
ATOM     24  C   UNL     1      45.588   4.798   8.514  0.00  0.00    +0.000 C 
ATOM     25  O   UNL     1      46.671   5.290   8.198  0.00  0.00    +0.000 OA
ATOM     26  H   UNL     1      44.098   4.717   9.929  0.00  0.00    +0.000 HD
BRANCH  24  27
ATOM     27  C   UNL     1      44.914   3.670   7.691  0.00  0.00    +0.000 C 
ATOM     28  C   UNL     1      45.869   3.099   6.633  0.00  0.00    +0.000 C 
ATOM     29  C   UNL     1      46.975   2.261   7.273  0.00  0.00    +0.000 C 
ATOM     30  C   UNL     1      46.377   1.180   8.166  0.00  0.00    +0.000 C 
ATOM     31  C   UNL     1      45.374   1.754   9.165  0.00  0.00    +0.000 C 
ATOM     32  N   UNL     1      44.359   2.572   8.512  0.00  0.00    +0.000 NA
ATOM     33  H   UNL     1      43.641   2.899   9.152  0.00  0.00    +0.000 HD
ENDBRANCH  24  27
ENDBRANCH  22  23
ENDBRANCH   4  22
TORSDOF 7
ENDMDL
MODEL 2
REMARK VINA RESULT:    -7.677      2.246      2.735
REMARK INTER + INTRA:         -11.550
REMARK INTER:                 -10.447
REMARK INTRA:                  -1.103
REMARK UNBOUND:                -0.731
REMARK  Name = 
REMARK  7 active torsions:
REMARK  status: ('A' for Active; 'I' for Inactive)
REMARK    1  A    between atoms: C_2  and  O_3
REMARK    2  A    between atoms: C_2  and  C_21
REMARK    3  A    between atoms: O_3  and  C_4
REMARK    4  A    between atoms: C_4  and  C_5
REMARK    5  A    between atoms: C_8  and  C_9
REMARK    6  A    between atoms: C_9  and  N_10
REMARK    7  A    between atoms: C_11  and  C_13
REMARK                            x       y       z     vdW  Elec       q    Type
REMARK                         _______ _______ _______ _____ _____    ______ ____
ROOT
ATOM      1  C   UNL     1      46.984   4.119  14.442  0.00  0.00    +0.000 A 
ATOM      2  C   UNL     1      47.349   5.455  14.298  0.00  0.00    +0.000 A 
ATOM      3  C   UNL     1      46.891   6.171  13.194  0.00  0.00    +0.000 A 
ATOM      4  C   UNL     1      46.076   5.541  12.252  0.00  0.00    +0.000 A 
ATOM      5  C   UNL     1      45.735   4.216  12.494  0.00  0.00    +0.000 A 
ATOM      6  N   UNL     1      46.157   3.503  13.562  0.00  0.00    +0.000 NA
ENDROOT
BRANCH   1   7
ATOM      7  C   UNL     1      47.511   3.302  15.599  0.00  0.00    +0.000 C 
BRANCH   7   8
ATOM      8  O   UNL     1      46.830   3.617  16.824  0.00  0.00    +0.000 OA
BRANCH   8  10
ATOM      9  O   UNL     1      47.981   2.861  18.654  0.00  0.00    +0.000 OA
ATOM     10  C   UNL     1      47.630   3.770  17.914  0.00  0.00    +0.000 C 
BRANCH  10  11
ATOM     11  C   UNL     1      47.948   5.168  18.196  0.00  0.00    +0.000 A 
ATOM     12  C   UNL     1      47.056   5.968  18.893  0.00  0.00    +0.000 A 
ATOM     13  S   UNL     1      47.583   7.582  19.057  0.00  0.00    +0.000 S 
ATOM     14  C   UNL     1      49.059   7.237  18.282  0.00  0.00    +0.000 A 
ATOM     15  N   UNL     1      50.014   8.195  18.139  0.00  0.00    +0.000 NA
ATOM     16  C   UNL     1      51.111   7.777  17.600  0.00  0.00    +0.000 A 
ATOM     17  N   UNL     1      51.330   6.493  17.172  0.00  0.00    +0.000 N 
ATOM     18  C   UNL     1      50.389   5.492  17.277  0.00  0.00    +0.000 A 
ATOM     19  O   UNL     1      50.646   4.352  16.911  0.00  0.00    +0.000 OA
ATOM     20  C   UNL     1      49.138   5.915  17.882  0.00  0.00    +0.000 A 
ATOM     21  H   UNL     1      52.220   6.223  16.786  0.00  0.00    +0.000 HD
ENDBRANCH  10  11
ENDBRANCH   8  10
ENDBRANCH   7   8
ENDBRANCH   1   7
BRANCH   4  22
ATOM     22  C   UNL     1      45.562   6.260  11.044  0.00  0.00    +0.000 C 
BRANCH  22  23
ATOM     23  N   UNL     1      44.874   5.361  10.146  0.00  0.00    +0.000 N 
ATOM     24  C   UNL     1      45.471   4.965   8.969  0.00  0.00    +0.000 C 
ATOM     25  O   UNL     1      46.527   5.467   8.581  0.00  0.00    +0.000 OA
ATOM     26  H   UNL     1      44.140   4.781  10.524  0.00  0.00    +0.000 HD
BRANCH  24  27
ATOM     27  C   UNL     1      44.687   3.924   8.128  0.00  0.00    +0.000 C 
ATOM     28  C   UNL     1      45.537   3.378   6.973  0.00  0.00    +0.000 C 
ATOM     29  C   UNL     1      46.639   2.449   7.482  0.00  0.00    +0.000 C 
ATOM     30  C   UNL     1      46.048   1.343   8.348  0.00  0.00    +0.000 C 
ATOM     31  C   UNL     1      45.146   1.899   9.448  0.00  0.00    +0.000 C 
ATOM     32  N   UNL     1      44.132   2.804   8.919  0.00  0.00    +0.000 NA
ATOM     33  H   UNL     1      43.477   3.123   9.627  0.00  0.00    +0.000 HD
ENDBRANCH  24  27
ENDBRANCH  22  23
ENDBRANCH   4  22
TORSDOF 7
ENDMDL
MODEL 3
REMARK VINA RESULT:    -7.273      2.052      2.719
REMARK INTER + INTRA:         -10.979
REMARK INTER:                 -10.780
REMARK INTRA:                  -0.199
REMARK UNBOUND:                -0.731
REMARK  Name = 
REMARK  7 active torsions:
REMARK  status: ('A' for Active; 'I' for Inactive)
REMARK    1  A    between atoms: C_2  and  O_3
REMARK    2  A    between atoms: C_2  and  C_21
REMARK    3  A    between atoms: O_3  and  C_4
REMARK    4  A    between atoms: C_4  and  C_5
REMARK    5  A    between atoms: C_8  and  C_9
REMARK    6  A    between atoms: C_9  and  N_10
REMARK    7  A    between atoms: C_11  and  C_13
REMARK                            x       y       z     vdW  Elec       q    Type
REMARK                         _______ _______ _______ _____ _____    ______ ____
ROOT
ATOM      1  C   UNL     1      48.627   6.795  14.821  0.00  0.00    +0.000 A 
ATOM      2  C   UNL     1      48.803   7.913  14.009  0.00  0.00    +0.000 A 
ATOM      3  C   UNL     1      48.272   7.909  12.722  0.00  0.00    +0.000 A 
ATOM      4  C   UNL     1      47.573   6.791  12.267  0.00  0.00    +0.000 A 
ATOM      5  C   UNL     1      47.417   5.735  13.156  0.00  0.00    +0.000 A 
ATOM      6  N   UNL     1      47.913   5.717  14.414  0.00  0.00    +0.000 NA
ENDROOT
BRANCH   1   7
ATOM      7  C   UNL     1      49.242   6.748  16.201  0.00  0.00    +0.000 C 
BRANCH   7   8
ATOM      8  O   UNL     1      50.059   5.578  16.377  0.00  0.00    +0.000 OA
BRANCH   8  10
ATOM      9  O   UNL     1      48.722   4.787  18.060  0.00  0.00    +0.000 OA
ATOM     10  C   UNL     1      49.809   4.857  17.503  0.00  0.00    +0.000 C 
BRANCH  10  11
ATOM     11  C   UNL     1      51.012   4.249  18.069  0.00  0.00    +0.000 A 
ATOM     12  C   UNL     1      51.790   4.943  18.983  0.00  0.00    +0.000 A 
ATOM     13  S   UNL     1      53.184   4.088  19.469  0.00  0.00    +0.000 S 
ATOM     14  C   UNL     1      52.739   2.729  18.545  0.00  0.00    +0.000 A 
ATOM     15  N   UNL     1      53.493   1.596  18.560  0.00  0.00    +0.000 NA
ATOM     16  C   UNL     1      53.000   0.620  17.873  0.00  0.00    +0.000 A 
ATOM     17  N   UNL     1      51.833   0.681  17.156  0.00  0.00    +0.000 N 
ATOM     18  C   UNL     1      51.044   1.808  17.095  0.00  0.00    +0.000 A 
ATOM     19  O   UNL     1      49.992   1.801  16.468  0.00  0.00    +0.000 OA
ATOM     20  C   UNL     1      51.557   2.934  17.856  0.00  0.00    +0.000 A 
ATOM     21  H   UNL     1      51.487  -0.127  16.664  0.00  0.00    +0.000 HD
ENDBRANCH  10  11
ENDBRANCH   8  10
ENDBRANCH   7   8
ENDBRANCH   1   7
BRANCH   4  22
ATOM     22  C   UNL     1      46.987   6.730  10.890  0.00  0.00    +0.000 C 
BRANCH  22  23
ATOM     23  N   UNL     1      45.711   6.051  10.888  0.00  0.00    +0.000 N 
ATOM     24  C   UNL     1      45.355   5.248   9.825  0.00  0.00    +0.000 C 
ATOM     25  O   UNL     1      46.034   5.200   8.798  0.00  0.00    +0.000 OA
ATOM     26  H   UNL     1      45.252   5.897  11.772  0.00  0.00    +0.000 HD
BRANCH  24  27
ATOM     27  C   UNL     1      44.009   4.492   9.969  0.00  0.00    +0.000 C 
ATOM     28  C   UNL     1      44.200   3.132  10.655  0.00  0.00    +0.000 C 
ATOM     29  C   UNL     1      44.510   3.295  12.142  0.00  0.00    +0.000 C 
ATOM     30  C   UNL     1      43.444   4.148  12.820  0.00  0.00    +0.000 C 
ATOM     31  C   UNL     1      43.214   5.466  12.084  0.00  0.00    +0.000 C 
ATOM     32  N   UNL     1      42.955   5.263  10.663  0.00  0.00    +0.000 NA
ATOM     33  H   UNL     1      42.726   6.123  10.175  0.00  0.00    +0.000 HD
ENDBRANCH  24  27
ENDBRANCH  22  23
ENDBRANCH   4  22
TORSDOF 7
ENDMDL
MODEL 4
REMARK VINA RESULT:    -7.056      3.478      8.620
REMARK INTER + INTRA:         -10.674
REMARK INTER:                  -9.283
REMARK INTRA:                  -1.392
REMARK UNBOUND:                -0.731
REMARK  Name = 
REMARK  7 active torsions:
REMARK  status: ('A' for Active; 'I' for Inactive)
REMARK    1  A    between atoms: C_2  and  O_3
REMARK    2  A    between atoms: C_2  and  C_21
REMARK    3  A    between atoms: O_3  and  C_4
REMARK    4  A    between atoms: C_4  and  C_5
REMARK    5  A    between atoms: C_8  and  C_9
REMARK    6  A    between atoms: C_9  and  N_10
REMARK    7  A    between atoms: C_11  and  C_13
REMARK                            x       y       z     vdW  Elec       q    Type
REMARK                         _______ _______ _______ _____ _____    ______ ____
ROOT
ATOM      1  C   UNL     1      48.665   8.781  13.677  0.00  0.00    +0.000 A 
ATOM      2  C   UNL     1      48.193   9.161  14.930  0.00  0.00    +0.000 A 
ATOM      3  C   UNL     1      48.896   8.772  16.068  0.00  0.00    +0.000 A 
ATOM      4  C   UNL     1      50.058   8.012  15.936  0.00  0.00    +0.000 A 
ATOM      5  C   UNL     1      50.473   7.707  14.646  0.00  0.00    +0.000 A 
ATOM      6  N   UNL     1      49.816   8.080  13.525  0.00  0.00    +0.000 NA
ENDROOT
BRANCH   1   7
ATOM      7  C   UNL     1      47.892   9.138  12.428  0.00  0.00    +0.000 C 
BRANCH   7   8
ATOM      8  O   UNL     1      47.212   7.997  11.880  0.00  0.00    +0.000 OA
BRANCH   8  10
ATOM      9  O   UNL     1      45.221   8.435  12.923  0.00  0.00    +0.000 OA
ATOM     10  C   UNL     1      46.060   7.645  12.513  0.00  0.00    +0.000 C 
BRANCH  10  11
ATOM     11  C   UNL     1      45.965   6.209  12.769  0.00  0.00    +0.000 A 
ATOM     12  C   UNL     1      46.931   5.562  13.524  0.00  0.00    +0.000 A 
ATOM     13  S   UNL     1      46.675   3.880  13.647  0.00  0.00    +0.000 S 
ATOM     14  C   UNL     1      45.218   3.981  12.772  0.00  0.00    +0.000 A 
ATOM     15  N   UNL     1      44.451   2.878  12.562  0.00  0.00    +0.000 NA
ATOM     16  C   UNL     1      43.338   3.112  11.949  0.00  0.00    +0.000 A 
ATOM     17  N   UNL     1      42.934   4.347  11.510  0.00  0.00    +0.000 N 
ATOM     18  C   UNL     1      43.682   5.491  11.683  0.00  0.00    +0.000 A 
ATOM     19  O   UNL     1      43.262   6.576  11.303  0.00  0.00    +0.000 OA
ATOM     20  C   UNL     1      44.943   5.277  12.372  0.00  0.00    +0.000 A 
ATOM     21  H   UNL     1      42.039   4.469  11.064  0.00  0.00    +0.000 HD
ENDBRANCH  10  11
ENDBRANCH   8  10
ENDBRANCH   7   8
ENDBRANCH   1   7
BRANCH   4  22
ATOM     22  C   UNL     1      50.849   7.561  17.125  0.00  0.00    +0.000 C 
BRANCH  22  23
ATOM     23  N   UNL     1      50.114   6.599  17.915  0.00  0.00    +0.000 N 
ATOM     24  C   UNL     1      50.394   5.253  17.805  0.00  0.00    +0.000 C 
ATOM     25  O   UNL     1      51.162   4.823  16.943  0.00  0.00    +0.000 OA
ATOM     26  H   UNL     1      49.658   6.921  18.755  0.00  0.00    +0.000 HD
BRANCH  24  27
ATOM     27  C   UNL     1      49.615   4.319  18.766  0.00  0.00    +0.000 C 
ATOM     28  C   UNL     1      48.215   4.871  19.074  0.00  0.00    +0.000 C 
ATOM     29  C   UNL     1      47.289   4.748  17.864  0.00  0.00    +0.000 C 
ATOM     30  C   UNL     1      47.254   3.310  17.361  0.00  0.00    +0.000 C 
ATOM     31  C   UNL     1      48.657   2.751  17.130  0.00  0.00    +0.000 C 
ATOM     32  N   UNL     1      49.513   2.920  18.298  0.00  0.00    +0.000 NA
ATOM     33  H   UNL     1      50.425   2.487  18.187  0.00  0.00    +0.000 HD
ENDBRANCH  24  27
ENDBRANCH  22  23
ENDBRANCH   4  22
TORSDOF 7
ENDMDL
MODEL 5
REMARK VINA RESULT:    -6.881      2.980      3.988
REMARK INTER + INTRA:         -10.428
REMARK INTER:                  -9.348
REMARK INTRA:                  -1.080
REMARK UNBOUND:                -0.731
REMARK  Name = 
REMARK  7 active torsions:
REMARK  status: ('A' for Active; 'I' for Inactive)
REMARK    1  A    between atoms: C_2  and  O_3
REMARK    2  A    between atoms: C_2  and  C_21
REMARK    3  A    between atoms: O_3  and  C_4
REMARK    4  A    between atoms: C_4  and  C_5
REMARK    5  A    between atoms: C_8  and  C_9
REMARK    6  A    between atoms: C_9  and  N_10
REMARK    7  A    between atoms: C_11  and  C_13
REMARK                            x       y       z     vdW  Elec       q    Type
REMARK                         _______ _______ _______ _____ _____    ______ ____
ROOT
ATOM      1  C   UNL     1      49.175   7.601  15.985  0.00  0.00    +0.000 A 
ATOM      2  C   UNL     1      48.503   8.780  15.675  0.00  0.00    +0.000 A 
ATOM      3  C   UNL     1      47.920   8.921  14.418  0.00  0.00    +0.000 A 
ATOM      4  C   UNL     1      48.016   7.882  13.492  0.00  0.00    +0.000 A 
ATOM      5  C   UNL     1      48.676   6.728  13.899  0.00  0.00    +0.000 A 
ATOM      6  N   UNL     1      49.241   6.563  15.116  0.00  0.00    +0.000 NA
ENDROOT
BRANCH   1   7
ATOM      7  C   UNL     1      49.866   7.443  17.319  0.00  0.00    +0.000 C 
BRANCH   7   8
ATOM      8  O   UNL     1      48.921   7.360  18.400  0.00  0.00    +0.000 OA
BRANCH   8  10
ATOM      9  O   UNL     1      49.295   6.188  20.332  0.00  0.00    +0.000 OA
ATOM     10  C   UNL     1      48.989   6.226  19.147  0.00  0.00    +0.000 C 
BRANCH  10  11
ATOM     11  C   UNL     1      48.769   5.012  18.364  0.00  0.00    +0.000 A 
ATOM     12  C   UNL     1      47.532   4.755  17.794  0.00  0.00    +0.000 A 
ATOM     13  S   UNL     1      47.462   3.257  16.981  0.00  0.00    +0.000 S 
ATOM     14  C   UNL     1      49.108   2.951  17.287  0.00  0.00    +0.000 A 
ATOM     15  N   UNL     1      49.713   1.832  16.805  0.00  0.00    +0.000 NA
ATOM     16  C   UNL     1      50.980   1.764  17.049  0.00  0.00    +0.000 A 
ATOM     17  N   UNL     1      51.691   2.704  17.750  0.00  0.00    +0.000 N 
ATOM     18  C   UNL     1      51.122   3.844  18.273  0.00  0.00    +0.000 A 
ATOM     19  O   UNL     1      51.807   4.671  18.862  0.00  0.00    +0.000 OA
ATOM     20  C   UNL     1      49.697   3.966  18.020  0.00  0.00    +0.000 A 
ATOM     21  H   UNL     1      52.685   2.607  17.881  0.00  0.00    +0.000 HD
ENDBRANCH  10  11
ENDBRANCH   8  10
ENDBRANCH   7   8
ENDBRANCH   1   7
BRANCH   4  22
ATOM     22  C   UNL     1      47.414   7.982  12.124  0.00  0.00    +0.000 C 
BRANCH  22  23
ATOM     23  N   UNL     1      46.761   6.751  11.743  0.00  0.00    +0.000 N 
ATOM     24  C   UNL     1      45.454   6.767  11.303  0.00  0.00    +0.000 C 
ATOM     25  O   UNL     1      44.768   7.789  11.358  0.00  0.00    +0.000 OA
ATOM     26  H   UNL     1      47.338   5.965  11.483  0.00  0.00    +0.000 HD
BRANCH  24  27
ATOM     27  C   UNL     1      44.883   5.405  10.829  0.00  0.00    +0.000 C 
ATOM     28  C   UNL     1      45.280   4.267  11.780  0.00  0.00    +0.000 C 
ATOM     29  C   UNL     1      44.528   4.360  13.106  0.00  0.00    +0.000 C 
ATOM     30  C   UNL     1      43.024   4.424  12.865  0.00  0.00    +0.000 C 
ATOM     31  C   UNL     1      42.652   5.512  11.861  0.00  0.00    +0.000 C 
ATOM     32  N   UNL     1      43.418   5.403  10.625  0.00  0.00    +0.000 NA
ATOM     33  H   UNL     1      43.130   6.074   9.919  0.00  0.00    +0.000 HD
ENDBRANCH  24  27
ENDBRANCH  22  23
ENDBRANCH   4  22
TORSDOF 7
ENDMDL
MODEL 6
REMARK VINA RESULT:    -6.864      5.758      7.491
REMARK INTER + INTRA:         -10.403
REMARK INTER:                  -9.538
REMARK INTRA:                  -0.866
REMARK UNBOUND:                -0.731
REMARK  Name = 
REMARK  7 active torsions:
REMARK  status: ('A' for Active; 'I' for Inactive)
REMARK    1  A    between atoms: C_2  and  O_3
REMARK    2  A    between atoms: C_2  and  C_21
REMARK    3  A    between atoms: O_3  and  C_4
REMARK    4  A    between atoms: C_4  and  C_5
REMARK    5  A    between atoms: C_8  and  C_9
REMARK    6  A    between atoms: C_9  and  N_10
REMARK    7  A    between atoms: C_11  and  C_13
REMARK                            x       y       z     vdW  Elec       q    Type
REMARK                         _______ _______ _______ _____ _____    ______ ____
ROOT
ATOM      1  C   UNL     1      49.432   7.724  12.262  0.00  0.00    +0.000 A 
ATOM      2  C   UNL     1      48.365   7.503  11.395  0.00  0.00    +0.000 A 
ATOM      3  C   UNL     1      47.288   6.732  11.825  0.00  0.00    +0.000 A 
ATOM      4  C   UNL     1      47.293   6.194  13.112  0.00  0.00    +0.000 A 
ATOM      5  C   UNL     1      48.383   6.494  13.920  0.00  0.00    +0.000 A 
ATOM      6  N   UNL     1      49.435   7.248  13.532  0.00  0.00    +0.000 NA
ENDROOT
BRANCH   1   7
ATOM      7  C   UNL     1      50.640   8.508  11.804  0.00  0.00    +0.000 C 
BRANCH   7   8
ATOM      8  O   UNL     1      51.544   7.692  11.041  0.00  0.00    +0.000 OA
BRANCH   8  10
ATOM      9  O   UNL     1      53.325   9.125  11.166  0.00  0.00    +0.000 OA
ATOM     10  C   UNL     1      52.630   8.338  10.538  0.00  0.00    +0.000 C 
BRANCH  10  11
ATOM     11  C   UNL     1      52.831   8.091   9.112  0.00  0.00    +0.000 A 
ATOM     12  C   UNL     1      52.690   9.118   8.192  0.00  0.00    +0.000 A 
ATOM     13  S   UNL     1      52.897   8.610   6.577  0.00  0.00    +0.000 S 
ATOM     14  C   UNL     1      53.273   7.024   7.066  0.00  0.00    +0.000 A 
ATOM     15  N   UNL     1      53.613   6.073   6.154  0.00  0.00    +0.000 NA
ATOM     16  C   UNL     1      53.945   4.936   6.669  0.00  0.00    +0.000 A 
ATOM     17  N   UNL     1      53.948   4.659   8.012  0.00  0.00    +0.000 N 
ATOM     18  C   UNL     1      53.597   5.581   8.973  0.00  0.00    +0.000 A 
ATOM     19  O   UNL     1      53.649   5.295  10.163  0.00  0.00    +0.000 OA
ATOM     20  C   UNL     1      53.218   6.878   8.441  0.00  0.00    +0.000 A 
ATOM     21  H   UNL     1      54.247   3.759   8.353  0.00  0.00    +0.000 HD
ENDBRANCH  10  11
ENDBRANCH   8  10
ENDBRANCH   7   8
ENDBRANCH   1   7
BRANCH   4  22
ATOM     22  C   UNL     1      46.165   5.352  13.623  0.00  0.00    +0.000 C 
BRANCH  22  23
ATOM     23  N   UNL     1      45.201   5.072  12.583  0.00  0.00    +0.000 N 
ATOM     24  C   UNL     1      44.952   3.770  12.201  0.00  0.00    +0.000 C 
ATOM     25  O   UNL     1      45.633   2.834  12.623  0.00  0.00    +0.000 OA
ATOM     26  H   UNL     1      44.497   5.766  12.386  0.00  0.00    +0.000 HD
BRANCH  24  27
ATOM     27  C   UNL     1      43.833   3.577  11.146  0.00  0.00    +0.000 C 
ATOM     28  C   UNL     1      43.808   4.732  10.135  0.00  0.00    +0.000 C 
ATOM     29  C   UNL     1      45.004   4.668   9.186  0.00  0.00    +0.000 C 
ATOM     30  C   UNL     1      45.081   3.303   8.514  0.00  0.00    +0.000 C 
ATOM     31  C   UNL     1      45.030   2.162   9.528  0.00  0.00    +0.000 C 
ATOM     32  N   UNL     1      43.892   2.284  10.432  0.00  0.00    +0.000 NA
ATOM     33  H   UNL     1      43.802   1.494  11.064  0.00  0.00    +0.000 HD
ENDBRANCH  24  27
ENDBRANCH  22  23
ENDBRANCH   4  22
TORSDOF 7
ENDMDL
MODEL 7
REMARK VINA RESULT:    -6.825      2.871      4.152
REMARK INTER + INTRA:         -10.348
REMARK INTER:                  -9.093
REMARK INTRA:                  -1.255
REMARK UNBOUND:                -0.731
REMARK  Name = 
REMARK  7 active torsions:
REMARK  status: ('A' for Active; 'I' for Inactive)
REMARK    1  A    between atoms: C_2  and  O_3
REMARK    2  A    between atoms: C_2  and  C_21
REMARK    3  A    between atoms: O_3  and  C_4
REMARK    4  A    between atoms: C_4  and  C_5
REMARK    5  A    between atoms: C_8  and  C_9
REMARK    6  A    between atoms: C_9  and  N_10
REMARK    7  A    between atoms: C_11  and  C_13
REMARK                            x       y       z     vdW  Elec       q    Type
REMARK                         _______ _______ _______ _____ _____    ______ ____
ROOT
ATOM      1  C   UNL     1      48.971   8.025  16.076  0.00  0.00    +0.000 A 
ATOM      2  C   UNL     1      48.835   6.817  15.396  0.00  0.00    +0.000 A 
ATOM      3  C   UNL     1      48.338   6.822  14.095  0.00  0.00    +0.000 A 
ATOM      4  C   UNL     1      47.986   8.031  13.494  0.00  0.00    +0.000 A 
ATOM      5  C   UNL     1      48.187   9.189  14.235  0.00  0.00    +0.000 A 
ATOM      6  N   UNL     1      48.678   9.213  15.494  0.00  0.00    +0.000 NA
ENDROOT
BRANCH   1   7
ATOM      7  C   UNL     1      49.454   8.046  17.508  0.00  0.00    +0.000 C 
BRANCH   7   8
ATOM      8  O   UNL     1      48.513   7.415  18.394  0.00  0.00    +0.000 OA
BRANCH   8  10
ATOM      9  O   UNL     1      49.093   6.769  20.513  0.00  0.00    +0.000 OA
ATOM     10  C   UNL     1      49.053   6.564  19.307  0.00  0.00    +0.000 C 
BRANCH  10  11
ATOM     11  C   UNL     1      49.699   5.405  18.695  0.00  0.00    +0.000 A 
ATOM     12  C   UNL     1      51.058   5.187  18.859  0.00  0.00    +0.000 A 
ATOM     13  S   UNL     1      51.630   3.823  18.009  0.00  0.00    +0.000 S 
ATOM     14  C   UNL     1      50.063   3.431  17.473  0.00  0.00    +0.000 A 
ATOM     15  N   UNL     1      49.838   2.316  16.727  0.00  0.00    +0.000 NA
ATOM     16  C   UNL     1      48.594   2.101  16.453  0.00  0.00    +0.000 A 
ATOM     17  N   UNL     1      47.558   2.913  16.840  0.00  0.00    +0.000 N 
ATOM     18  C   UNL     1      47.735   4.060  17.580  0.00  0.00    +0.000 A 
ATOM     19  O   UNL     1      46.774   4.733  17.930  0.00  0.00    +0.000 OA
ATOM     20  C   UNL     1      49.120   4.342  17.916  0.00  0.00    +0.000 A 
ATOM     21  H   UNL     1      46.605   2.673  16.618  0.00  0.00    +0.000 HD
ENDBRANCH  10  11
ENDBRANCH   8  10
ENDBRANCH   7   8
ENDBRANCH   1   7
BRANCH   4  22
ATOM     22  C   UNL     1      47.440   8.093  12.101  0.00  0.00    +0.000 C 
BRANCH  22  23
ATOM     23  N   UNL     1      46.791   6.856  11.732  0.00  0.00    +0.000 N 
ATOM     24  C   UNL     1      45.482   6.862  11.298  0.00  0.00    +0.000 C 
ATOM     25  O   UNL     1      44.792   7.881  11.348  0.00  0.00    +0.000 OA
ATOM     26  H   UNL     1      47.371   6.071  11.476  0.00  0.00    +0.000 HD
BRANCH  24  27
ATOM     27  C   UNL     1      44.916   5.494  10.837  0.00  0.00    +0.000 C 
ATOM     28  C   UNL     1      45.274   4.375  11.825  0.00  0.00    +0.000 C 
ATOM     29  C   UNL     1      44.481   4.504  13.125  0.00  0.00    +0.000 C 
ATOM     30  C   UNL     1      42.986   4.572  12.835  0.00  0.00    +0.000 C 
ATOM     31  C   UNL     1      42.654   5.641  11.795  0.00  0.00    +0.000 C 
ATOM     32  N   UNL     1      43.458   5.498  10.587  0.00  0.00    +0.000 NA
ATOM     33  H   UNL     1      43.197   6.154   9.857  0.00  0.00    +0.000 HD
ENDBRANCH  24  27
ENDBRANCH  22  23
ENDBRANCH   4  22
TORSDOF 7
ENDMDL
MODEL 8
REMARK VINA RESULT:    -6.670      3.223      9.156
REMARK INTER + INTRA:         -10.130
REMARK INTER:                  -9.579
REMARK INTRA:                  -0.551
REMARK UNBOUND:                -0.731
REMARK  Name = 
REMARK  7 active torsions:
REMARK  status: ('A' for Active; 'I' for Inactive)
REMARK    1  A    between atoms: C_2  and  O_3
REMARK    2  A    between atoms: C_2  and  C_21
REMARK    3  A    between atoms: O_3  and  C_4
REMARK    4  A    between atoms: C_4  and  C_5
REMARK    5  A    between atoms: C_8  and  C_9
REMARK    6  A    between atoms: C_9  and  N_10
REMARK    7  A    between atoms: C_11  and  C_13
REMARK                            x       y       z     vdW  Elec       q    Type
REMARK                         _______ _______ _______ _____ _____    ______ ____
ROOT
ATOM      1  C   UNL     1      48.246   7.698  13.767  0.00  0.00    +0.000 A 
ATOM      2  C   UNL     1      47.857   8.750  14.592  0.00  0.00    +0.000 A 
ATOM      3  C   UNL     1      48.391   8.841  15.875  0.00  0.00    +0.000 A 
ATOM      4  C   UNL     1      49.304   7.882  16.313  0.00  0.00    +0.000 A 
ATOM      5  C   UNL     1      49.660   6.887  15.411  0.00  0.00    +0.000 A 
ATOM      6  N   UNL     1      49.165   6.781  14.157  0.00  0.00    +0.000 NA
ENDROOT
BRANCH   1   7
ATOM      7  C   UNL     1      47.640   7.541  12.391  0.00  0.00    +0.000 C 
BRANCH   7   8
ATOM      8  O   UNL     1      46.910   6.308  12.271  0.00  0.00    +0.000 OA
BRANCH   8  10
ATOM      9  O   UNL     1      45.065   7.483  11.590  0.00  0.00    +0.000 OA
ATOM     10  C   UNL     1      45.651   6.423  11.768  0.00  0.00    +0.000 C 
BRANCH  10  11
ATOM     11  C   UNL     1      45.000   5.132  11.561  0.00  0.00    +0.000 A 
ATOM     12  C   UNL     1      44.225   4.564  12.561  0.00  0.00    +0.000 A 
ATOM     13  S   UNL     1      43.612   3.026  12.148  0.00  0.00    +0.000 S 
ATOM     14  C   UNL     1      44.285   3.116  10.587  0.00  0.00    +0.000 A 
ATOM     15  N   UNL     1      44.083   2.122   9.681  0.00  0.00    +0.000 NA
ATOM     16  C   UNL     1      44.588   2.354   8.515  0.00  0.00    +0.000 A 
ATOM     17  N   UNL     1      45.295   3.481   8.181  0.00  0.00    +0.000 N 
ATOM     18  C   UNL     1      45.542   4.506   9.067  0.00  0.00    +0.000 A 
ATOM     19  O   UNL     1      46.149   5.508   8.710  0.00  0.00    +0.000 OA
ATOM     20  C   UNL     1      44.989   4.291  10.392  0.00  0.00    +0.000 A 
ATOM     21  H   UNL     1      45.638   3.615   7.243  0.00  0.00    +0.000 HD
ENDBRANCH  10  11
ENDBRANCH   8  10
ENDBRANCH   7   8
ENDBRANCH   1   7
BRANCH   4  22
ATOM     22  C   UNL     1      49.903   7.928  17.685  0.00  0.00    +0.000 C 
BRANCH  22  23
ATOM     23  N   UNL     1      50.005   6.606  18.261  0.00  0.00    +0.000 N 
ATOM     24  C   UNL     1      48.887   5.989  18.781  0.00  0.00    +0.000 C 
ATOM     25  O   UNL     1      47.817   6.587  18.901  0.00  0.00    +0.000 OA
ATOM     26  H   UNL     1      50.783   6.025  17.987  0.00  0.00    +0.000 HD
BRANCH  24  27
ATOM     27  C   UNL     1      49.090   4.537  19.286  0.00  0.00    +0.000 C 
ATOM     28  C   UNL     1      48.136   3.559  18.584  0.00  0.00    +0.000 C 
ATOM     29  C   UNL     1      48.541   3.334  17.128  0.00  0.00    +0.000 C 
ATOM     30  C   UNL     1      49.999   2.896  17.040  0.00  0.00    +0.000 C 
ATOM     31  C   UNL     1      50.926   3.838  17.805  0.00  0.00    +0.000 C 
ATOM     32  N   UNL     1      50.481   4.049  19.178  0.00  0.00    +0.000 NA
ATOM     33  H   UNL     1      51.128   4.612  19.722  0.00  0.00    +0.000 HD
ENDBRANCH  24  27
ENDBRANCH  22  23
ENDBRANCH   4  22
TORSDOF 7
ENDMDL
MODEL 9
REMARK VINA RESULT:    -6.445      3.689      4.853
REMARK INTER + INTRA:          -9.814
REMARK INTER:                  -8.362
REMARK INTRA:                  -1.452
REMARK UNBOUND:                -0.731
REMARK  Name = 
REMARK  7 active torsions:
REMARK  status: ('A' for Active; 'I' for Inactive)
REMARK    1  A    between atoms: C_2  and  O_3
REMARK    2  A    between atoms: C_2  and  C_21
REMARK    3  A    between atoms: O_3  and  C_4
REMARK    4  A    between atoms: C_4  and  C_5
REMARK    5  A    between atoms: C_8  and  C_9
REMARK    6  A    between atoms: C_9  and  N_10
REMARK    7  A    between atoms: C_11  and  C_13
REMARK                            x       y       z     vdW  Elec       q    Type
REMARK                         _______ _______ _______ _____ _____    ______ ____
ROOT
ATOM      1  C   UNL     1      49.135   9.506  13.926  0.00  0.00    +0.000 A 
ATOM      2  C   UNL     1      49.147   9.528  12.534  0.00  0.00    +0.000 A 
ATOM      3  C   UNL     1      47.970   9.260  11.839  0.00  0.00    +0.000 A 
ATOM      4  C   UNL     1      46.801   8.974  12.545  0.00  0.00    +0.000 A 
ATOM      5  C   UNL     1      46.873   9.006  13.932  0.00  0.00    +0.000 A 
ATOM      6  N   UNL     1      48.000   9.275  14.630  0.00  0.00    +0.000 NA
ENDROOT
BRANCH   1   7
ATOM      7  C   UNL     1      50.408   9.737  14.706  0.00  0.00    +0.000 C 
BRANCH   7   8
ATOM      8  O   UNL     1      50.355   9.120  16.003  0.00  0.00    +0.000 OA
BRANCH   8  10
ATOM      9  O   UNL     1      51.561   7.299  15.318  0.00  0.00    +0.000 OA
ATOM     10  C   UNL     1      50.718   7.810  16.042  0.00  0.00    +0.000 C 
BRANCH  10  11
ATOM     11  C   UNL     1      49.911   7.021  16.970  0.00  0.00    +0.000 A 
ATOM     12  C   UNL     1      50.045   7.188  18.340  0.00  0.00    +0.000 A 
ATOM     13  S   UNL     1      49.067   6.126  19.248  0.00  0.00    +0.000 S 
ATOM     14  C   UNL     1      48.366   5.478  17.839  0.00  0.00    +0.000 A 
ATOM     15  N   UNL     1      47.387   4.536  17.914  0.00  0.00    +0.000 NA
ATOM     16  C   UNL     1      46.895   4.188  16.772  0.00  0.00    +0.000 A 
ATOM     17  N   UNL     1      47.308   4.680  15.561  0.00  0.00    +0.000 N 
ATOM     18  C   UNL     1      48.307   5.620  15.430  0.00  0.00    +0.000 A 
ATOM     19  O   UNL     1      48.617   6.053  14.328  0.00  0.00    +0.000 OA
ATOM     20  C   UNL     1      48.889   6.046  16.691  0.00  0.00    +0.000 A 
ATOM     21  H   UNL     1      46.862   4.388  14.706  0.00  0.00    +0.000 HD
ENDBRANCH  10  11
ENDBRANCH   8  10
ENDBRANCH   7   8
ENDBRANCH   1   7
BRANCH   4  22
ATOM     22  C   UNL     1      45.510   8.671  11.848  0.00  0.00    +0.000 C 
BRANCH  22  23
ATOM     23  N   UNL     1      44.794   7.601  12.505  0.00  0.00    +0.000 N 
ATOM     24  C   UNL     1      45.276   6.310  12.454  0.00  0.00    +0.000 C 
ATOM     25  O   UNL     1      46.234   6.008  11.741  0.00  0.00    +0.000 OA
ATOM     26  H   UNL     1      44.159   7.840  13.252  0.00  0.00    +0.000 HD
BRANCH  24  27
ATOM     27  C   UNL     1      44.483   5.259  13.272  0.00  0.00    +0.000 C 
ATOM     28  C   UNL     1      43.030   5.149  12.788  0.00  0.00    +0.000 C 
ATOM     29  C   UNL     1      42.946   4.463  11.425  0.00  0.00    +0.000 C 
ATOM     30  C   UNL     1      43.654   3.114  11.461  0.00  0.00    +0.000 C 
ATOM     31  C   UNL     1      45.073   3.228  12.014  0.00  0.00    +0.000 C 
ATOM     32  N   UNL     1      45.107   3.918  13.298  0.00  0.00    +0.000 NA
ATOM     33  H   UNL     1      46.033   3.936  13.715  0.00  0.00    +0.000 HD
ENDBRANCH  24  27
ENDBRANCH  22  23
ENDBRANCH   4  22
TORSDOF 7
ENDMDL
