MODEL 1
REMARK VINA RESULT:    -8.169      0.000      0.000
REMARK INTER + INTRA:         -11.586
REMARK INTER:                 -10.796
REMARK INTRA:                  -0.790
REMARK UNBOUND:                -0.790
REMARK  Name = 
REMARK  7 active torsions:
REMARK  status: ('A' for Active; 'I' for Inactive)
REMARK    1  A    between atoms: C_1  and  C_2
REMARK    2  A    between atoms: N_6  and  C_7
REMARK    3  A    between atoms: C_7  and  C_8
REMARK    4  A    between atoms: C_8  and  C_9
REMARK    5  A    between atoms: C_13  and  C_14
REMARK    6  A    between atoms: C_14  and  C_15
REMARK    7  A    between atoms: C_17  and  O_18
REMARK                            x       y       z     vdW  Elec       q    Type
REMARK                         _______ _______ _______ _____ _____    ______ ____
ROOT
ATOM      1  C   UNL     1      45.251   4.501  12.158  0.00  0.00    +0.000 A 
ATOM      2  C   UNL     1      45.474   5.451  11.170  0.00  0.00    +0.000 A 
ATOM      3  C   UNL     1      46.429   6.438  11.398  0.00  0.00    +0.000 A 
ATOM      4  C   UNL     1      47.142   6.441  12.594  0.00  0.00    +0.000 A 
ATOM      5  C   UNL     1      46.886   5.447  13.530  0.00  0.00    +0.000 A 
ATOM      6  N   UNL     1      45.944   4.497  13.326  0.00  0.00    +0.000 NA
ENDROOT
BRANCH   1   7
ATOM      7  C   UNL     1      44.210   3.426  11.942  0.00  0.00    +0.000 C 
BRANCH   7   8
ATOM      8  C   UNL     1      43.894   3.237  10.461  0.00  0.00    +0.000 C 
BRANCH   8  14
ATOM      9  C   UNL     1      47.942   2.336   5.347  0.00  0.00    +0.000 C 
ATOM     10  C   UNL     1      47.050   2.342   6.546  0.00  0.00    +0.000 A 
ATOM     11  C   UNL     1      46.369   3.483   6.943  0.00  0.00    +0.000 A 
ATOM     12  C   UNL     1      45.548   3.431   8.065  0.00  0.00    +0.000 A 
ATOM     13  C   UNL     1      45.418   2.245   8.782  0.00  0.00    +0.000 A 
ATOM     14  N   UNL     1      44.610   2.119   9.885  0.00  0.00    +0.000 N 
ATOM     15  N   UNL     1      46.078   1.133   8.414  0.00  0.00    +0.000 NA
ATOM     16  C   UNL     1      46.871   1.200   7.317  0.00  0.00    +0.000 A 
ATOM     17  H   UNL     1      44.649   1.212  10.330  0.00  0.00    +0.000 HD
ENDBRANCH   8  14
ENDBRANCH   7   8
ENDBRANCH   1   7
BRANCH   5  18
ATOM     18  C   UNL     1      47.697   5.343  14.794  0.00  0.00    +0.000 C 
BRANCH  18  19
ATOM     19  C   UNL     1      47.112   4.320  15.763  0.00  0.00    +0.000 C 
ATOM     20  C   UNL     1      47.373   4.671  17.247  0.00  0.00    +0.000 C 
ATOM     21  C   UNL     1      47.848   3.231  17.503  0.00  0.00    +0.000 C 
ATOM     22  C   UNL     1      47.879   2.993  15.982  0.00  0.00    +0.000 C 
BRANCH  21  23
ATOM     23  O   UNL     1      46.964   2.396  18.274  0.00  0.00    +0.000 OA
ATOM     24  H   UNL     1      46.575   2.976  18.949  0.00  0.00    +0.000 HD
ENDBRANCH  21  23
ENDBRANCH  18  19
ENDBRANCH   5  18
TORSDOF 6
ENDMDL
MODEL 2
REMARK VINA RESULT:    -7.514      2.982      4.252
REMARK INTER + INTRA:         -10.719
REMARK INTER:                  -9.665
REMARK INTRA:                  -1.055
REMARK UNBOUND:                -0.790
REMARK  Name = 
REMARK  7 active torsions:
REMARK  status: ('A' for Active; 'I' for Inactive)
REMARK    1  A    between atoms: C_1  and  C_2
REMARK    2  A    between atoms: N_6  and  C_7
REMARK    3  A    between atoms: C_7  and  C_8
REMARK    4  A    between atoms: C_8  and  C_9
REMARK    5  A    between atoms: C_13  and  C_14
REMARK    6  A    between atoms: C_14  and  C_15
REMARK    7  A    between atoms: C_17  and  O_18
REMARK                            x       y       z     vdW  Elec       q    Type
REMARK                         _______ _______ _______ _____ _____    ______ ____
ROOT
ATOM      1  C   UNL     1      44.802   5.388  12.685  0.00  0.00    +0.000 A 
ATOM      2  C   UNL     1      45.421   4.489  13.545  0.00  0.00    +0.000 A 
ATOM      3  C   UNL     1      46.783   4.633  13.790  0.00  0.00    +0.000 A 
ATOM      4  C   UNL     1      47.484   5.673  13.186  0.00  0.00    +0.000 A 
ATOM      5  C   UNL     1      46.799   6.552  12.357  0.00  0.00    +0.000 A 
ATOM      6  N   UNL     1      45.479   6.406  12.095  0.00  0.00    +0.000 NA
ENDROOT
BRANCH   1   7
ATOM      7  C   UNL     1      43.326   5.246  12.390  0.00  0.00    +0.000 C 
BRANCH   7   8
ATOM      8  C   UNL     1      43.082   4.518  11.071  0.00  0.00    +0.000 C 
BRANCH   8  14
ATOM      9  C   UNL     1      47.199   1.505   6.908  0.00  0.00    +0.000 C 
ATOM     10  C   UNL     1      46.326   2.363   7.765  0.00  0.00    +0.000 A 
ATOM     11  C   UNL     1      45.539   1.825   8.774  0.00  0.00    +0.000 A 
ATOM     12  C   UNL     1      44.747   2.671   9.544  0.00  0.00    +0.000 A 
ATOM     13  C   UNL     1      44.745   4.041   9.300  0.00  0.00    +0.000 A 
ATOM     14  N   UNL     1      44.004   4.933  10.036  0.00  0.00    +0.000 N 
ATOM     15  N   UNL     1      45.496   4.575   8.322  0.00  0.00    +0.000 NA
ATOM     16  C   UNL     1      46.264   3.738   7.582  0.00  0.00    +0.000 A 
ATOM     17  H   UNL     1      44.066   5.891   9.716  0.00  0.00    +0.000 HD
ENDBRANCH   8  14
ENDBRANCH   7   8
ENDBRANCH   1   7
BRANCH   5  18
ATOM     18  C   UNL     1      47.484   7.752  11.759  0.00  0.00    +0.000 C 
BRANCH  18  19
ATOM     19  C   UNL     1      48.893   7.938  12.314  0.00  0.00    +0.000 C 
ATOM     20  C   UNL     1      49.365   9.410  12.293  0.00  0.00    +0.000 C 
ATOM     21  C   UNL     1      50.696   8.973  11.659  0.00  0.00    +0.000 C 
ATOM     22  C   UNL     1      50.094   7.579  11.404  0.00  0.00    +0.000 C 
BRANCH  21  23
ATOM     23  O   UNL     1      51.857   9.035  12.509  0.00  0.00    +0.000 OA
ATOM     24  H   UNL     1      52.339   9.834  12.238  0.00  0.00    +0.000 HD
ENDBRANCH  21  23
ENDBRANCH  18  19
ENDBRANCH   5  18
TORSDOF 6
ENDMDL
MODEL 3
REMARK VINA RESULT:    -7.421      3.087      8.101
REMARK INTER + INTRA:         -10.597
REMARK INTER:                  -9.839
REMARK INTRA:                  -0.759
REMARK UNBOUND:                -0.790
REMARK  Name = 
REMARK  7 active torsions:
REMARK  status: ('A' for Active; 'I' for Inactive)
REMARK    1  A    between atoms: C_1  and  C_2
REMARK    2  A    between atoms: N_6  and  C_7
REMARK    3  A    between atoms: C_7  and  C_8
REMARK    4  A    between atoms: C_8  and  C_9
REMARK    5  A    between atoms: C_13  and  C_14
REMARK    6  A    between atoms: C_14  and  C_15
REMARK    7  A    between atoms: C_17  and  O_18
REMARK                            x       y       z     vdW  Elec       q    Type
REMARK                         _______ _______ _______ _____ _____    ______ ____
ROOT
ATOM      1  C   UNL     1      45.540   5.148  11.088  0.00  0.00    +0.000 A 
ATOM      2  C   UNL     1      44.911   4.280  11.972  0.00  0.00    +0.000 A 
ATOM      3  C   UNL     1      44.226   3.185  11.456  0.00  0.00    +0.000 A 
ATOM      4  C   UNL     1      44.200   2.976  10.080  0.00  0.00    +0.000 A 
ATOM      5  C   UNL     1      44.870   3.868   9.253  0.00  0.00    +0.000 A 
ATOM      6  N   UNL     1      45.520   4.949   9.744  0.00  0.00    +0.000 NA
ENDROOT
BRANCH   1   7
ATOM      7  C   UNL     1      46.280   6.354  11.619  0.00  0.00    +0.000 C 
BRANCH   7   8
ATOM      8  C   UNL     1      45.961   6.608  13.090  0.00  0.00    +0.000 C 
BRANCH   8  14
ATOM      9  C   UNL     1      49.189   3.266  17.756  0.00  0.00    +0.000 C 
ATOM     10  C   UNL     1      48.604   4.165  16.715  0.00  0.00    +0.000 A 
ATOM     11  C   UNL     1      47.406   3.865  16.082  0.00  0.00    +0.000 A 
ATOM     12  C   UNL     1      46.904   4.739  15.123  0.00  0.00    +0.000 A 
ATOM     13  C   UNL     1      47.602   5.900  14.803  0.00  0.00    +0.000 A 
ATOM     14  N   UNL     1      47.153   6.815  13.883  0.00  0.00    +0.000 N 
ATOM     15  N   UNL     1      48.767   6.201  15.403  0.00  0.00    +0.000 NA
ATOM     16  C   UNL     1      49.240   5.340  16.337  0.00  0.00    +0.000 A 
ATOM     17  H   UNL     1      47.786   7.589  13.720  0.00  0.00    +0.000 HD
ENDBRANCH   8  14
ENDBRANCH   7   8
ENDBRANCH   1   7
BRANCH   5  18
ATOM     18  C   UNL     1      44.960   3.635   7.768  0.00  0.00    +0.000 C 
BRANCH  18  19
ATOM     19  C   UNL     1      46.378   3.281   7.332  0.00  0.00    +0.000 C 
ATOM     20  C   UNL     1      46.516   3.104   5.802  0.00  0.00    +0.000 C 
ATOM     21  C   UNL     1      47.272   1.783   6.025  0.00  0.00    +0.000 C 
ATOM     22  C   UNL     1      46.856   1.818   7.507  0.00  0.00    +0.000 C 
BRANCH  21  23
ATOM     23  O   UNL     1      48.685   1.802   5.744  0.00  0.00    +0.000 OA
ATOM     24  H   UNL     1      48.797   2.413   4.998  0.00  0.00    +0.000 HD
ENDBRANCH  21  23
ENDBRANCH  18  19
ENDBRANCH   5  18
TORSDOF 6
ENDMDL
MODEL 4
REMARK VINA RESULT:    -7.415      3.393      4.075
REMARK INTER + INTRA:         -10.589
REMARK INTER:                  -9.833
REMARK INTRA:                  -0.756
REMARK UNBOUND:                -0.790
REMARK  Name = 
REMARK  7 active torsions:
REMARK  status: ('A' for Active; 'I' for Inactive)
REMARK    1  A    between atoms: C_1  and  C_2
REMARK    2  A    between atoms: N_6  and  C_7
REMARK    3  A    between atoms: C_7  and  C_8
REMARK    4  A    between atoms: C_8  and  C_9
REMARK    5  A    between atoms: C_13  and  C_14
REMARK    6  A    between atoms: C_14  and  C_15
REMARK    7  A    between atoms: C_17  and  O_18
REMARK                            x       y       z     vdW  Elec       q    Type
REMARK                         _______ _______ _______ _____ _____    ______ ____
ROOT
ATOM      1  C   UNL     1      45.030   5.059  11.854  0.00  0.00    +0.000 A 
ATOM      2  C   UNL     1      44.159   6.034  11.385  0.00  0.00    +0.000 A 
ATOM      3  C   UNL     1      44.584   7.359  11.379  0.00  0.00    +0.000 A 
ATOM      4  C   UNL     1      45.865   7.673  11.824  0.00  0.00    +0.000 A 
ATOM      5  C   UNL     1      46.694   6.645  12.258  0.00  0.00    +0.000 A 
ATOM      6  N   UNL     1      46.282   5.357  12.288  0.00  0.00    +0.000 NA
ENDROOT
BRANCH   1   7
ATOM      7  C   UNL     1      44.589   3.613  11.886  0.00  0.00    +0.000 C 
BRANCH   7   8
ATOM      8  C   UNL     1      43.935   3.195  10.572  0.00  0.00    +0.000 C 
BRANCH   8  14
ATOM      9  C   UNL     1      47.893   2.342   5.380  0.00  0.00    +0.000 C 
ATOM     10  C   UNL     1      47.017   2.334   6.590  0.00  0.00    +0.000 A 
ATOM     11  C   UNL     1      46.372   3.481   7.031  0.00  0.00    +0.000 A 
ATOM     12  C   UNL     1      45.565   3.418   8.162  0.00  0.00    +0.000 A 
ATOM     13  C   UNL     1      45.411   2.214   8.843  0.00  0.00    +0.000 A 
ATOM     14  N   UNL     1      44.613   2.076   9.952  0.00  0.00    +0.000 N 
ATOM     15  N   UNL     1      46.035   1.096   8.433  0.00  0.00    +0.000 NA
ATOM     16  C   UNL     1      46.815   1.175   7.328  0.00  0.00    +0.000 A 
ATOM     17  H   UNL     1      44.632   1.155  10.369  0.00  0.00    +0.000 HD
ENDBRANCH   8  14
ENDBRANCH   7   8
ENDBRANCH   1   7
BRANCH   5  18
ATOM     18  C   UNL     1      48.122   6.914  12.654  0.00  0.00    +0.000 C 
BRANCH  18  19
ATOM     19  C   UNL     1      48.761   7.992  11.785  0.00  0.00    +0.000 C 
ATOM     20  C   UNL     1      50.248   7.711  11.464  0.00  0.00    +0.000 C 
ATOM     21  C   UNL     1      50.604   9.155  11.856  0.00  0.00    +0.000 C 
ATOM     22  C   UNL     1      49.196   9.317  12.459  0.00  0.00    +0.000 C 
BRANCH  21  23
ATOM     23  O   UNL     1      50.956  10.040  10.776  0.00  0.00    +0.000 OA
ATOM     24  H   UNL     1      50.538  10.891  10.987  0.00  0.00    +0.000 HD
ENDBRANCH  21  23
ENDBRANCH  18  19
ENDBRANCH   5  18
TORSDOF 6
ENDMDL
MODEL 5
REMARK VINA RESULT:    -6.987      3.536      8.132
REMARK INTER + INTRA:         -10.023
REMARK INTER:                  -9.658
REMARK INTRA:                  -0.365
REMARK UNBOUND:                -0.790
REMARK  Name = 
REMARK  7 active torsions:
REMARK  status: ('A' for Active; 'I' for Inactive)
REMARK    1  A    between atoms: C_1  and  C_2
REMARK    2  A    between atoms: N_6  and  C_7
REMARK    3  A    between atoms: C_7  and  C_8
REMARK    4  A    between atoms: C_8  and  C_9
REMARK    5  A    between atoms: C_13  and  C_14
REMARK    6  A    between atoms: C_14  and  C_15
REMARK    7  A    between atoms: C_17  and  O_18
REMARK                            x       y       z     vdW  Elec       q    Type
REMARK                         _______ _______ _______ _____ _____    ______ ____
ROOT
ATOM      1  C   UNL     1      45.603   5.322  11.027  0.00  0.00    +0.000 A 
ATOM      2  C   UNL     1      44.938   4.535  11.959  0.00  0.00    +0.000 A 
ATOM      3  C   UNL     1      44.206   3.442  11.507  0.00  0.00    +0.000 A 
ATOM      4  C   UNL     1      44.169   3.155  10.145  0.00  0.00    +0.000 A 
ATOM      5  C   UNL     1      44.876   3.968   9.269  0.00  0.00    +0.000 A 
ATOM      6  N   UNL     1      45.573   5.046   9.697  0.00  0.00    +0.000 NA
ENDROOT
BRANCH   1   7
ATOM      7  C   UNL     1      46.394   6.525  11.488  0.00  0.00    +0.000 C 
BRANCH   7   8
ATOM      8  C   UNL     1      46.049   6.909  12.924  0.00  0.00    +0.000 C 
BRANCH   8  14
ATOM      9  C   UNL     1      51.993   8.629  15.174  0.00  0.00    +0.000 C 
ATOM     10  C   UNL     1      50.656   8.080  14.793  0.00  0.00    +0.000 A 
ATOM     11  C   UNL     1      49.883   8.667  13.801  0.00  0.00    +0.000 A 
ATOM     12  C   UNL     1      48.648   8.113  13.483  0.00  0.00    +0.000 A 
ATOM     13  C   UNL     1      48.193   6.984  14.158  0.00  0.00    +0.000 A 
ATOM     14  N   UNL     1      46.995   6.375  13.879  0.00  0.00    +0.000 N 
ATOM     15  N   UNL     1      48.928   6.409  15.126  0.00  0.00    +0.000 NA
ATOM     16  C   UNL     1      50.130   6.959  15.421  0.00  0.00    +0.000 A 
ATOM     17  H   UNL     1      46.775   5.590  14.480  0.00  0.00    +0.000 HD
ENDBRANCH   8  14
ENDBRANCH   7   8
ENDBRANCH   1   7
BRANCH   5  18
ATOM     18  C   UNL     1      44.954   3.645   7.800  0.00  0.00    +0.000 C 
BRANCH  18  19
ATOM     19  C   UNL     1      46.370   3.271   7.373  0.00  0.00    +0.000 C 
ATOM     20  C   UNL     1      46.524   3.126   5.841  0.00  0.00    +0.000 C 
ATOM     21  C   UNL     1      47.249   1.785   6.042  0.00  0.00    +0.000 C 
ATOM     22  C   UNL     1      46.815   1.795   7.520  0.00  0.00    +0.000 C 
BRANCH  21  23
ATOM     23  O   UNL     1      48.665   1.780   5.780  0.00  0.00    +0.000 OA
ATOM     24  H   UNL     1      48.840   2.583   5.262  0.00  0.00    +0.000 HD
ENDBRANCH  21  23
ENDBRANCH  18  19
ENDBRANCH   5  18
TORSDOF 6
ENDMDL
MODEL 6
REMARK VINA RESULT:    -6.960      3.884      7.697
REMARK INTER + INTRA:          -9.987
REMARK INTER:                  -9.377
REMARK INTRA:                  -0.610
REMARK UNBOUND:                -0.790
REMARK  Name = 
REMARK  7 active torsions:
REMARK  status: ('A' for Active; 'I' for Inactive)
REMARK    1  A    between atoms: C_1  and  C_2
REMARK    2  A    between atoms: N_6  and  C_7
REMARK    3  A    between atoms: C_7  and  C_8
REMARK    4  A    between atoms: C_8  and  C_9
REMARK    5  A    between atoms: C_13  and  C_14
REMARK    6  A    between atoms: C_14  and  C_15
REMARK    7  A    between atoms: C_17  and  O_18
REMARK                            x       y       z     vdW  Elec       q    Type
REMARK                         _______ _______ _______ _____ _____    ______ ____
ROOT
ATOM      1  C   UNL     1      44.828   5.435  11.225  0.00  0.00    +0.000 A 
ATOM      2  C   UNL     1      44.675   4.454  12.197  0.00  0.00    +0.000 A 
ATOM      3  C   UNL     1      44.519   3.133  11.791  0.00  0.00    +0.000 A 
ATOM      4  C   UNL     1      44.536   2.824  10.433  0.00  0.00    +0.000 A 
ATOM      5  C   UNL     1      44.718   3.850   9.514  0.00  0.00    +0.000 A 
ATOM      6  N   UNL     1      44.848   5.141   9.899  0.00  0.00    +0.000 NA
ENDROOT
BRANCH   1   7
ATOM      7  C   UNL     1      44.985   6.881  11.637  0.00  0.00    +0.000 C 
BRANCH   7   8
ATOM      8  C   UNL     1      45.968   7.034  12.795  0.00  0.00    +0.000 C 
BRANCH   8  14
ATOM      9  C   UNL     1      51.841   9.392  10.979  0.00  0.00    +0.000 C 
ATOM     10  C   UNL     1      50.462   9.049  11.443  0.00  0.00    +0.000 A 
ATOM     11  C   UNL     1      49.998   7.742  11.445  0.00  0.00    +0.000 A 
ATOM     12  C   UNL     1      48.706   7.478  11.891  0.00  0.00    +0.000 A 
ATOM     13  C   UNL     1      47.891   8.519  12.326  0.00  0.00    +0.000 A 
ATOM     14  N   UNL     1      46.617   8.327  12.798  0.00  0.00    +0.000 N 
ATOM     15  N   UNL     1      48.325   9.792  12.323  0.00  0.00    +0.000 NA
ATOM     16  C   UNL     1      49.587  10.030  11.888  0.00  0.00    +0.000 A 
ATOM     17  H   UNL     1      46.126   9.180  13.037  0.00  0.00    +0.000 HD
ENDBRANCH   8  14
ENDBRANCH   7   8
ENDBRANCH   1   7
BRANCH   5  18
ATOM     18  C   UNL     1      44.846   3.561   8.042  0.00  0.00    +0.000 C 
BRANCH  18  19
ATOM     19  C   UNL     1      46.272   3.181   7.658  0.00  0.00    +0.000 C 
ATOM     20  C   UNL     1      46.512   3.188   6.130  0.00  0.00    +0.000 C 
ATOM     21  C   UNL     1      47.183   1.808   6.230  0.00  0.00    +0.000 C 
ATOM     22  C   UNL     1      46.662   1.682   7.674  0.00  0.00    +0.000 C 
BRANCH  21  23
ATOM     23  O   UNL     1      48.611   1.778   6.048  0.00  0.00    +0.000 OA
ATOM     24  H   UNL     1      48.889   0.881   6.294  0.00  0.00    +0.000 HD
ENDBRANCH  21  23
ENDBRANCH  18  19
ENDBRANCH   5  18
TORSDOF 6
ENDMDL
MODEL 7
REMARK VINA RESULT:    -6.769      3.048      7.755
REMARK INTER + INTRA:          -9.736
REMARK INTER:                  -9.164
REMARK INTRA:                  -0.571
REMARK UNBOUND:                -0.790
REMARK  Name = 
REMARK  7 active torsions:
REMARK  status: ('A' for Active; 'I' for Inactive)
REMARK    1  A    between atoms: C_1  and  C_2
REMARK    2  A    between atoms: N_6  and  C_7
REMARK    3  A    between atoms: C_7  and  C_8
REMARK    4  A    between atoms: C_8  and  C_9
REMARK    5  A    between atoms: C_13  and  C_14
REMARK    6  A    between atoms: C_14  and  C_15
REMARK    7  A    between atoms: C_17  and  O_18
REMARK                            x       y       z     vdW  Elec       q    Type
REMARK                         _______ _______ _______ _____ _____    ______ ____
ROOT
ATOM      1  C   UNL     1      45.376   5.939  11.373  0.00  0.00    +0.000 A 
ATOM      2  C   UNL     1      44.176   6.519  11.764  0.00  0.00    +0.000 A 
ATOM      3  C   UNL     1      42.998   5.801  11.581  0.00  0.00    +0.000 A 
ATOM      4  C   UNL     1      43.050   4.523  11.031  0.00  0.00    +0.000 A 
ATOM      5  C   UNL     1      44.286   3.992  10.684  0.00  0.00    +0.000 A 
ATOM      6  N   UNL     1      45.434   4.692  10.838  0.00  0.00    +0.000 NA
ENDROOT
BRANCH   1   7
ATOM      7  C   UNL     1      46.669   6.702  11.547  0.00  0.00    +0.000 C 
BRANCH   7   8
ATOM      8  C   UNL     1      47.181   6.625  12.983  0.00  0.00    +0.000 C 
BRANCH   8  14
ATOM      9  C   UNL     1      48.754   3.702  18.669  0.00  0.00    +0.000 C 
ATOM     10  C   UNL     1      48.317   4.185  17.324  0.00  0.00    +0.000 A 
ATOM     11  C   UNL     1      48.588   5.474  16.889  0.00  0.00    +0.000 A 
ATOM     12  C   UNL     1      48.162   5.871  15.626  0.00  0.00    +0.000 A 
ATOM     13  C   UNL     1      47.467   4.981  14.811  0.00  0.00    +0.000 A 
ATOM     14  N   UNL     1      47.037   5.300  13.547  0.00  0.00    +0.000 N 
ATOM     15  N   UNL     1      47.191   3.731  15.222  0.00  0.00    +0.000 NA
ATOM     16  C   UNL     1      47.616   3.360  16.454  0.00  0.00    +0.000 A 
ATOM     17  H   UNL     1      46.507   4.570  13.089  0.00  0.00    +0.000 HD
ENDBRANCH   8  14
ENDBRANCH   7   8
ENDBRANCH   1   7
BRANCH   5  18
ATOM     18  C   UNL     1      44.411   2.579  10.180  0.00  0.00    +0.000 C 
BRANCH  18  19
ATOM     19  C   UNL     1      44.707   2.532   8.684  0.00  0.00    +0.000 C 
ATOM     20  C   UNL     1      46.067   1.873   8.355  0.00  0.00    +0.000 C 
ATOM     21  C   UNL     1      46.408   3.046   7.421  0.00  0.00    +0.000 C 
ATOM     22  C   UNL     1      45.210   3.825   7.995  0.00  0.00    +0.000 C 
BRANCH  21  23
ATOM     23  O   UNL     1      46.386   2.764   6.009  0.00  0.00    +0.000 OA
ATOM     24  H   UNL     1      47.000   3.399   5.604  0.00  0.00    +0.000 HD
ENDBRANCH  21  23
ENDBRANCH  18  19
ENDBRANCH   5  18
TORSDOF 6
ENDMDL
MODEL 8
REMARK VINA RESULT:    -6.723      3.590      4.104
REMARK INTER + INTRA:          -9.674
REMARK INTER:                  -9.100
REMARK INTRA:                  -0.575
REMARK UNBOUND:                -0.790
REMARK  Name = 
REMARK  7 active torsions:
REMARK  status: ('A' for Active; 'I' for Inactive)
REMARK    1  A    between atoms: C_1  and  C_2
REMARK    2  A    between atoms: N_6  and  C_7
REMARK    3  A    between atoms: C_7  and  C_8
REMARK    4  A    between atoms: C_8  and  C_9
REMARK    5  A    between atoms: C_13  and  C_14
REMARK    6  A    between atoms: C_14  and  C_15
REMARK    7  A    between atoms: C_17  and  O_18
REMARK                            x       y       z     vdW  Elec       q    Type
REMARK                         _______ _______ _______ _____ _____    ______ ____
ROOT
ATOM      1  C   UNL     1      44.758   6.746  12.121  0.00  0.00    +0.000 A 
ATOM      2  C   UNL     1      44.104   7.784  11.471  0.00  0.00    +0.000 A 
ATOM      3  C   UNL     1      44.641   9.065  11.552  0.00  0.00    +0.000 A 
ATOM      4  C   UNL     1      45.820   9.272  12.263  0.00  0.00    +0.000 A 
ATOM      5  C   UNL     1      46.437   8.186  12.870  0.00  0.00    +0.000 A 
ATOM      6  N   UNL     1      45.910   6.941  12.815  0.00  0.00    +0.000 NA
ENDROOT
BRANCH   1   7
ATOM      7  C   UNL     1      44.189   5.347  12.062  0.00  0.00    +0.000 C 
BRANCH   7   8
ATOM      8  C   UNL     1      43.613   5.031  10.685  0.00  0.00    +0.000 C 
BRANCH   8  14
ATOM      9  C   UNL     1      47.333   1.236   6.797  0.00  0.00    +0.000 C 
ATOM     10  C   UNL     1      46.569   2.255   7.578  0.00  0.00    +0.000 A 
ATOM     11  C   UNL     1      45.730   1.895   8.623  0.00  0.00    +0.000 A 
ATOM     12  C   UNL     1      45.045   2.886   9.319  0.00  0.00    +0.000 A 
ATOM     13  C   UNL     1      45.201   4.223   8.966  0.00  0.00    +0.000 A 
ATOM     14  N   UNL     1      44.573   5.251   9.624  0.00  0.00    +0.000 N 
ATOM     15  N   UNL     1      46.005   4.587   7.952  0.00  0.00    +0.000 NA
ATOM     16  C   UNL     1      46.667   3.610   7.286  0.00  0.00    +0.000 A 
ATOM     17  H   UNL     1      44.744   6.167   9.229  0.00  0.00    +0.000 HD
ENDBRANCH   8  14
ENDBRANCH   7   8
ENDBRANCH   1   7
BRANCH   5  18
ATOM     18  C   UNL     1      47.765   8.334  13.565  0.00  0.00    +0.000 C 
BRANCH  18  19
ATOM     19  C   UNL     1      48.859   7.521  12.881  0.00  0.00    +0.000 C 
ATOM     20  C   UNL     1      50.261   8.161  13.011  0.00  0.00    +0.000 C 
ATOM     21  C   UNL     1      50.490   7.962  11.503  0.00  0.00    +0.000 C 
ATOM     22  C   UNL     1      48.996   7.623  11.342  0.00  0.00    +0.000 C 
BRANCH  21  23
ATOM     23  O   UNL     1      51.434   6.940  11.130  0.00  0.00    +0.000 OA
ATOM     24  H   UNL     1      52.188   7.409  10.738  0.00  0.00    +0.000 HD
ENDBRANCH  21  23
ENDBRANCH  18  19
ENDBRANCH   5  18
TORSDOF 6
ENDMDL
