MODEL 1
REMARK VINA RESULT:    -7.886      0.000      0.000
REMARK INTER + INTRA:         -11.547
REMARK INTER:                 -10.652
REMARK INTRA:                  -0.895
REMARK UNBOUND:                -0.895
REMARK  Name = 
REMARK  6 active torsions:
REMARK  status: ('A' for Active; 'I' for Inactive)
REMARK    1  A    between atoms: C_2  and  C_19
REMARK    2  A    between atoms: N_3  and  C_4
REMARK    3  A    between atoms: C_4  and  C_5
REMARK    4  A    between atoms: C_8  and  C_9
REMARK    5  A    between atoms: C_9  and  O_10
REMARK    6  A    between atoms: O_10  and  C_11
REMARK                            x       y       z     vdW  Elec       q    Type
REMARK                         _______ _______ _______ _____ _____    ______ ____
ROOT
ATOM      1  O   UNL     1      48.332   8.144  16.374  0.00  0.00    +0.000 OA
ATOM      2  C   UNL     1      48.607   6.979  16.100  0.00  0.00    +0.000 C 
ATOM      3  N   UNL     1      48.254   6.351  14.926  0.00  0.00    +0.000 N 
ATOM      4  H   UNL     1      48.710   5.477  14.710  0.00  0.00    +0.000 HD
ENDROOT
BRANCH   2   5
ATOM      5  C   UNL     1      49.529   6.169  16.883  0.00  0.00    +0.000 A 
ATOM      6  C   UNL     1      50.717   6.666  17.392  0.00  0.00    +0.000 A 
ATOM      7  S   UNL     1      51.820   5.402  17.755  0.00  0.00    +0.000 S 
ATOM      8  C   UNL     1      50.665   4.206  17.370  0.00  0.00    +0.000 A 
ATOM      9  N   UNL     1      50.970   2.883  17.310  0.00  0.00    +0.000 NA
ATOM     10  C   UNL     1      49.956   2.117  17.064  0.00  0.00    +0.000 A 
ATOM     11  N   UNL     1      48.657   2.547  16.922  0.00  0.00    +0.000 N 
ATOM     12  C   UNL     1      48.298   3.872  16.992  0.00  0.00    +0.000 A 
ATOM     13  O   UNL     1      47.128   4.235  16.968  0.00  0.00    +0.000 OA
ATOM     14  C   UNL     1      49.430   4.765  17.129  0.00  0.00    +0.000 A 
ATOM     15  H   UNL     1      47.897   1.887  16.835  0.00  0.00    +0.000 HD
ENDBRANCH   2   5
BRANCH   3  16
ATOM     16  C   UNL     1      47.725   7.077  13.806  0.00  0.00    +0.000 C 
BRANCH  16  17
ATOM     17  C   UNL     1      46.807   6.195  12.997  0.00  0.00    +0.000 A 
ATOM     18  C   UNL     1      46.247   6.661  11.802  0.00  0.00    +0.000 A 
ATOM     19  C   UNL     1      45.416   5.838  11.034  0.00  0.00    +0.000 A 
ATOM     20  C   UNL     1      45.104   4.541  11.463  0.00  0.00    +0.000 A 
ATOM     21  C   UNL     1      45.639   4.085  12.675  0.00  0.00    +0.000 A 
ATOM     22  C   UNL     1      46.473   4.906  13.440  0.00  0.00    +0.000 A 
BRANCH  20  23
ATOM     23  C   UNL     1      44.228   3.637  10.624  0.00  0.00    +0.000 C 
BRANCH  23  24
ATOM     24  O   UNL     1      44.293   4.060   9.266  0.00  0.00    +0.000 OA
BRANCH  24  25
ATOM     25  C   UNL     1      45.232   3.338   8.561  0.00  0.00    +0.000 A 
ATOM     26  N   UNL     1      45.954   4.044   7.681  0.00  0.00    +0.000 NA
ATOM     27  C   UNL     1      46.869   3.352   6.977  0.00  0.00    +0.000 A 
ATOM     28  C   UNL     1      47.091   2.004   7.135  0.00  0.00    +0.000 A 
ATOM     29  C   UNL     1      46.310   1.385   8.081  0.00  0.00    +0.000 A 
ATOM     30  N   UNL     1      45.373   2.022   8.806  0.00  0.00    +0.000 NA
ENDBRANCH  24  25
ENDBRANCH  23  24
ENDBRANCH  20  23
ENDBRANCH  16  17
ENDBRANCH   3  16
TORSDOF 6
ENDMDL
MODEL 2
REMARK VINA RESULT:    -7.531      1.748      2.107
REMARK INTER + INTRA:         -11.068
REMARK INTER:                 -10.261
REMARK INTRA:                  -0.807
REMARK UNBOUND:                -0.895
REMARK  Name = 
REMARK  6 active torsions:
REMARK  status: ('A' for Active; 'I' for Inactive)
REMARK    1  A    between atoms: C_2  and  C_19
REMARK    2  A    between atoms: N_3  and  C_4
REMARK    3  A    between atoms: C_4  and  C_5
REMARK    4  A    between atoms: C_8  and  C_9
REMARK    5  A    between atoms: C_9  and  O_10
REMARK    6  A    between atoms: O_10  and  C_11
REMARK                            x       y       z     vdW  Elec       q    Type
REMARK                         _______ _______ _______ _____ _____    ______ ____
ROOT
ATOM      1  O   UNL     1      50.424   6.654  15.530  0.00  0.00    +0.000 OA
ATOM      2  C   UNL     1      49.262   6.983  15.755  0.00  0.00    +0.000 C 
ATOM      3  N   UNL     1      48.326   7.248  14.781  0.00  0.00    +0.000 N 
ATOM      4  H   UNL     1      47.358   7.294  15.066  0.00  0.00    +0.000 HD
ENDROOT
BRANCH   2   5
ATOM      5  C   UNL     1      48.657   6.926  17.078  0.00  0.00    +0.000 A 
ATOM      6  C   UNL     1      48.302   8.061  17.789  0.00  0.00    +0.000 A 
ATOM      7  S   UNL     1      48.159   7.729  19.467  0.00  0.00    +0.000 S 
ATOM      8  C   UNL     1      48.427   6.062  19.218  0.00  0.00    +0.000 A 
ATOM      9  N   UNL     1      48.590   5.184  20.243  0.00  0.00    +0.000 NA
ATOM     10  C   UNL     1      48.722   3.952  19.868  0.00  0.00    +0.000 A 
ATOM     11  N   UNL     1      48.656   3.511  18.566  0.00  0.00    +0.000 N 
ATOM     12  C   UNL     1      48.476   4.359  17.499  0.00  0.00    +0.000 A 
ATOM     13  O   UNL     1      48.316   3.948  16.357  0.00  0.00    +0.000 OA
ATOM     14  C   UNL     1      48.463   5.757  17.876  0.00  0.00    +0.000 A 
ATOM     15  H   UNL     1      48.663   2.524  18.350  0.00  0.00    +0.000 HD
ENDBRANCH   2   5
BRANCH   3  16
ATOM     16  C   UNL     1      48.559   6.939  13.399  0.00  0.00    +0.000 C 
BRANCH  16  17
ATOM     17  C   UNL     1      47.354   6.257  12.803  0.00  0.00    +0.000 A 
ATOM     18  C   UNL     1      46.898   5.040  13.323  0.00  0.00    +0.000 A 
ATOM     19  C   UNL     1      45.764   4.416  12.792  0.00  0.00    +0.000 A 
ATOM     20  C   UNL     1      45.080   4.983  11.709  0.00  0.00    +0.000 A 
ATOM     21  C   UNL     1      45.553   6.186  11.168  0.00  0.00    +0.000 A 
ATOM     22  C   UNL     1      46.684   6.812  11.701  0.00  0.00    +0.000 A 
BRANCH  20  23
ATOM     23  C   UNL     1      43.838   4.328  11.148  0.00  0.00    +0.000 C 
BRANCH  23  24
ATOM     24  O   UNL     1      43.781   4.568   9.745  0.00  0.00    +0.000 OA
BRANCH  24  25
ATOM     25  C   UNL     1      44.650   3.745   9.062  0.00  0.00    +0.000 A 
ATOM     26  N   UNL     1      45.370   4.344   8.103  0.00  0.00    +0.000 NA
ATOM     27  C   UNL     1      46.216   3.553   7.419  0.00  0.00    +0.000 A 
ATOM     28  C   UNL     1      46.375   2.210   7.670  0.00  0.00    +0.000 A 
ATOM     29  C   UNL     1      45.604   1.706   8.690  0.00  0.00    +0.000 A 
ATOM     30  N   UNL     1      44.733   2.445   9.400  0.00  0.00    +0.000 NA
ENDBRANCH  24  25
ENDBRANCH  23  24
ENDBRANCH  20  23
ENDBRANCH  16  17
ENDBRANCH   3  16
TORSDOF 6
ENDMDL
MODEL 3
REMARK VINA RESULT:    -7.327      2.103      2.709
REMARK INTER + INTRA:         -10.793
REMARK INTER:                 -10.093
REMARK INTRA:                  -0.700
REMARK UNBOUND:                -0.895
REMARK  Name = 
REMARK  6 active torsions:
REMARK  status: ('A' for Active; 'I' for Inactive)
REMARK    1  A    between atoms: C_2  and  C_19
REMARK    2  A    between atoms: N_3  and  C_4
REMARK    3  A    between atoms: C_4  and  C_5
REMARK    4  A    between atoms: C_8  and  C_9
REMARK    5  A    between atoms: C_9  and  O_10
REMARK    6  A    between atoms: O_10  and  C_11
REMARK                            x       y       z     vdW  Elec       q    Type
REMARK                         _______ _______ _______ _____ _____    ______ ____
ROOT
ATOM      1  O   UNL     1      48.953   6.204  13.345  0.00  0.00    +0.000 OA
ATOM      2  C   UNL     1      48.212   6.403  14.304  0.00  0.00    +0.000 C 
ATOM      3  N   UNL     1      47.125   7.249  14.285  0.00  0.00    +0.000 N 
ATOM      4  H   UNL     1      46.464   7.174  15.045  0.00  0.00    +0.000 HD
ENDROOT
BRANCH   2   5
ATOM      5  C   UNL     1      48.252   5.610  15.524  0.00  0.00    +0.000 A 
ATOM      6  C   UNL     1      47.401   4.541  15.751  0.00  0.00    +0.000 A 
ATOM      7  S   UNL     1      47.285   4.179  17.425  0.00  0.00    +0.000 S 
ATOM      8  C   UNL     1      48.470   5.344  17.817  0.00  0.00    +0.000 A 
ATOM      9  N   UNL     1      48.768   5.683  19.099  0.00  0.00    +0.000 NA
ATOM     10  C   UNL     1      49.734   6.538  19.208  0.00  0.00    +0.000 A 
ATOM     11  N   UNL     1      50.462   7.047  18.157  0.00  0.00    +0.000 N 
ATOM     12  C   UNL     1      50.207   6.720  16.846  0.00  0.00    +0.000 A 
ATOM     13  O   UNL     1      50.923   7.096  15.927  0.00  0.00    +0.000 OA
ATOM     14  C   UNL     1      49.044   5.872  16.684  0.00  0.00    +0.000 A 
ATOM     15  H   UNL     1      51.270   7.631  18.318  0.00  0.00    +0.000 HD
ENDBRANCH   2   5
BRANCH   3  16
ATOM     16  C   UNL     1      46.617   7.806  13.064  0.00  0.00    +0.000 C 
BRANCH  16  17
ATOM     17  C   UNL     1      46.003   6.725  12.210  0.00  0.00    +0.000 A 
ATOM     18  C   UNL     1      45.103   5.808  12.765  0.00  0.00    +0.000 A 
ATOM     19  C   UNL     1      44.510   4.820  11.971  0.00  0.00    +0.000 A 
ATOM     20  C   UNL     1      44.830   4.711  10.612  0.00  0.00    +0.000 A 
ATOM     21  C   UNL     1      45.754   5.610  10.062  0.00  0.00    +0.000 A 
ATOM     22  C   UNL     1      46.343   6.600  10.854  0.00  0.00    +0.000 A 
BRANCH  20  23
ATOM     23  C   UNL     1      44.172   3.663   9.742  0.00  0.00    +0.000 C 
BRANCH  23  24
ATOM     24  O   UNL     1      44.454   3.950   8.376  0.00  0.00    +0.000 OA
BRANCH  24  25
ATOM     25  C   UNL     1      45.455   3.137   7.891  0.00  0.00    +0.000 A 
ATOM     26  N   UNL     1      46.207   3.673   6.921  0.00  0.00    +0.000 NA
ATOM     27  C   UNL     1      47.183   2.889   6.428  0.00  0.00    +0.000 A 
ATOM     28  C   UNL     1      47.436   1.614   6.879  0.00  0.00    +0.000 A 
ATOM     29  C   UNL     1      46.618   1.174   7.892  0.00  0.00    +0.000 A 
ATOM     30  N   UNL     1      45.620   1.908   8.415  0.00  0.00    +0.000 NA
ENDBRANCH  24  25
ENDBRANCH  23  24
ENDBRANCH  20  23
ENDBRANCH  16  17
ENDBRANCH   3  16
TORSDOF 6
ENDMDL
MODEL 4
REMARK VINA RESULT:    -7.305      2.798      8.498
REMARK INTER + INTRA:         -10.763
REMARK INTER:                  -9.855
REMARK INTRA:                  -0.909
REMARK UNBOUND:                -0.895
REMARK  Name = 
REMARK  6 active torsions:
REMARK  status: ('A' for Active; 'I' for Inactive)
REMARK    1  A    between atoms: C_2  and  C_19
REMARK    2  A    between atoms: N_3  and  C_4
REMARK    3  A    between atoms: C_4  and  C_5
REMARK    4  A    between atoms: C_8  and  C_9
REMARK    5  A    between atoms: C_9  and  O_10
REMARK    6  A    between atoms: O_10  and  C_11
REMARK                            x       y       z     vdW  Elec       q    Type
REMARK                         _______ _______ _______ _____ _____    ______ ____
ROOT
ATOM      1  O   UNL     1      45.025   7.342  11.382  0.00  0.00    +0.000 OA
ATOM      2  C   UNL     1      45.446   6.189  11.428  0.00  0.00    +0.000 C 
ATOM      3  N   UNL     1      46.633   5.817  12.016  0.00  0.00    +0.000 N 
ATOM      4  H   UNL     1      46.778   4.833  12.191  0.00  0.00    +0.000 HD
ENDROOT
BRANCH   2   5
ATOM      5  C   UNL     1      44.645   5.031  11.059  0.00  0.00    +0.000 A 
ATOM      6  C   UNL     1      43.591   4.571  11.831  0.00  0.00    +0.000 A 
ATOM      7  S   UNL     1      43.222   2.933  11.474  0.00  0.00    +0.000 S 
ATOM      8  C   UNL     1      44.362   2.893  10.204  0.00  0.00    +0.000 A 
ATOM      9  N   UNL     1      44.688   1.749   9.547  0.00  0.00    +0.000 NA
ATOM     10  C   UNL     1      45.524   1.919   8.574  0.00  0.00    +0.000 A 
ATOM     11  N   UNL     1      46.026   3.133   8.165  0.00  0.00    +0.000 N 
ATOM     12  C   UNL     1      45.710   4.318   8.787  0.00  0.00    +0.000 A 
ATOM     13  O   UNL     1      46.078   5.403   8.354  0.00  0.00    +0.000 OA
ATOM     14  C   UNL     1      44.886   4.143   9.965  0.00  0.00    +0.000 A 
ATOM     15  H   UNL     1      46.593   3.209   7.333  0.00  0.00    +0.000 HD
ENDBRANCH   2   5
BRANCH   3  16
ATOM     16  C   UNL     1      47.389   6.718  12.840  0.00  0.00    +0.000 C 
BRANCH  16  17
ATOM     17  C   UNL     1      47.720   6.068  14.160  0.00  0.00    +0.000 A 
ATOM     18  C   UNL     1      47.117   4.860  14.528  0.00  0.00    +0.000 A 
ATOM     19  C   UNL     1      47.441   4.240  15.739  0.00  0.00    +0.000 A 
ATOM     20  C   UNL     1      48.354   4.832  16.621  0.00  0.00    +0.000 A 
ATOM     21  C   UNL     1      48.937   6.056  16.267  0.00  0.00    +0.000 A 
ATOM     22  C   UNL     1      48.616   6.674  15.055  0.00  0.00    +0.000 A 
BRANCH  20  23
ATOM     23  C   UNL     1      48.729   4.152  17.920  0.00  0.00    +0.000 C 
BRANCH  23  24
ATOM     24  O   UNL     1      49.059   2.793  17.653  0.00  0.00    +0.000 OA
BRANCH  24  25
ATOM     25  C   UNL     1      50.419   2.584  17.731  0.00  0.00    +0.000 A 
ATOM     26  N   UNL     1      50.834   1.371  17.340  0.00  0.00    +0.000 NA
ATOM     27  C   UNL     1      52.158   1.146  17.419  0.00  0.00    +0.000 A 
ATOM     28  C   UNL     1      53.065   2.085  17.853  0.00  0.00    +0.000 A 
ATOM     29  C   UNL     1      52.532   3.301  18.206  0.00  0.00    +0.000 A 
ATOM     30  N   UNL     1      51.217   3.579  18.159  0.00  0.00    +0.000 NA
ENDBRANCH  24  25
ENDBRANCH  23  24
ENDBRANCH  20  23
ENDBRANCH  16  17
ENDBRANCH   3  16
TORSDOF 6
ENDMDL
MODEL 5
REMARK VINA RESULT:    -7.298      2.402      3.997
REMARK INTER + INTRA:         -10.753
REMARK INTER:                  -9.897
REMARK INTRA:                  -0.856
REMARK UNBOUND:                -0.895
REMARK  Name = 
REMARK  6 active torsions:
REMARK  status: ('A' for Active; 'I' for Inactive)
REMARK    1  A    between atoms: C_2  and  C_19
REMARK    2  A    between atoms: N_3  and  C_4
REMARK    3  A    between atoms: C_4  and  C_5
REMARK    4  A    between atoms: C_8  and  C_9
REMARK    5  A    between atoms: C_9  and  O_10
REMARK    6  A    between atoms: O_10  and  C_11
REMARK                            x       y       z     vdW  Elec       q    Type
REMARK                         _______ _______ _______ _____ _____    ______ ____
ROOT
ATOM      1  O   UNL     1      48.992   5.427  16.363  0.00  0.00    +0.000 OA
ATOM      2  C   UNL     1      48.651   6.254  15.521  0.00  0.00    +0.000 C 
ATOM      3  N   UNL     1      47.730   6.015  14.525  0.00  0.00    +0.000 N 
ATOM      4  H   UNL     1      47.364   6.814  14.029  0.00  0.00    +0.000 HD
ENDROOT
BRANCH   2   5
ATOM      5  C   UNL     1      49.009   7.663  15.592  0.00  0.00    +0.000 A 
ATOM      6  C   UNL     1      49.125   8.347  16.790  0.00  0.00    +0.000 A 
ATOM      7  S   UNL     1      48.992  10.043  16.557  0.00  0.00    +0.000 S 
ATOM      8  C   UNL     1      48.926   9.862  14.861  0.00  0.00    +0.000 A 
ATOM      9  N   UNL     1      48.661  10.899  14.023  0.00  0.00    +0.000 NA
ATOM     10  C   UNL     1      48.712  10.589  12.767  0.00  0.00    +0.000 A 
ATOM     11  N   UNL     1      49.052   9.351  12.271  0.00  0.00    +0.000 N 
ATOM     12  C   UNL     1      49.344   8.279  13.080  0.00  0.00    +0.000 A 
ATOM     13  O   UNL     1      49.745   7.212  12.632  0.00  0.00    +0.000 OA
ATOM     14  C   UNL     1      49.161   8.558  14.489  0.00  0.00    +0.000 A 
ATOM     15  H   UNL     1      49.174   9.204  11.280  0.00  0.00    +0.000 HD
ENDBRANCH   2   5
BRANCH   3  16
ATOM     16  C   UNL     1      46.907   4.839  14.518  0.00  0.00    +0.000 C 
BRANCH  16  17
ATOM     17  C   UNL     1      46.216   4.692  13.186  0.00  0.00    +0.000 A 
ATOM     18  C   UNL     1      46.174   5.764  12.286  0.00  0.00    +0.000 A 
ATOM     19  C   UNL     1      45.557   5.625  11.037  0.00  0.00    +0.000 A 
ATOM     20  C   UNL     1      44.943   4.419  10.677  0.00  0.00    +0.000 A 
ATOM     21  C   UNL     1      44.957   3.355  11.589  0.00  0.00    +0.000 A 
ATOM     22  C   UNL     1      45.577   3.492  12.834  0.00  0.00    +0.000 A 
BRANCH  20  23
ATOM     23  C   UNL     1      44.298   4.253   9.318  0.00  0.00    +0.000 C 
BRANCH  23  24
ATOM     24  O   UNL     1      44.363   2.882   8.939  0.00  0.00    +0.000 OA
BRANCH  24  25
ATOM     25  C   UNL     1      45.450   2.639   8.128  0.00  0.00    +0.000 A 
ATOM     26  N   UNL     1      45.751   3.620   7.266  0.00  0.00    +0.000 NA
ATOM     27  C   UNL     1      46.805   3.394   6.460  0.00  0.00    +0.000 A 
ATOM     28  C   UNL     1      47.561   2.247   6.498  0.00  0.00    +0.000 A 
ATOM     29  C   UNL     1      47.178   1.318   7.435  0.00  0.00    +0.000 A 
ATOM     30  N   UNL     1      46.127   1.484   8.260  0.00  0.00    +0.000 NA
ENDBRANCH  24  25
ENDBRANCH  23  24
ENDBRANCH  20  23
ENDBRANCH  16  17
ENDBRANCH   3  16
TORSDOF 6
ENDMDL
MODEL 6
REMARK VINA RESULT:    -6.824      2.438      3.393
REMARK INTER + INTRA:         -10.114
REMARK INTER:                  -9.623
REMARK INTRA:                  -0.490
REMARK UNBOUND:                -0.895
REMARK  Name = 
REMARK  6 active torsions:
REMARK  status: ('A' for Active; 'I' for Inactive)
REMARK    1  A    between atoms: C_2  and  C_19
REMARK    2  A    between atoms: N_3  and  C_4
REMARK    3  A    between atoms: C_4  and  C_5
REMARK    4  A    between atoms: C_8  and  C_9
REMARK    5  A    between atoms: C_9  and  O_10
REMARK    6  A    between atoms: O_10  and  C_11
REMARK                            x       y       z     vdW  Elec       q    Type
REMARK                         _______ _______ _______ _____ _____    ______ ____
ROOT
ATOM      1  O   UNL     1      48.365   5.869  16.393  0.00  0.00    +0.000 OA
ATOM      2  C   UNL     1      48.527   6.305  15.256  0.00  0.00    +0.000 C 
ATOM      3  N   UNL     1      47.831   5.871  14.150  0.00  0.00    +0.000 N 
ATOM      4  H   UNL     1      47.882   6.438  13.316  0.00  0.00    +0.000 HD
ENDROOT
BRANCH   2   5
ATOM      5  C   UNL     1      49.320   7.489  14.959  0.00  0.00    +0.000 A 
ATOM      6  C   UNL     1      48.785   8.618  14.360  0.00  0.00    +0.000 A 
ATOM      7  S   UNL     1      50.009   9.581  13.636  0.00  0.00    +0.000 S 
ATOM      8  C   UNL     1      51.243   8.571  14.245  0.00  0.00    +0.000 A 
ATOM      9  N   UNL     1      52.548   8.711  13.890  0.00  0.00    +0.000 NA
ATOM     10  C   UNL     1      53.351   7.898  14.497  0.00  0.00    +0.000 A 
ATOM     11  N   UNL     1      52.977   6.990  15.461  0.00  0.00    +0.000 N 
ATOM     12  C   UNL     1      51.673   6.825  15.865  0.00  0.00    +0.000 A 
ATOM     13  O   UNL     1      51.365   6.090  16.794  0.00  0.00    +0.000 OA
ATOM     14  C   UNL     1      50.734   7.625  15.106  0.00  0.00    +0.000 A 
ATOM     15  H   UNL     1      53.668   6.457  15.970  0.00  0.00    +0.000 HD
ENDBRANCH   2   5
BRANCH   3  16
ATOM     16  C   UNL     1      46.680   5.021  14.262  0.00  0.00    +0.000 C 
BRANCH  16  17
ATOM     17  C   UNL     1      46.038   4.827  12.911  0.00  0.00    +0.000 A 
ATOM     18  C   UNL     1      46.200   5.786  11.904  0.00  0.00    +0.000 A 
ATOM     19  C   UNL     1      45.630   5.600  10.640  0.00  0.00    +0.000 A 
ATOM     20  C   UNL     1      44.859   4.462  10.368  0.00  0.00    +0.000 A 
ATOM     21  C   UNL     1      44.671   3.515  11.384  0.00  0.00    +0.000 A 
ATOM     22  C   UNL     1      45.245   3.700  12.645  0.00  0.00    +0.000 A 
BRANCH  20  23
ATOM     23  C   UNL     1      44.262   4.240   8.996  0.00  0.00    +0.000 C 
BRANCH  23  24
ATOM     24  O   UNL     1      45.260   4.493   8.011  0.00  0.00    +0.000 OA
BRANCH  24  25
ATOM     25  C   UNL     1      46.005   3.363   7.754  0.00  0.00    +0.000 A 
ATOM     26  N   UNL     1      47.124   3.565   7.043  0.00  0.00    +0.000 NA
ATOM     27  C   UNL     1      47.859   2.471   6.775  0.00  0.00    +0.000 A 
ATOM     28  C   UNL     1      47.525   1.206   7.200  0.00  0.00    +0.000 A 
ATOM     29  C   UNL     1      46.371   1.118   7.940  0.00  0.00    +0.000 A 
ATOM     30  N   UNL     1      45.590   2.175   8.230  0.00  0.00    +0.000 NA
ENDBRANCH  24  25
ENDBRANCH  23  24
ENDBRANCH  20  23
ENDBRANCH  16  17
ENDBRANCH   3  16
TORSDOF 6
ENDMDL
MODEL 7
REMARK VINA RESULT:    -6.775      2.290      3.088
REMARK INTER + INTRA:         -10.047
REMARK INTER:                  -9.715
REMARK INTRA:                  -0.332
REMARK UNBOUND:                -0.895
REMARK  Name = 
REMARK  6 active torsions:
REMARK  status: ('A' for Active; 'I' for Inactive)
REMARK    1  A    between atoms: C_2  and  C_19
REMARK    2  A    between atoms: N_3  and  C_4
REMARK    3  A    between atoms: C_4  and  C_5
REMARK    4  A    between atoms: C_8  and  C_9
REMARK    5  A    between atoms: C_9  and  O_10
REMARK    6  A    between atoms: O_10  and  C_11
REMARK                            x       y       z     vdW  Elec       q    Type
REMARK                         _______ _______ _______ _____ _____    ______ ____
ROOT
ATOM      1  O   UNL     1      49.126   4.514  16.604  0.00  0.00    +0.000 OA
ATOM      2  C   UNL     1      48.517   5.483  16.159  0.00  0.00    +0.000 C 
ATOM      3  N   UNL     1      47.522   5.407  15.210  0.00  0.00    +0.000 N 
ATOM      4  H   UNL     1      46.944   6.224  15.076  0.00  0.00    +0.000 HD
ENDROOT
BRANCH   2   5
ATOM      5  C   UNL     1      48.613   6.819  16.728  0.00  0.00    +0.000 A 
ATOM      6  C   UNL     1      49.177   7.886  16.048  0.00  0.00    +0.000 A 
ATOM      7  S   UNL     1      49.659   9.132  17.127  0.00  0.00    +0.000 S 
ATOM      8  C   UNL     1      48.988   8.311  18.464  0.00  0.00    +0.000 A 
ATOM      9  N   UNL     1      49.164   8.730  19.746  0.00  0.00    +0.000 NA
ATOM     10  C   UNL     1      48.532   8.021  20.625  0.00  0.00    +0.000 A 
ATOM     11  N   UNL     1      47.701   6.963  20.338  0.00  0.00    +0.000 N 
ATOM     12  C   UNL     1      47.479   6.514  19.057  0.00  0.00    +0.000 A 
ATOM     13  O   UNL     1      46.660   5.640  18.803  0.00  0.00    +0.000 OA
ATOM     14  C   UNL     1      48.280   7.201  18.064  0.00  0.00    +0.000 A 
ATOM     15  H   UNL     1      47.156   6.517  21.063  0.00  0.00    +0.000 HD
ENDBRANCH   2   5
BRANCH   3  16
ATOM     16  C   UNL     1      46.940   4.155  14.818  0.00  0.00    +0.000 C 
BRANCH  16  17
ATOM     17  C   UNL     1      46.300   4.278  13.458  0.00  0.00    +0.000 A 
ATOM     18  C   UNL     1      46.443   5.453  12.710  0.00  0.00    +0.000 A 
ATOM     19  C   UNL     1      45.874   5.562  11.437  0.00  0.00    +0.000 A 
ATOM     20  C   UNL     1      45.125   4.508  10.898  0.00  0.00    +0.000 A 
ATOM     21  C   UNL     1      44.956   3.343  11.658  0.00  0.00    +0.000 A 
ATOM     22  C   UNL     1      45.528   3.232  12.929  0.00  0.00    +0.000 A 
BRANCH  20  23
ATOM     23  C   UNL     1      44.530   4.610   9.511  0.00  0.00    +0.000 C 
BRANCH  23  24
ATOM     24  O   UNL     1      45.576   4.853   8.575  0.00  0.00    +0.000 OA
BRANCH  24  25
ATOM     25  C   UNL     1      46.107   3.673   8.102  0.00  0.00    +0.000 A 
ATOM     26  N   UNL     1      45.530   2.558   8.571  0.00  0.00    +0.000 NA
ATOM     27  C   UNL     1      46.043   1.396   8.126  0.00  0.00    +0.000 A 
ATOM     28  C   UNL     1      47.085   1.317   7.231  0.00  0.00    +0.000 A 
ATOM     29  C   UNL     1      47.584   2.521   6.799  0.00  0.00    +0.000 A 
ATOM     30  N   UNL     1      47.120   3.712   7.217  0.00  0.00    +0.000 NA
ENDBRANCH  24  25
ENDBRANCH  23  24
ENDBRANCH  20  23
ENDBRANCH  16  17
ENDBRANCH   3  16
TORSDOF 6
ENDMDL
MODEL 8
REMARK VINA RESULT:    -6.758      3.226      4.819
REMARK INTER + INTRA:         -10.024
REMARK INTER:                  -9.202
REMARK INTRA:                  -0.822
REMARK UNBOUND:                -0.895
REMARK  Name = 
REMARK  6 active torsions:
REMARK  status: ('A' for Active; 'I' for Inactive)
REMARK    1  A    between atoms: C_2  and  C_19
REMARK    2  A    between atoms: N_3  and  C_4
REMARK    3  A    between atoms: C_4  and  C_5
REMARK    4  A    between atoms: C_8  and  C_9
REMARK    5  A    between atoms: C_9  and  O_10
REMARK    6  A    between atoms: O_10  and  C_11
REMARK                            x       y       z     vdW  Elec       q    Type
REMARK                         _______ _______ _______ _____ _____    ______ ____
ROOT
ATOM      1  O   UNL     1      48.482   8.570  15.338  0.00  0.00    +0.000 OA
ATOM      2  C   UNL     1      48.774   8.240  14.191  0.00  0.00    +0.000 C 
ATOM      3  N   UNL     1      48.427   7.038  13.616  0.00  0.00    +0.000 N 
ATOM      4  H   UNL     1      48.523   6.957  12.614  0.00  0.00    +0.000 HD
ENDROOT
BRANCH   2   5
ATOM      5  C   UNL     1      49.340   9.158  13.214  0.00  0.00    +0.000 A 
ATOM      6  C   UNL     1      48.591  10.142  12.589  0.00  0.00    +0.000 A 
ATOM      7  S   UNL     1      49.336  10.666  11.134  0.00  0.00    +0.000 S 
ATOM      8  C   UNL     1      50.708   9.691  11.418  0.00  0.00    +0.000 A 
ATOM      9  N   UNL     1      51.694   9.526  10.497  0.00  0.00    +0.000 NA
ATOM     10  C   UNL     1      52.685   8.802  10.909  0.00  0.00    +0.000 A 
ATOM     11  N   UNL     1      52.804   8.269  12.172  0.00  0.00    +0.000 N 
ATOM     12  C   UNL     1      51.841   8.424  13.141  0.00  0.00    +0.000 A 
ATOM     13  O   UNL     1      52.001   8.034  14.291  0.00  0.00    +0.000 OA
ATOM     14  C   UNL     1      50.658   9.112  12.666  0.00  0.00    +0.000 A 
ATOM     15  H   UNL     1      53.651   7.801  12.462  0.00  0.00    +0.000 HD
ENDBRANCH   2   5
BRANCH   3  16
ATOM     16  C   UNL     1      47.485   6.146  14.230  0.00  0.00    +0.000 C 
BRANCH  16  17
ATOM     17  C   UNL     1      46.616   5.499  13.181  0.00  0.00    +0.000 A 
ATOM     18  C   UNL     1      46.198   4.171  13.326  0.00  0.00    +0.000 A 
ATOM     19  C   UNL     1      45.369   3.574  12.370  0.00  0.00    +0.000 A 
ATOM     20  C   UNL     1      44.967   4.285  11.232  0.00  0.00    +0.000 A 
ATOM     21  C   UNL     1      45.409   5.605  11.070  0.00  0.00    +0.000 A 
ATOM     22  C   UNL     1      46.234   6.203  12.028  0.00  0.00    +0.000 A 
BRANCH  20  23
ATOM     23  C   UNL     1      44.049   3.655  10.208  0.00  0.00    +0.000 C 
BRANCH  23  24
ATOM     24  O   UNL     1      44.369   4.171   8.920  0.00  0.00    +0.000 OA
BRANCH  24  25
ATOM     25  C   UNL     1      45.351   3.421   8.311  0.00  0.00    +0.000 A 
ATOM     26  N   UNL     1      45.356   2.119   8.629  0.00  0.00    +0.000 NA
ATOM     27  C   UNL     1      46.315   1.373   8.051  0.00  0.00    +0.000 A 
ATOM     28  C   UNL     1      47.243   1.876   7.169  0.00  0.00    +0.000 A 
ATOM     29  C   UNL     1      47.131   3.219   6.897  0.00  0.00    +0.000 A 
ATOM     30  N   UNL     1      46.201   4.015   7.454  0.00  0.00    +0.000 NA
ENDBRANCH  24  25
ENDBRANCH  23  24
ENDBRANCH  20  23
ENDBRANCH  16  17
ENDBRANCH   3  16
TORSDOF 6
ENDMDL
MODEL 9
REMARK VINA RESULT:    -6.689      1.968      2.608
REMARK INTER + INTRA:          -9.930
REMARK INTER:                  -8.607
REMARK INTRA:                  -1.324
REMARK UNBOUND:                -0.895
REMARK  Name = 
REMARK  6 active torsions:
REMARK  status: ('A' for Active; 'I' for Inactive)
REMARK    1  A    between atoms: C_2  and  C_19
REMARK    2  A    between atoms: N_3  and  C_4
REMARK    3  A    between atoms: C_4  and  C_5
REMARK    4  A    between atoms: C_8  and  C_9
REMARK    5  A    between atoms: C_9  and  O_10
REMARK    6  A    between atoms: O_10  and  C_11
REMARK                            x       y       z     vdW  Elec       q    Type
REMARK                         _______ _______ _______ _____ _____    ______ ____
ROOT
ATOM      1  O   UNL     1      50.868   6.644  15.508  0.00  0.00    +0.000 OA
ATOM      2  C   UNL     1      49.963   7.121  16.188  0.00  0.00    +0.000 C 
ATOM      3  N   UNL     1      49.263   8.261  15.862  0.00  0.00    +0.000 N 
ATOM      4  H   UNL     1      48.407   8.441  16.365  0.00  0.00    +0.000 HD
ENDROOT
BRANCH   2   5
ATOM      5  C   UNL     1      49.361   6.428  17.318  0.00  0.00    +0.000 A 
ATOM      6  C   UNL     1      49.610   6.784  18.634  0.00  0.00    +0.000 A 
ATOM      7  S   UNL     1      49.249   5.495  19.709  0.00  0.00    +0.000 S 
ATOM      8  C   UNL     1      48.634   4.533  18.440  0.00  0.00    +0.000 A 
ATOM      9  N   UNL     1      48.282   3.231  18.610  0.00  0.00    +0.000 NA
ATOM     10  C   UNL     1      47.778   2.677  17.554  0.00  0.00    +0.000 A 
ATOM     11  N   UNL     1      47.549   3.318  16.359  0.00  0.00    +0.000 N 
ATOM     12  C   UNL     1      47.872   4.637  16.145  0.00  0.00    +0.000 A 
ATOM     13  O   UNL     1      47.571   5.226  15.115  0.00  0.00    +0.000 OA
ATOM     14  C   UNL     1      48.563   5.245  17.264  0.00  0.00    +0.000 A 
ATOM     15  H   UNL     1      47.057   2.856  15.607  0.00  0.00    +0.000 HD
ENDBRANCH   2   5
BRANCH   3  16
ATOM     16  C   UNL     1      49.372   8.876  14.569  0.00  0.00    +0.000 C 
BRANCH  16  17
ATOM     17  C   UNL     1      48.341   8.305  13.628  0.00  0.00    +0.000 A 
ATOM     18  C   UNL     1      46.979   8.559  13.829  0.00  0.00    +0.000 A 
ATOM     19  C   UNL     1      46.020   8.054  12.944  0.00  0.00    +0.000 A 
ATOM     20  C   UNL     1      46.404   7.259  11.856  0.00  0.00    +0.000 A 
ATOM     21  C   UNL     1      47.764   6.979  11.672  0.00  0.00    +0.000 A 
ATOM     22  C   UNL     1      48.722   7.487  12.554  0.00  0.00    +0.000 A 
BRANCH  20  23
ATOM     23  C   UNL     1      45.375   6.733  10.880  0.00  0.00    +0.000 C 
BRANCH  23  24
ATOM     24  O   UNL     1      45.010   5.410  11.260  0.00  0.00    +0.000 OA
BRANCH  24  25
ATOM     25  C   UNL     1      45.076   4.546  10.189  0.00  0.00    +0.000 A 
ATOM     26  N   UNL     1      44.549   3.332  10.399  0.00  0.00    +0.000 NA
ATOM     27  C   UNL     1      44.614   2.472   9.366  0.00  0.00    +0.000 A 
ATOM     28  C   UNL     1      45.165   2.788   8.146  0.00  0.00    +0.000 A 
ATOM     29  C   UNL     1      45.655   4.067   8.033  0.00  0.00    +0.000 A 
ATOM     30  N   UNL     1      45.628   4.965   9.035  0.00  0.00    +0.000 NA
ENDBRANCH  24  25
ENDBRANCH  23  24
ENDBRANCH  20  23
ENDBRANCH  16  17
ENDBRANCH   3  16
TORSDOF 6
ENDMDL
