MODEL 1
REMARK VINA RESULT:    -8.466      0.000      0.000
REMARK INTER + INTRA:         -12.680
REMARK INTER:                 -11.683
REMARK INTRA:                  -0.996
REMARK UNBOUND:                -0.996
REMARK  Name = 
REMARK  7 active torsions:
REMARK  status: ('A' for Active; 'I' for Inactive)
REMARK    1  A    between atoms: C_2  and  C_21
REMARK    2  A    between atoms: N_3  and  C_4
REMARK    3  A    between atoms: C_4  and  C_5
REMARK    4  A    between atoms: C_8  and  C_9
REMARK    5  A    between atoms: C_10  and  C_11
REMARK    6  A    between atoms: C_11  and  O_12
REMARK    7  A    between atoms: C_11  and  C_13
REMARK                            x       y       z     vdW  Elec       q    Type
REMARK                         _______ _______ _______ _____ _____    ______ ____
ROOT
ATOM      1  C   UNL     1      47.896   6.736  14.303  0.00  0.00    +0.000 A 
ATOM      2  C   UNL     1      47.414   5.443  14.555  0.00  0.00    +0.000 A 
ATOM      3  C   UNL     1      46.661   4.762  13.595  0.00  0.00    +0.000 A 
ATOM      4  C   UNL     1      46.393   5.367  12.369  0.00  0.00    +0.000 A 
ATOM      5  C   UNL     1      46.888   6.646  12.098  0.00  0.00    +0.000 A 
ATOM      6  C   UNL     1      47.642   7.325  13.056  0.00  0.00    +0.000 A 
ENDROOT
BRANCH   4   7
ATOM      7  C   UNL     1      45.623   4.693  11.372  0.00  0.00    +0.000 C 
ATOM      8  C   UNL     1      45.051   4.142  10.470  0.00  0.00    +0.000 C 
BRANCH   8   9
ATOM      9  C   UNL     1      44.454   3.480   9.305  0.00  0.00    +0.000 C 
BRANCH   9  10
ATOM     10  C   UNL     1      45.513   2.816   8.442  0.00  0.00    +0.000 A 
ATOM     11  C   UNL     1      46.273   3.588   7.550  0.00  0.00    +0.000 A 
ATOM     12  C   UNL     1      47.243   2.994   6.742  0.00  0.00    +0.000 A 
ATOM     13  C   UNL     1      47.470   1.621   6.815  0.00  0.00    +0.000 A 
ATOM     14  C   UNL     1      46.718   0.838   7.688  0.00  0.00    +0.000 A 
ATOM     15  C   UNL     1      45.742   1.430   8.491  0.00  0.00    +0.000 A 
ENDBRANCH   9  10
BRANCH   9  16
ATOM     16  O   UNL     1      43.727   4.433   8.534  0.00  0.00    +0.000 OA
ATOM     17  H   UNL     1      43.022   4.779   9.105  0.00  0.00    +0.000 HD
ENDBRANCH   9  16
ENDBRANCH   8   9
ENDBRANCH   4   7
BRANCH   1  18
ATOM     18  C   UNL     1      48.696   7.462  15.353  0.00  0.00    +0.000 C 
BRANCH  18  21
ATOM     19  O   UNL     1      48.707   6.151  17.851  0.00  0.00    +0.000 OA
ATOM     20  C   UNL     1      49.653   5.992  17.087  0.00  0.00    +0.000 C 
ATOM     21  N   UNL     1      49.751   6.638  15.880  0.00  0.00    +0.000 N 
ATOM     22  H   UNL     1      50.444   6.323  15.212  0.00  0.00    +0.000 HD
BRANCH  20  23
ATOM     23  C   UNL     1      50.797   5.147  17.447  0.00  0.00    +0.000 A 
ATOM     24  C   UNL     1      51.971   5.722  17.913  0.00  0.00    +0.000 A 
ATOM     25  S   UNL     1      53.202   4.586  18.237  0.00  0.00    +0.000 S 
ATOM     26  C   UNL     1      52.190   3.284  17.812  0.00  0.00    +0.000 A 
ATOM     27  N   UNL     1      52.632   2.001  17.879  0.00  0.00    +0.000 NA
ATOM     28  C   UNL     1      51.745   1.114  17.572  0.00  0.00    +0.000 A 
ATOM     29  N   UNL     1      50.453   1.395  17.198  0.00  0.00    +0.000 N 
ATOM     30  C   UNL     1      49.988   2.678  17.042  0.00  0.00    +0.000 A 
ATOM     31  O   UNL     1      48.876   2.894  16.574  0.00  0.00    +0.000 OA
ATOM     32  C   UNL     1      50.936   3.713  17.414  0.00  0.00    +0.000 A 
ATOM     33  H   UNL     1      49.817   0.659  16.943  0.00  0.00    +0.000 HD
ENDBRANCH  20  23
ENDBRANCH  18  21
ENDBRANCH   1  18
TORSDOF 7
ENDMDL
MODEL 2
REMARK VINA RESULT:    -7.917      2.332      2.806
REMARK INTER + INTRA:         -11.922
REMARK INTER:                 -10.892
REMARK INTRA:                  -1.030
REMARK UNBOUND:                -0.996
REMARK  Name = 
REMARK  7 active torsions:
REMARK  status: ('A' for Active; 'I' for Inactive)
REMARK    1  A    between atoms: C_2  and  C_21
REMARK    2  A    between atoms: N_3  and  C_4
REMARK    3  A    between atoms: C_4  and  C_5
REMARK    4  A    between atoms: C_8  and  C_9
REMARK    5  A    between atoms: C_10  and  C_11
REMARK    6  A    between atoms: C_11  and  O_12
REMARK    7  A    between atoms: C_11  and  C_13
REMARK                            x       y       z     vdW  Elec       q    Type
REMARK                         _______ _______ _______ _____ _____    ______ ____
ROOT
ATOM      1  C   UNL     1      47.252   8.293  13.626  0.00  0.00    +0.000 A 
ATOM      2  C   UNL     1      46.096   8.605  12.896  0.00  0.00    +0.000 A 
ATOM      3  C   UNL     1      45.593   7.716  11.942  0.00  0.00    +0.000 A 
ATOM      4  C   UNL     1      46.239   6.502  11.719  0.00  0.00    +0.000 A 
ATOM      5  C   UNL     1      47.378   6.171  12.456  0.00  0.00    +0.000 A 
ATOM      6  C   UNL     1      47.879   7.057  13.411  0.00  0.00    +0.000 A 
ENDROOT
BRANCH   4   7
ATOM      7  C   UNL     1      45.747   5.578  10.747  0.00  0.00    +0.000 C 
ATOM      8  C   UNL     1      45.271   4.766  10.000  0.00  0.00    +0.000 C 
BRANCH   8   9
ATOM      9  C   UNL     1      44.612   3.748   9.174  0.00  0.00    +0.000 C 
BRANCH   9  10
ATOM     10  C   UNL     1      45.620   2.967   8.348  0.00  0.00    +0.000 A 
ATOM     11  C   UNL     1      46.383   3.625   7.371  0.00  0.00    +0.000 A 
ATOM     12  C   UNL     1      47.307   2.922   6.597  0.00  0.00    +0.000 A 
ATOM     13  C   UNL     1      47.483   1.553   6.788  0.00  0.00    +0.000 A 
ATOM     14  C   UNL     1      46.726   0.882   7.746  0.00  0.00    +0.000 A 
ATOM     15  C   UNL     1      45.797   1.582   8.516  0.00  0.00    +0.000 A 
ENDBRANCH   9  10
BRANCH   9  16
ATOM     16  O   UNL     1      43.661   4.371   8.315  0.00  0.00    +0.000 OA
ATOM     17  H   UNL     1      42.917   3.754   8.222  0.00  0.00    +0.000 HD
ENDBRANCH   9  16
ENDBRANCH   8   9
ENDBRANCH   4   7
BRANCH   1  18
ATOM     18  C   UNL     1      47.789   9.267  14.642  0.00  0.00    +0.000 C 
BRANCH  18  21
ATOM     19  O   UNL     1      50.198   8.499  15.893  0.00  0.00    +0.000 OA
ATOM     20  C   UNL     1      49.139   8.365  16.498  0.00  0.00    +0.000 C 
ATOM     21  N   UNL     1      47.921   8.660  15.940  0.00  0.00    +0.000 N 
ATOM     22  H   UNL     1      47.108   8.720  16.541  0.00  0.00    +0.000 HD
BRANCH  20  23
ATOM     23  C   UNL     1      49.095   7.803  17.853  0.00  0.00    +0.000 A 
ATOM     24  C   UNL     1      49.178   8.638  18.958  0.00  0.00    +0.000 A 
ATOM     25  S   UNL     1      49.156   7.801  20.445  0.00  0.00    +0.000 S 
ATOM     26  C   UNL     1      48.986   6.299  19.661  0.00  0.00    +0.000 A 
ATOM     27  N   UNL     1      48.892   5.144  20.371  0.00  0.00    +0.000 NA
ATOM     28  C   UNL     1      48.720   4.087  19.649  0.00  0.00    +0.000 A 
ATOM     29  N   UNL     1      48.638   4.079  18.278  0.00  0.00    +0.000 N 
ATOM     30  C   UNL     1      48.805   5.211  17.519  0.00  0.00    +0.000 A 
ATOM     31  O   UNL     1      48.865   5.148  16.296  0.00  0.00    +0.000 OA
ATOM     32  C   UNL     1      48.961   6.434  18.284  0.00  0.00    +0.000 A 
ATOM     33  H   UNL     1      48.532   3.217  17.771  0.00  0.00    +0.000 HD
ENDBRANCH  20  23
ENDBRANCH  18  21
ENDBRANCH   1  18
TORSDOF 7
ENDMDL
MODEL 3
REMARK VINA RESULT:    -6.779      2.158      3.366
REMARK INTER + INTRA:         -10.351
REMARK INTER:                  -9.297
REMARK INTRA:                  -1.054
REMARK UNBOUND:                -0.996
REMARK  Name = 
REMARK  7 active torsions:
REMARK  status: ('A' for Active; 'I' for Inactive)
REMARK    1  A    between atoms: C_2  and  C_21
REMARK    2  A    between atoms: N_3  and  C_4
REMARK    3  A    between atoms: C_4  and  C_5
REMARK    4  A    between atoms: C_8  and  C_9
REMARK    5  A    between atoms: C_10  and  C_11
REMARK    6  A    between atoms: C_11  and  O_12
REMARK    7  A    between atoms: C_11  and  C_13
REMARK                            x       y       z     vdW  Elec       q    Type
REMARK                         _______ _______ _______ _____ _____    ______ ____
ROOT
ATOM      1  C   UNL     1      48.705   4.336  16.925  0.00  0.00    +0.000 A 
ATOM      2  C   UNL     1      47.775   3.430  16.396  0.00  0.00    +0.000 A 
ATOM      3  C   UNL     1      46.992   3.774  15.291  0.00  0.00    +0.000 A 
ATOM      4  C   UNL     1      47.143   5.026  14.699  0.00  0.00    +0.000 A 
ATOM      5  C   UNL     1      48.082   5.929  15.204  0.00  0.00    +0.000 A 
ATOM      6  C   UNL     1      48.866   5.584  16.306  0.00  0.00    +0.000 A 
ENDROOT
BRANCH   4   7
ATOM      7  C   UNL     1      46.352   5.403  13.570  0.00  0.00    +0.000 C 
ATOM      8  C   UNL     1      45.639   5.634  12.631  0.00  0.00    +0.000 C 
BRANCH   8   9
ATOM      9  C   UNL     1      44.707   5.816  11.512  0.00  0.00    +0.000 C 
BRANCH   9  10
ATOM     10  C   UNL     1      44.920   4.763  10.438  0.00  0.00    +0.000 A 
ATOM     11  C   UNL     1      44.465   3.452  10.645  0.00  0.00    +0.000 A 
ATOM     12  C   UNL     1      44.661   2.469   9.674  0.00  0.00    +0.000 A 
ATOM     13  C   UNL     1      45.312   2.782   8.482  0.00  0.00    +0.000 A 
ATOM     14  C   UNL     1      45.779   4.076   8.265  0.00  0.00    +0.000 A 
ATOM     15  C   UNL     1      45.591   5.058   9.238  0.00  0.00    +0.000 A 
ENDBRANCH   9  10
BRANCH   9  16
ATOM     16  O   UNL     1      44.876   7.117  10.956  0.00  0.00    +0.000 OA
ATOM     17  H   UNL     1      44.026   7.577  11.049  0.00  0.00    +0.000 HD
ENDBRANCH   9  16
ENDBRANCH   8   9
ENDBRANCH   4   7
BRANCH   1  18
ATOM     18  C   UNL     1      49.533   3.956  18.125  0.00  0.00    +0.000 C 
BRANCH  18  21
ATOM     19  O   UNL     1      51.913   4.477  19.546  0.00  0.00    +0.000 OA
ATOM     20  C   UNL     1      51.961   3.799  18.525  0.00  0.00    +0.000 C 
ATOM     21  N   UNL     1      50.860   3.548  17.746  0.00  0.00    +0.000 N 
ATOM     22  H   UNL     1      50.917   2.829  17.035  0.00  0.00    +0.000 HD
BRANCH  20  23
ATOM     23  C   UNL     1      53.229   3.263  18.019  0.00  0.00    +0.000 A 
ATOM     24  C   UNL     1      54.316   4.105  17.828  0.00  0.00    +0.000 A 
ATOM     25  S   UNL     1      55.686   3.312  17.191  0.00  0.00    +0.000 S 
ATOM     26  C   UNL     1      54.888   1.808  17.197  0.00  0.00    +0.000 A 
ATOM     27  N   UNL     1      55.516   0.678  16.776  0.00  0.00    +0.000 NA
ATOM     28  C   UNL     1      54.807  -0.396  16.878  0.00  0.00    +0.000 A 
ATOM     29  N   UNL     1      53.522  -0.443  17.359  0.00  0.00    +0.000 N 
ATOM     30  C   UNL     1      52.823   0.682  17.721  0.00  0.00    +0.000 A 
ATOM     31  O   UNL     1      51.634   0.621  18.013  0.00  0.00    +0.000 OA
ATOM     32  C   UNL     1      53.590   1.913  17.663  0.00  0.00    +0.000 A 
ATOM     33  H   UNL     1      53.011  -1.309  17.386  0.00  0.00    +0.000 HD
ENDBRANCH  20  23
ENDBRANCH  18  21
ENDBRANCH   1  18
TORSDOF 7
ENDMDL
MODEL 4
REMARK VINA RESULT:    -6.525      5.733      8.497
REMARK INTER + INTRA:         -10.001
REMARK INTER:                  -8.986
REMARK INTRA:                  -1.015
REMARK UNBOUND:                -0.996
REMARK  Name = 
REMARK  7 active torsions:
REMARK  status: ('A' for Active; 'I' for Inactive)
REMARK    1  A    between atoms: C_2  and  C_21
REMARK    2  A    between atoms: N_3  and  C_4
REMARK    3  A    between atoms: C_4  and  C_5
REMARK    4  A    between atoms: C_8  and  C_9
REMARK    5  A    between atoms: C_10  and  C_11
REMARK    6  A    between atoms: C_11  and  O_12
REMARK    7  A    between atoms: C_11  and  C_13
REMARK                            x       y       z     vdW  Elec       q    Type
REMARK                         _______ _______ _______ _____ _____    ______ ____
ROOT
ATOM      1  C   UNL     1      47.632   8.307  12.537  0.00  0.00    +0.000 A 
ATOM      2  C   UNL     1      48.520   7.226  12.440  0.00  0.00    +0.000 A 
ATOM      3  C   UNL     1      49.793   7.396  11.889  0.00  0.00    +0.000 A 
ATOM      4  C   UNL     1      50.191   8.653  11.440  0.00  0.00    +0.000 A 
ATOM      5  C   UNL     1      49.323   9.742  11.553  0.00  0.00    +0.000 A 
ATOM      6  C   UNL     1      48.052   9.573  12.105  0.00  0.00    +0.000 A 
ENDROOT
BRANCH   4   7
ATOM      7  C   UNL     1      51.486   8.852  10.871  0.00  0.00    +0.000 C 
ATOM      8  C   UNL     1      52.575   8.923  10.368  0.00  0.00    +0.000 C 
BRANCH   8   9
ATOM      9  C   UNL     1      53.892   8.895   9.720  0.00  0.00    +0.000 C 
BRANCH   9  10
ATOM     10  C   UNL     1      54.026   7.699   8.792  0.00  0.00    +0.000 A 
ATOM     11  C   UNL     1      55.288   7.132   8.560  0.00  0.00    +0.000 A 
ATOM     12  C   UNL     1      55.432   6.041   7.703  0.00  0.00    +0.000 A 
ATOM     13  C   UNL     1      54.317   5.499   7.067  0.00  0.00    +0.000 A 
ATOM     14  C   UNL     1      53.057   6.055   7.278  0.00  0.00    +0.000 A 
ATOM     15  C   UNL     1      52.913   7.152   8.130  0.00  0.00    +0.000 A 
ENDBRANCH   9  10
BRANCH   9  16
ATOM     16  O   UNL     1      54.912   8.855  10.713  0.00  0.00    +0.000 OA
ATOM     17  H   UNL     1      54.996   9.755  11.069  0.00  0.00    +0.000 HD
ENDBRANCH   9  16
ENDBRANCH   8   9
ENDBRANCH   4   7
BRANCH   1  18
ATOM     18  C   UNL     1      46.258   8.105  13.122  0.00  0.00    +0.000 C 
BRANCH  18  21
ATOM     19  O   UNL     1      44.502   7.486  11.003  0.00  0.00    +0.000 OA
ATOM     20  C   UNL     1      44.920   6.581  11.719  0.00  0.00    +0.000 C 
ATOM     21  N   UNL     1      45.730   6.806  12.803  0.00  0.00    +0.000 N 
ATOM     22  H   UNL     1      46.201   6.019  13.233  0.00  0.00    +0.000 HD
BRANCH  20  23
ATOM     23  C   UNL     1      44.518   5.187  11.506  0.00  0.00    +0.000 A 
ATOM     24  C   UNL     1      43.768   4.522  12.467  0.00  0.00    +0.000 A 
ATOM     25  S   UNL     1      43.436   2.898  12.065  0.00  0.00    +0.000 S 
ATOM     26  C   UNL     1      44.241   3.044  10.572  0.00  0.00    +0.000 A 
ATOM     27  N   UNL     1      44.317   1.995   9.710  0.00  0.00    +0.000 NA
ATOM     28  C   UNL     1      44.916   2.262   8.598  0.00  0.00    +0.000 A 
ATOM     29  N   UNL     1      45.452   3.483   8.269  0.00  0.00    +0.000 N 
ATOM     30  C   UNL     1      45.466   4.545   9.139  0.00  0.00    +0.000 A 
ATOM     31  O   UNL     1      46.074   5.575   8.869  0.00  0.00    +0.000 OA
ATOM     32  C   UNL     1      44.769   4.310  10.390  0.00  0.00    +0.000 A 
ATOM     33  H   UNL     1      45.932   3.619   7.396  0.00  0.00    +0.000 HD
ENDBRANCH  20  23
ENDBRANCH  18  21
ENDBRANCH   1  18
TORSDOF 7
ENDMDL
MODEL 5
REMARK VINA RESULT:    -6.298      2.395      3.158
REMARK INTER + INTRA:          -9.688
REMARK INTER:                  -8.560
REMARK INTRA:                  -1.128
REMARK UNBOUND:                -0.996
REMARK  Name = 
REMARK  7 active torsions:
REMARK  status: ('A' for Active; 'I' for Inactive)
REMARK    1  A    between atoms: C_2  and  C_21
REMARK    2  A    between atoms: N_3  and  C_4
REMARK    3  A    between atoms: C_4  and  C_5
REMARK    4  A    between atoms: C_8  and  C_9
REMARK    5  A    between atoms: C_10  and  C_11
REMARK    6  A    between atoms: C_11  and  O_12
REMARK    7  A    between atoms: C_11  and  C_13
REMARK                            x       y       z     vdW  Elec       q    Type
REMARK                         _______ _______ _______ _____ _____    ______ ____
ROOT
ATOM      1  C   UNL     1      50.516   8.010  13.556  0.00  0.00    +0.000 A 
ATOM      2  C   UNL     1      49.576   7.441  14.428  0.00  0.00    +0.000 A 
ATOM      3  C   UNL     1      48.358   6.955  13.945  0.00  0.00    +0.000 A 
ATOM      4  C   UNL     1      48.076   7.025  12.582  0.00  0.00    +0.000 A 
ATOM      5  C   UNL     1      49.015   7.569  11.701  0.00  0.00    +0.000 A 
ATOM      6  C   UNL     1      50.232   8.052  12.183  0.00  0.00    +0.000 A 
ENDROOT
BRANCH   4   7
ATOM      7  C   UNL     1      46.837   6.538  12.064  0.00  0.00    +0.000 C 
ATOM      8  C   UNL     1      45.816   6.042  11.670  0.00  0.00    +0.000 C 
BRANCH   8   9
ATOM      9  C   UNL     1      44.597   5.338  11.255  0.00  0.00    +0.000 C 
BRANCH   9  10
ATOM     10  C   UNL     1      44.887   4.330  10.156  0.00  0.00    +0.000 A 
ATOM     11  C   UNL     1      45.555   4.739   8.991  0.00  0.00    +0.000 A 
ATOM     12  C   UNL     1      45.821   3.830   7.967  0.00  0.00    +0.000 A 
ATOM     13  C   UNL     1      45.426   2.499   8.091  0.00  0.00    +0.000 A 
ATOM     14  C   UNL     1      44.753   2.079   9.236  0.00  0.00    +0.000 A 
ATOM     15  C   UNL     1      44.479   2.989  10.258  0.00  0.00    +0.000 A 
ENDBRANCH   9  10
BRANCH   9  16
ATOM     16  O   UNL     1      43.630   6.282  10.805  0.00  0.00    +0.000 OA
ATOM     17  H   UNL     1      42.758   5.937  11.059  0.00  0.00    +0.000 HD
ENDBRANCH   9  16
ENDBRANCH   8   9
ENDBRANCH   4   7
BRANCH   1  18
ATOM     18  C   UNL     1      51.820   8.540  14.093  0.00  0.00    +0.000 C 
BRANCH  18  21
ATOM     19  O   UNL     1      53.901   6.847  14.966  0.00  0.00    +0.000 OA
ATOM     20  C   UNL     1      53.125   7.319  15.792  0.00  0.00    +0.000 C 
ATOM     21  N   UNL     1      52.055   8.103  15.443  0.00  0.00    +0.000 N 
ATOM     22  H   UNL     1      51.572   8.621  16.167  0.00  0.00    +0.000 HD
BRANCH  20  23
ATOM     23  C   UNL     1      53.248   7.012  17.221  0.00  0.00    +0.000 A 
ATOM     24  C   UNL     1      54.301   7.534  17.959  0.00  0.00    +0.000 A 
ATOM     25  S   UNL     1      54.302   7.032  19.590  0.00  0.00    +0.000 S 
ATOM     26  C   UNL     1      52.867   6.141  19.374  0.00  0.00    +0.000 A 
ATOM     27  N   UNL     1      52.302   5.460  20.407  0.00  0.00    +0.000 NA
ATOM     28  C   UNL     1      51.194   4.868  20.112  0.00  0.00    +0.000 A 
ATOM     29  N   UNL     1      50.600   4.888  18.874  0.00  0.00    +0.000 N 
ATOM     30  C   UNL     1      51.174   5.497  17.785  0.00  0.00    +0.000 A 
ATOM     31  O   UNL     1      50.689   5.378  16.666  0.00  0.00    +0.000 OA
ATOM     32  C   UNL     1      52.404   6.213  18.073  0.00  0.00    +0.000 A 
ATOM     33  H   UNL     1      49.749   4.381  18.700  0.00  0.00    +0.000 HD
ENDBRANCH  20  23
ENDBRANCH  18  21
ENDBRANCH   1  18
TORSDOF 7
ENDMDL
MODEL 6
REMARK VINA RESULT:    -6.282      2.212      3.227
REMARK INTER + INTRA:          -9.665
REMARK INTER:                  -8.605
REMARK INTRA:                  -1.060
REMARK UNBOUND:                -0.996
REMARK  Name = 
REMARK  7 active torsions:
REMARK  status: ('A' for Active; 'I' for Inactive)
REMARK    1  A    between atoms: C_2  and  C_21
REMARK    2  A    between atoms: N_3  and  C_4
REMARK    3  A    between atoms: C_4  and  C_5
REMARK    4  A    between atoms: C_8  and  C_9
REMARK    5  A    between atoms: C_10  and  C_11
REMARK    6  A    between atoms: C_11  and  O_12
REMARK    7  A    between atoms: C_11  and  C_13
REMARK                            x       y       z     vdW  Elec       q    Type
REMARK                         _______ _______ _______ _____ _____    ______ ____
ROOT
ATOM      1  C   UNL     1      50.580   7.576  15.189  0.00  0.00    +0.000 A 
ATOM      2  C   UNL     1      49.444   6.858  15.590  0.00  0.00    +0.000 A 
ATOM      3  C   UNL     1      48.393   6.629  14.698  0.00  0.00    +0.000 A 
ATOM      4  C   UNL     1      48.477   7.108  13.392  0.00  0.00    +0.000 A 
ATOM      5  C   UNL     1      49.614   7.805  12.975  0.00  0.00    +0.000 A 
ATOM      6  C   UNL     1      50.665   8.032  13.865  0.00  0.00    +0.000 A 
ENDROOT
BRANCH   4   7
ATOM      7  C   UNL     1      47.415   6.890  12.462  0.00  0.00    +0.000 C 
ATOM      8  C   UNL     1      46.568   6.623  11.653  0.00  0.00    +0.000 C 
BRANCH   8   9
ATOM      9  C   UNL     1      45.589   6.191  10.649  0.00  0.00    +0.000 C 
BRANCH   9  10
ATOM     10  C   UNL     1      44.806   4.979  11.125  0.00  0.00    +0.000 A 
ATOM     11  C   UNL     1      44.554   3.918  10.242  0.00  0.00    +0.000 A 
ATOM     12  C   UNL     1      43.827   2.802  10.659  0.00  0.00    +0.000 A 
ATOM     13  C   UNL     1      43.344   2.729  11.964  0.00  0.00    +0.000 A 
ATOM     14  C   UNL     1      43.577   3.778  12.851  0.00  0.00    +0.000 A 
ATOM     15  C   UNL     1      44.296   4.898  12.433  0.00  0.00    +0.000 A 
ENDBRANCH   9  10
BRANCH   9  16
ATOM     16  O   UNL     1      46.258   5.887   9.428  0.00  0.00    +0.000 OA
ATOM     17  H   UNL     1      45.592   5.523   8.823  0.00  0.00    +0.000 HD
ENDBRANCH   9  16
ENDBRANCH   8   9
ENDBRANCH   4   7
BRANCH   1  18
ATOM     18  C   UNL     1      51.700   7.825  16.166  0.00  0.00    +0.000 C 
BRANCH  18  21
ATOM     19  O   UNL     1      51.297   6.578  18.664  0.00  0.00    +0.000 OA
ATOM     20  C   UNL     1      52.006   6.029  17.828  0.00  0.00    +0.000 C 
ATOM     21  N   UNL     1      52.298   6.595  16.613  0.00  0.00    +0.000 N 
ATOM     22  H   UNL     1      52.719   6.020  15.893  0.00  0.00    +0.000 HD
BRANCH  20  23
ATOM     23  C   UNL     1      52.661   4.745  18.101  0.00  0.00    +0.000 A 
ATOM     24  C   UNL     1      53.942   4.714  18.633  0.00  0.00    +0.000 A 
ATOM     25  S   UNL     1      54.554   3.134  18.839  0.00  0.00    +0.000 S 
ATOM     26  C   UNL     1      53.107   2.440  18.270  0.00  0.00    +0.000 A 
ATOM     27  N   UNL     1      52.956   1.090  18.201  0.00  0.00    +0.000 NA
ATOM     28  C   UNL     1      51.793   0.704  17.795  0.00  0.00    +0.000 A 
ATOM     29  N   UNL     1      50.766   1.545  17.446  0.00  0.00    +0.000 N 
ATOM     30  C   UNL     1      50.900   2.912  17.428  0.00  0.00    +0.000 A 
ATOM     31  O   UNL     1      50.011   3.628  16.979  0.00  0.00    +0.000 OA
ATOM     32  C   UNL     1      52.177   3.400  17.914  0.00  0.00    +0.000 A 
ATOM     33  H   UNL     1      49.890   1.182  17.110  0.00  0.00    +0.000 HD
ENDBRANCH  20  23
ENDBRANCH  18  21
ENDBRANCH   1  18
TORSDOF 7
ENDMDL
MODEL 7
REMARK VINA RESULT:    -6.208      2.153      3.826
REMARK INTER + INTRA:          -9.563
REMARK INTER:                  -8.321
REMARK INTRA:                  -1.243
REMARK UNBOUND:                -0.996
REMARK  Name = 
REMARK  7 active torsions:
REMARK  status: ('A' for Active; 'I' for Inactive)
REMARK    1  A    between atoms: C_2  and  C_21
REMARK    2  A    between atoms: N_3  and  C_4
REMARK    3  A    between atoms: C_4  and  C_5
REMARK    4  A    between atoms: C_8  and  C_9
REMARK    5  A    between atoms: C_10  and  C_11
REMARK    6  A    between atoms: C_11  and  O_12
REMARK    7  A    between atoms: C_11  and  C_13
REMARK                            x       y       z     vdW  Elec       q    Type
REMARK                         _______ _______ _______ _____ _____    ______ ____
ROOT
ATOM      1  C   UNL     1      48.415   3.774  17.013  0.00  0.00    +0.000 A 
ATOM      2  C   UNL     1      47.973   2.854  16.051  0.00  0.00    +0.000 A 
ATOM      3  C   UNL     1      47.303   3.289  14.904  0.00  0.00    +0.000 A 
ATOM      4  C   UNL     1      47.081   4.650  14.705  0.00  0.00    +0.000 A 
ATOM      5  C   UNL     1      47.537   5.576  15.646  0.00  0.00    +0.000 A 
ATOM      6  C   UNL     1      48.208   5.143  16.791  0.00  0.00    +0.000 A 
ENDROOT
BRANCH   4   7
ATOM      7  C   UNL     1      46.396   5.119  13.543  0.00  0.00    +0.000 C 
ATOM      8  C   UNL     1      45.763   5.432  12.570  0.00  0.00    +0.000 C 
BRANCH   8   9
ATOM      9  C   UNL     1      44.919   5.720  11.405  0.00  0.00    +0.000 C 
BRANCH   9  10
ATOM     10  C   UNL     1      45.067   4.650  10.337  0.00  0.00    +0.000 A 
ATOM     11  C   UNL     1      44.629   3.341  10.593  0.00  0.00    +0.000 A 
ATOM     12  C   UNL     1      44.766   2.343   9.628  0.00  0.00    +0.000 A 
ATOM     13  C   UNL     1      45.340   2.637   8.393  0.00  0.00    +0.000 A 
ATOM     14  C   UNL     1      45.790   3.928   8.126  0.00  0.00    +0.000 A 
ATOM     15  C   UNL     1      45.660   4.926   9.093  0.00  0.00    +0.000 A 
ENDBRANCH   9  10
BRANCH   9  16
ATOM     16  O   UNL     1      45.266   6.993  10.867  0.00  0.00    +0.000 OA
ATOM     17  H   UNL     1      45.600   6.839   9.968  0.00  0.00    +0.000 HD
ENDBRANCH   9  16
ENDBRANCH   8   9
ENDBRANCH   4   7
BRANCH   1  18
ATOM     18  C   UNL     1      49.124   3.290  18.250  0.00  0.00    +0.000 C 
BRANCH  18  21
ATOM     19  O   UNL     1      51.433   1.988  17.284  0.00  0.00    +0.000 OA
ATOM     20  C   UNL     1      51.537   3.108  17.773  0.00  0.00    +0.000 C 
ATOM     21  N   UNL     1      50.474   3.784  18.316  0.00  0.00    +0.000 N 
ATOM     22  H   UNL     1      50.575   4.770  18.522  0.00  0.00    +0.000 HD
BRANCH  20  23
ATOM     23  C   UNL     1      52.836   3.781  17.878  0.00  0.00    +0.000 A 
ATOM     24  C   UNL     1      53.897   3.156  18.518  0.00  0.00    +0.000 A 
ATOM     25  S   UNL     1      55.310   4.110  18.582  0.00  0.00    +0.000 S 
ATOM     26  C   UNL     1      54.565   5.370  17.713  0.00  0.00    +0.000 A 
ATOM     27  N   UNL     1      55.244   6.508  17.406  0.00  0.00    +0.000 NA
ATOM     28  C   UNL     1      54.571   7.358  16.705  0.00  0.00    +0.000 A 
ATOM     29  N   UNL     1      53.276   7.177  16.285  0.00  0.00    +0.000 N 
ATOM     30  C   UNL     1      52.529   6.079  16.637  0.00  0.00    +0.000 A 
ATOM     31  O   UNL     1      51.336   6.013  16.364  0.00  0.00    +0.000 OA
ATOM     32  C   UNL     1      53.253   5.073  17.393  0.00  0.00    +0.000 A 
ATOM     33  H   UNL     1      52.796   7.890  15.765  0.00  0.00    +0.000 HD
ENDBRANCH  20  23
ENDBRANCH  18  21
ENDBRANCH   1  18
TORSDOF 7
ENDMDL
MODEL 8
REMARK VINA RESULT:    -5.669      4.877      9.663
REMARK INTER + INTRA:          -8.820
REMARK INTER:                  -7.814
REMARK INTRA:                  -1.006
REMARK UNBOUND:                -0.996
REMARK  Name = 
REMARK  7 active torsions:
REMARK  status: ('A' for Active; 'I' for Inactive)
REMARK    1  A    between atoms: C_2  and  C_21
REMARK    2  A    between atoms: N_3  and  C_4
REMARK    3  A    between atoms: C_4  and  C_5
REMARK    4  A    between atoms: C_8  and  C_9
REMARK    5  A    between atoms: C_10  and  C_11
REMARK    6  A    between atoms: C_11  and  O_12
REMARK    7  A    between atoms: C_11  and  C_13
REMARK                            x       y       z     vdW  Elec       q    Type
REMARK                         _______ _______ _______ _____ _____    ______ ____
ROOT
ATOM      1  C   UNL     1      47.567   8.173  13.121  0.00  0.00    +0.000 A 
ATOM      2  C   UNL     1      48.275   7.885  11.945  0.00  0.00    +0.000 A 
ATOM      3  C   UNL     1      49.669   7.982  11.910  0.00  0.00    +0.000 A 
ATOM      4  C   UNL     1      50.366   8.359  13.056  0.00  0.00    +0.000 A 
ATOM      5  C   UNL     1      49.672   8.626  14.239  0.00  0.00    +0.000 A 
ATOM      6  C   UNL     1      48.280   8.527  14.276  0.00  0.00    +0.000 A 
ENDROOT
BRANCH   4   7
ATOM      7  C   UNL     1      51.790   8.469  13.045  0.00  0.00    +0.000 C 
ATOM      8  C   UNL     1      52.990   8.485  13.099  0.00  0.00    +0.000 C 
BRANCH   8   9
ATOM      9  C   UNL     1      54.450   8.403  13.230  0.00  0.00    +0.000 C 
BRANCH   9  10
ATOM     10  C   UNL     1      54.852   7.783  14.557  0.00  0.00    +0.000 A 
ATOM     11  C   UNL     1      54.718   6.400  14.753  0.00  0.00    +0.000 A 
ATOM     12  C   UNL     1      55.072   5.815  15.969  0.00  0.00    +0.000 A 
ATOM     13  C   UNL     1      55.568   6.603  17.006  0.00  0.00    +0.000 A 
ATOM     14  C   UNL     1      55.699   7.979  16.833  0.00  0.00    +0.000 A 
ATOM     15  C   UNL     1      55.337   8.566  15.620  0.00  0.00    +0.000 A 
ENDBRANCH   9  10
BRANCH   9  16
ATOM     16  O   UNL     1      55.014   9.706  13.112  0.00  0.00    +0.000 OA
ATOM     17  H   UNL     1      54.315  10.339  13.343  0.00  0.00    +0.000 HD
ENDBRANCH   9  16
ENDBRANCH   8   9
ENDBRANCH   4   7
BRANCH   1  18
ATOM     18  C   UNL     1      46.064   8.075  13.140  0.00  0.00    +0.000 C 
BRANCH  18  21
ATOM     19  O   UNL     1      44.133   7.491  11.168  0.00  0.00    +0.000 OA
ATOM     20  C   UNL     1      44.703   6.568  11.741  0.00  0.00    +0.000 C 
ATOM     21  N   UNL     1      45.612   6.766  12.750  0.00  0.00    +0.000 N 
ATOM     22  H   UNL     1      46.191   5.991  13.046  0.00  0.00    +0.000 HD
BRANCH  20  23
ATOM     23  C   UNL     1      44.396   5.167  11.432  0.00  0.00    +0.000 A 
ATOM     24  C   UNL     1      43.601   4.421  12.292  0.00  0.00    +0.000 A 
ATOM     25  S   UNL     1      43.392   2.804  11.791  0.00  0.00    +0.000 S 
ATOM     26  C   UNL     1      44.316   3.060  10.384  0.00  0.00    +0.000 A 
ATOM     27  N   UNL     1      44.522   2.059   9.488  0.00  0.00    +0.000 NA
ATOM     28  C   UNL     1      45.201   2.408   8.447  0.00  0.00    +0.000 A 
ATOM     29  N   UNL     1      45.699   3.668   8.221  0.00  0.00    +0.000 N 
ATOM     30  C   UNL     1      45.580   4.687   9.134  0.00  0.00    +0.000 A 
ATOM     31  O   UNL     1      46.154   5.757   8.965  0.00  0.00    +0.000 OA
ATOM     32  C   UNL     1      44.789   4.358  10.306  0.00  0.00    +0.000 A 
ATOM     33  H   UNL     1      46.246   3.869   7.402  0.00  0.00    +0.000 HD
ENDBRANCH  20  23
ENDBRANCH  18  21
ENDBRANCH   1  18
TORSDOF 7
ENDMDL
MODEL 9
REMARK VINA RESULT:    -5.589      2.729      3.609
REMARK INTER + INTRA:          -8.710
REMARK INTER:                  -7.571
REMARK INTRA:                  -1.139
REMARK UNBOUND:                -0.996
REMARK  Name = 
REMARK  7 active torsions:
REMARK  status: ('A' for Active; 'I' for Inactive)
REMARK    1  A    between atoms: C_2  and  C_21
REMARK    2  A    between atoms: N_3  and  C_4
REMARK    3  A    between atoms: C_4  and  C_5
REMARK    4  A    between atoms: C_8  and  C_9
REMARK    5  A    between atoms: C_10  and  C_11
REMARK    6  A    between atoms: C_11  and  O_12
REMARK    7  A    between atoms: C_11  and  C_13
REMARK                            x       y       z     vdW  Elec       q    Type
REMARK                         _______ _______ _______ _____ _____    ______ ____
ROOT
ATOM      1  C   UNL     1      50.297   7.955  14.337  0.00  0.00    +0.000 A 
ATOM      2  C   UNL     1      49.063   7.521  14.843  0.00  0.00    +0.000 A 
ATOM      3  C   UNL     1      48.026   7.159  13.979  0.00  0.00    +0.000 A 
ATOM      4  C   UNL     1      48.220   7.216  12.601  0.00  0.00    +0.000 A 
ATOM      5  C   UNL     1      49.453   7.625  12.086  0.00  0.00    +0.000 A 
ATOM      6  C   UNL     1      50.490   7.985  12.948  0.00  0.00    +0.000 A 
ENDROOT
BRANCH   4   7
ATOM      7  C   UNL     1      47.175   6.854  11.697  0.00  0.00    +0.000 C 
ATOM      8  C   UNL     1      46.324   6.454  10.949  0.00  0.00    +0.000 C 
BRANCH   8   9
ATOM      9  C   UNL     1      45.319   5.854  10.064  0.00  0.00    +0.000 C 
BRANCH   9  10
ATOM     10  C   UNL     1      44.633   4.672  10.728  0.00  0.00    +0.000 A 
ATOM     11  C   UNL     1      44.120   4.801  12.027  0.00  0.00    +0.000 A 
ATOM     12  C   UNL     1      43.496   3.722  12.656  0.00  0.00    +0.000 A 
ATOM     13  C   UNL     1      43.374   2.502  11.996  0.00  0.00    +0.000 A 
ATOM     14  C   UNL     1      43.886   2.354  10.709  0.00  0.00    +0.000 A 
ATOM     15  C   UNL     1      44.517   3.429  10.081  0.00  0.00    +0.000 A 
ENDBRANCH   9  10
BRANCH   9  16
ATOM     16  O   UNL     1      45.938   5.437   8.850  0.00  0.00    +0.000 OA
ATOM     17  H   UNL     1      45.249   5.012   8.313  0.00  0.00    +0.000 HD
ENDBRANCH   9  16
ENDBRANCH   8   9
ENDBRANCH   4   7
BRANCH   1  18
ATOM     18  C   UNL     1      51.402   8.355  15.280  0.00  0.00    +0.000 C 
BRANCH  18  21
ATOM     19  O   UNL     1      52.760   6.134  16.367  0.00  0.00    +0.000 OA
ATOM     20  C   UNL     1      51.952   6.742  17.062  0.00  0.00    +0.000 C 
ATOM     21  N   UNL     1      51.209   7.795  16.591  0.00  0.00    +0.000 N 
ATOM     22  H   UNL     1      50.711   8.377  17.253  0.00  0.00    +0.000 HD
BRANCH  20  23
ATOM     23  C   UNL     1      51.666   6.332  18.441  0.00  0.00    +0.000 A 
ATOM     24  C   UNL     1      52.564   6.628  19.458  0.00  0.00    +0.000 A 
ATOM     25  S   UNL     1      52.083   6.033  20.983  0.00  0.00    +0.000 S 
ATOM     26  C   UNL     1      50.636   5.404  20.344  0.00  0.00    +0.000 A 
ATOM     27  N   UNL     1      49.738   4.763  21.139  0.00  0.00    +0.000 NA
ATOM     28  C   UNL     1      48.666   4.380  20.530  0.00  0.00    +0.000 A 
ATOM     29  N   UNL     1      48.411   4.573  19.194  0.00  0.00    +0.000 N 
ATOM     30  C   UNL     1      49.322   5.146  18.341  0.00  0.00    +0.000 A 
ATOM     31  O   UNL     1      49.121   5.177  17.132  0.00  0.00    +0.000 OA
ATOM     32  C   UNL     1      50.529   5.631  18.984  0.00  0.00    +0.000 A 
ATOM     33  H   UNL     1      47.567   4.225  18.773  0.00  0.00    +0.000 HD
ENDBRANCH  20  23
ENDBRANCH  18  21
ENDBRANCH   1  18
TORSDOF 7
ENDMDL
