MODEL 1
REMARK VINA RESULT:    -7.967      0.000      0.000
REMARK INTER + INTRA:         -12.014
REMARK INTER:                 -10.762
REMARK INTRA:                  -1.252
REMARK UNBOUND:                -1.252
REMARK  Name = 
REMARK  7 active torsions:
REMARK  status: ('A' for Active; 'I' for Inactive)
REMARK    1  A    between atoms: C_1  and  C_2
REMARK    2  A    between atoms: C_2  and  N_3
REMARK    3  A    between atoms: C_2  and  C_16
REMARK    4  A    between atoms: C_4  and  C_6
REMARK    5  A    between atoms: C_19  and  C_20
REMARK    6  A    between atoms: C_20  and  N_21
REMARK    7  A    between atoms: C_22  and  C_24
REMARK                            x       y       z     vdW  Elec       q    Type
REMARK                         _______ _______ _______ _____ _____    ______ ____
ROOT
ATOM      1  C   UNL     1      48.193   8.362  12.861  0.00  0.00    +0.000 C 
ATOM      2  C   UNL     1      47.542   7.400  13.858  0.00  0.00    +0.000 C 
ENDROOT
BRANCH   2   3
ATOM      3  C   UNL     1      46.637   6.364  13.205  0.00  0.00    +0.000 A 
ATOM      4  C   UNL     1      46.668   5.027  13.639  0.00  0.00    +0.000 A 
ATOM      5  C   UNL     1      45.892   4.046  13.004  0.00  0.00    +0.000 A 
ATOM      6  C   UNL     1      45.092   4.376  11.903  0.00  0.00    +0.000 A 
ATOM      7  C   UNL     1      45.026   5.714  11.500  0.00  0.00    +0.000 A 
ATOM      8  C   UNL     1      45.793   6.690  12.136  0.00  0.00    +0.000 A 
BRANCH   6   9
ATOM      9  C   UNL     1      44.321   3.332  11.137  0.00  0.00    +0.000 C 
BRANCH   9  10
ATOM     10  N   UNL     1      45.127   2.704  10.132  0.00  0.00    +0.000 N 
ATOM     11  C   UNL     1      45.134   3.160   8.832  0.00  0.00    +0.000 C 
ATOM     12  O   UNL     1      44.448   4.100   8.453  0.00  0.00    +0.000 OA
ATOM     13  H   UNL     1      45.768   1.976  10.415  0.00  0.00    +0.000 HD
BRANCH  11  14
ATOM     14  C   UNL     1      46.022   2.436   7.954  0.00  0.00    +0.000 A 
ATOM     15  C   UNL     1      46.804   2.815   6.884  0.00  0.00    +0.000 A 
ATOM     16  C   UNL     1      47.429   1.635   6.448  0.00  0.00    +0.000 A 
ATOM     17  N   UNL     1      47.084   0.578   7.181  0.00  0.00    +0.000 NA
ATOM     18  N   UNL     1      46.234   1.088   8.093  0.00  0.00    +0.000 N 
ATOM     19  H   UNL     1      45.826   0.468   8.785  0.00  0.00    +0.000 HD
ENDBRANCH  11  14
ENDBRANCH   9  10
ENDBRANCH   6   9
ENDBRANCH   2   3
BRANCH   2  20
ATOM     20  N   UNL     1      48.569   6.730  14.638  0.00  0.00    +0.000 N 
ATOM     21  C   UNL     1      48.978   7.225  15.857  0.00  0.00    +0.000 C 
ATOM     22  O   UNL     1      48.490   8.229  16.362  0.00  0.00    +0.000 OA
ATOM     23  H   UNL     1      49.141   6.037  14.177  0.00  0.00    +0.000 HD
BRANCH  21  24
ATOM     24  C   UNL     1      49.990   6.428  16.546  0.00  0.00    +0.000 A 
ATOM     25  C   UNL     1      51.294   6.847  16.763  0.00  0.00    +0.000 A 
ATOM     26  S   UNL     1      52.301   5.605  17.374  0.00  0.00    +0.000 S 
ATOM     27  C   UNL     1      51.021   4.481  17.362  0.00  0.00    +0.000 A 
ATOM     28  N   UNL     1      51.216   3.175  17.688  0.00  0.00    +0.000 NA
ATOM     29  C   UNL     1      50.151   2.445  17.601  0.00  0.00    +0.000 A 
ATOM     30  N   UNL     1      48.905   2.911  17.263  0.00  0.00    +0.000 N 
ATOM     31  C   UNL     1      48.639   4.245  17.050  0.00  0.00    +0.000 A 
ATOM     32  O   UNL     1      47.488   4.667  17.015  0.00  0.00    +0.000 OA
ATOM     33  C   UNL     1      49.829   5.070  16.989  0.00  0.00    +0.000 A 
ATOM     34  H   UNL     1      48.097   2.308  17.308  0.00  0.00    +0.000 HD
ENDBRANCH  21  24
ENDBRANCH   2  20
TORSDOF 6
ENDMDL
MODEL 2
REMARK VINA RESULT:    -7.643      2.596      3.670
REMARK INTER + INTRA:         -11.576
REMARK INTER:                 -10.377
REMARK INTRA:                  -1.199
REMARK UNBOUND:                -1.252
REMARK  Name = 
REMARK  7 active torsions:
REMARK  status: ('A' for Active; 'I' for Inactive)
REMARK    1  A    between atoms: C_1  and  C_2
REMARK    2  A    between atoms: C_2  and  N_3
REMARK    3  A    between atoms: C_2  and  C_16
REMARK    4  A    between atoms: C_4  and  C_6
REMARK    5  A    between atoms: C_19  and  C_20
REMARK    6  A    between atoms: C_20  and  N_21
REMARK    7  A    between atoms: C_22  and  C_24
REMARK                            x       y       z     vdW  Elec       q    Type
REMARK                         _______ _______ _______ _____ _____    ______ ____
ROOT
ATOM      1  C   UNL     1      47.279   4.266  15.933  0.00  0.00    +0.000 C 
ATOM      2  C   UNL     1      47.698   5.143  14.749  0.00  0.00    +0.000 C 
ENDROOT
BRANCH   2   3
ATOM      3  C   UNL     1      46.793   5.001  13.534  0.00  0.00    +0.000 A 
ATOM      4  C   UNL     1      46.083   3.805  13.319  0.00  0.00    +0.000 A 
ATOM      5  C   UNL     1      45.298   3.631  12.170  0.00  0.00    +0.000 A 
ATOM      6  C   UNL     1      45.230   4.636  11.197  0.00  0.00    +0.000 A 
ATOM      7  C   UNL     1      45.899   5.842  11.431  0.00  0.00    +0.000 A 
ATOM      8  C   UNL     1      46.674   6.018  12.578  0.00  0.00    +0.000 A 
BRANCH   6   9
ATOM      9  C   UNL     1      44.475   4.446   9.906  0.00  0.00    +0.000 C 
BRANCH   9  10
ATOM     10  N   UNL     1      45.343   4.057   8.833  0.00  0.00    +0.000 N 
ATOM     11  C   UNL     1      45.566   2.730   8.539  0.00  0.00    +0.000 C 
ATOM     12  O   UNL     1      45.064   1.814   9.176  0.00  0.00    +0.000 OA
ATOM     13  H   UNL     1      45.716   4.777   8.231  0.00  0.00    +0.000 HD
BRANCH  11  14
ATOM     14  C   UNL     1      46.440   2.511   7.412  0.00  0.00    +0.000 A 
ATOM     15  C   UNL     1      46.655   3.202   6.239  0.00  0.00    +0.000 A 
ATOM     16  C   UNL     1      47.633   2.465   5.550  0.00  0.00    +0.000 A 
ATOM     17  N   UNL     1      48.024   1.386   6.226  0.00  0.00    +0.000 NA
ATOM     18  N   UNL     1      47.291   1.437   7.355  0.00  0.00    +0.000 N 
ATOM     19  H   UNL     1      47.411   0.709   8.053  0.00  0.00    +0.000 HD
ENDBRANCH  11  14
ENDBRANCH   9  10
ENDBRANCH   6   9
ENDBRANCH   2   3
BRANCH   2  20
ATOM     20  N   UNL     1      47.748   6.536  15.163  0.00  0.00    +0.000 N 
ATOM     21  C   UNL     1      48.950   7.183  15.350  0.00  0.00    +0.000 C 
ATOM     22  O   UNL     1      50.031   6.641  15.157  0.00  0.00    +0.000 OA
ATOM     23  H   UNL     1      46.907   6.952  15.535  0.00  0.00    +0.000 HD
BRANCH  21  24
ATOM     24  C   UNL     1      48.847   8.591  15.728  0.00  0.00    +0.000 A 
ATOM     25  C   UNL     1      49.058   9.646  14.855  0.00  0.00    +0.000 A 
ATOM     26  S   UNL     1      49.107  11.165  15.645  0.00  0.00    +0.000 S 
ATOM     27  C   UNL     1      48.848  10.447  17.168  0.00  0.00    +0.000 A 
ATOM     28  N   UNL     1      48.866  11.179  18.314  0.00  0.00    +0.000 NA
ATOM     29  C   UNL     1      48.684  10.482  19.388  0.00  0.00    +0.000 A 
ATOM     30  N   UNL     1      48.441   9.131  19.416  0.00  0.00    +0.000 N 
ATOM     31  C   UNL     1      48.289   8.376  18.275  0.00  0.00    +0.000 A 
ATOM     32  O   UNL     1      47.815   7.246  18.318  0.00  0.00    +0.000 OA
ATOM     33  C   UNL     1      48.635   9.087  17.061  0.00  0.00    +0.000 A 
ATOM     34  H   UNL     1      48.211   8.665  20.281  0.00  0.00    +0.000 HD
ENDBRANCH  21  24
ENDBRANCH   2  20
TORSDOF 6
ENDMDL
MODEL 3
REMARK VINA RESULT:    -7.587      2.283      4.040
REMARK INTER + INTRA:         -11.500
REMARK INTER:                 -10.362
REMARK INTRA:                  -1.138
REMARK UNBOUND:                -1.252
REMARK  Name = 
REMARK  7 active torsions:
REMARK  status: ('A' for Active; 'I' for Inactive)
REMARK    1  A    between atoms: C_1  and  C_2
REMARK    2  A    between atoms: C_2  and  N_3
REMARK    3  A    between atoms: C_2  and  C_16
REMARK    4  A    between atoms: C_4  and  C_6
REMARK    5  A    between atoms: C_19  and  C_20
REMARK    6  A    between atoms: C_20  and  N_21
REMARK    7  A    between atoms: C_22  and  C_24
REMARK                            x       y       z     vdW  Elec       q    Type
REMARK                         _______ _______ _______ _____ _____    ______ ____
ROOT
ATOM      1  C   UNL     1      47.044   4.142  16.240  0.00  0.00    +0.000 C 
ATOM      2  C   UNL     1      47.629   4.829  15.003  0.00  0.00    +0.000 C 
ENDROOT
BRANCH   2   3
ATOM      3  C   UNL     1      46.738   4.731  13.773  0.00  0.00    +0.000 A 
ATOM      4  C   UNL     1      46.188   3.493  13.397  0.00  0.00    +0.000 A 
ATOM      5  C   UNL     1      45.420   3.371  12.229  0.00  0.00    +0.000 A 
ATOM      6  C   UNL     1      45.214   4.478  11.396  0.00  0.00    +0.000 A 
ATOM      7  C   UNL     1      45.723   5.718  11.792  0.00  0.00    +0.000 A 
ATOM      8  C   UNL     1      46.480   5.841  12.958  0.00  0.00    +0.000 A 
BRANCH   6   9
ATOM      9  C   UNL     1      44.478   4.363  10.086  0.00  0.00    +0.000 C 
BRANCH   9  10
ATOM     10  N   UNL     1      45.354   3.996   9.012  0.00  0.00    +0.000 N 
ATOM     11  C   UNL     1      45.467   2.688   8.598  0.00  0.00    +0.000 C 
ATOM     12  O   UNL     1      44.856   1.767   9.123  0.00  0.00    +0.000 OA
ATOM     13  H   UNL     1      45.818   4.731   8.497  0.00  0.00    +0.000 HD
BRANCH  11  14
ATOM     14  C   UNL     1      46.368   2.494   7.487  0.00  0.00    +0.000 A 
ATOM     15  C   UNL     1      46.600   3.202   6.327  0.00  0.00    +0.000 A 
ATOM     16  C   UNL     1      47.601   2.486   5.651  0.00  0.00    +0.000 A 
ATOM     17  N   UNL     1      47.990   1.403   6.321  0.00  0.00    +0.000 NA
ATOM     18  N   UNL     1      47.234   1.430   7.435  0.00  0.00    +0.000 N 
ATOM     19  H   UNL     1      47.348   0.695   8.126  0.00  0.00    +0.000 HD
ENDBRANCH  11  14
ENDBRANCH   9  10
ENDBRANCH   6   9
ENDBRANCH   2   3
BRANCH   2  20
ATOM     20  N   UNL     1      47.905   6.224  15.299  0.00  0.00    +0.000 N 
ATOM     21  C   UNL     1      49.071   6.605  15.927  0.00  0.00    +0.000 C 
ATOM     22  O   UNL     1      49.944   5.807  16.244  0.00  0.00    +0.000 OA
ATOM     23  H   UNL     1      47.139   6.881  15.254  0.00  0.00    +0.000 HD
BRANCH  21  24
ATOM     24  C   UNL     1      49.230   8.045  16.126  0.00  0.00    +0.000 A 
ATOM     25  C   UNL     1      49.238   8.659  17.369  0.00  0.00    +0.000 A 
ATOM     26  S   UNL     1      49.196  10.368  17.267  0.00  0.00    +0.000 S 
ATOM     27  C   UNL     1      49.165  10.324  15.564  0.00  0.00    +0.000 A 
ATOM     28  N   UNL     1      49.036  11.458  14.824  0.00  0.00    +0.000 NA
ATOM     29  C   UNL     1      48.998  11.253  13.548  0.00  0.00    +0.000 A 
ATOM     30  N   UNL     1      49.123  10.026  12.945  0.00  0.00    +0.000 N 
ATOM     31  C   UNL     1      49.382   8.871  13.649  0.00  0.00    +0.000 A 
ATOM     32  O   UNL     1      49.751   7.849  13.081  0.00  0.00    +0.000 OA
ATOM     33  C   UNL     1      49.280   9.034  15.085  0.00  0.00    +0.000 A 
ATOM     34  H   UNL     1      49.183   9.947  11.941  0.00  0.00    +0.000 HD
ENDBRANCH  21  24
ENDBRANCH   2  20
TORSDOF 6
ENDMDL
MODEL 4
REMARK VINA RESULT:    -6.653      1.827      2.797
REMARK INTER + INTRA:         -10.239
REMARK INTER:                  -8.971
REMARK INTRA:                  -1.268
REMARK UNBOUND:                -1.252
REMARK  Name = 
REMARK  7 active torsions:
REMARK  status: ('A' for Active; 'I' for Inactive)
REMARK    1  A    between atoms: C_1  and  C_2
REMARK    2  A    between atoms: C_2  and  N_3
REMARK    3  A    between atoms: C_2  and  C_16
REMARK    4  A    between atoms: C_4  and  C_6
REMARK    5  A    between atoms: C_19  and  C_20
REMARK    6  A    between atoms: C_20  and  N_21
REMARK    7  A    between atoms: C_22  and  C_24
REMARK                            x       y       z     vdW  Elec       q    Type
REMARK                         _______ _______ _______ _____ _____    ______ ____
ROOT
ATOM      1  C   UNL     1      51.636   8.581  12.479  0.00  0.00    +0.000 C 
ATOM      2  C   UNL     1      50.593   8.463  13.595  0.00  0.00    +0.000 C 
ENDROOT
BRANCH   2   3
ATOM      3  C   UNL     1      49.177   8.238  13.085  0.00  0.00    +0.000 A 
ATOM      4  C   UNL     1      48.076   8.673  13.845  0.00  0.00    +0.000 A 
ATOM      5  C   UNL     1      46.763   8.415  13.424  0.00  0.00    +0.000 A 
ATOM      6  C   UNL     1      46.524   7.689  12.251  0.00  0.00    +0.000 A 
ATOM      7  C   UNL     1      47.616   7.296  11.471  0.00  0.00    +0.000 A 
ATOM      8  C   UNL     1      48.922   7.559  11.886  0.00  0.00    +0.000 A 
BRANCH   6   9
ATOM      9  C   UNL     1      45.130   7.310  11.819  0.00  0.00    +0.000 C 
BRANCH   9  10
ATOM     10  N   UNL     1      45.142   6.248  10.856  0.00  0.00    +0.000 N 
ATOM     11  C   UNL     1      44.738   4.975  11.191  0.00  0.00    +0.000 C 
ATOM     12  O   UNL     1      44.371   4.667  12.317  0.00  0.00    +0.000 OA
ATOM     13  H   UNL     1      45.361   6.472   9.895  0.00  0.00    +0.000 HD
BRANCH  11  14
ATOM     14  C   UNL     1      44.781   4.032  10.098  0.00  0.00    +0.000 A 
ATOM     15  C   UNL     1      44.916   4.177   8.734  0.00  0.00    +0.000 A 
ATOM     16  C   UNL     1      44.875   2.871   8.219  0.00  0.00    +0.000 A 
ATOM     17  N   UNL     1      44.730   1.954   9.173  0.00  0.00    +0.000 NA
ATOM     18  N   UNL     1      44.681   2.680  10.306  0.00  0.00    +0.000 N 
ATOM     19  H   UNL     1      44.576   2.200  11.195  0.00  0.00    +0.000 HD
ENDBRANCH  11  14
ENDBRANCH   9  10
ENDBRANCH   6   9
ENDBRANCH   2   3
BRANCH   2  20
ATOM     20  N   UNL     1      50.963   7.389  14.501  0.00  0.00    +0.000 N 
ATOM     21  C   UNL     1      51.033   7.594  15.862  0.00  0.00    +0.000 C 
ATOM     22  O   UNL     1      50.766   8.669  16.384  0.00  0.00    +0.000 OA
ATOM     23  H   UNL     1      51.393   6.563  14.110  0.00  0.00    +0.000 HD
BRANCH  21  24
ATOM     24  C   UNL     1      51.381   6.415  16.653  0.00  0.00    +0.000 A 
ATOM     25  C   UNL     1      52.667   6.115  17.073  0.00  0.00    +0.000 A 
ATOM     26  S   UNL     1      52.793   4.554  17.767  0.00  0.00    +0.000 S 
ATOM     27  C   UNL     1      51.136   4.246  17.521  0.00  0.00    +0.000 A 
ATOM     28  N   UNL     1      50.584   3.038  17.813  0.00  0.00    +0.000 NA
ATOM     29  C   UNL     1      49.323   2.955  17.541  0.00  0.00    +0.000 A 
ATOM     30  N   UNL     1      48.556   3.982  17.049  0.00  0.00    +0.000 N 
ATOM     31  C   UNL     1      49.045   5.255  16.860  0.00  0.00    +0.000 A 
ATOM     32  O   UNL     1      48.292   6.206  16.678  0.00  0.00    +0.000 OA
ATOM     33  C   UNL     1      50.484   5.349  17.007  0.00  0.00    +0.000 A 
ATOM     34  H   UNL     1      47.557   3.880  16.950  0.00  0.00    +0.000 HD
ENDBRANCH  21  24
ENDBRANCH   2  20
TORSDOF 6
ENDMDL
MODEL 5
REMARK VINA RESULT:    -6.586      2.044      2.337
REMARK INTER + INTRA:         -10.148
REMARK INTER:                  -8.998
REMARK INTRA:                  -1.150
REMARK UNBOUND:                -1.252
REMARK  Name = 
REMARK  7 active torsions:
REMARK  status: ('A' for Active; 'I' for Inactive)
REMARK    1  A    between atoms: C_1  and  C_2
REMARK    2  A    between atoms: C_2  and  N_3
REMARK    3  A    between atoms: C_2  and  C_16
REMARK    4  A    between atoms: C_4  and  C_6
REMARK    5  A    between atoms: C_19  and  C_20
REMARK    6  A    between atoms: C_20  and  N_21
REMARK    7  A    between atoms: C_22  and  C_24
REMARK                            x       y       z     vdW  Elec       q    Type
REMARK                         _______ _______ _______ _____ _____    ______ ____
ROOT
ATOM      1  C   UNL     1      49.074   8.822  13.444  0.00  0.00    +0.000 C 
ATOM      2  C   UNL     1      47.838   8.315  14.193  0.00  0.00    +0.000 C 
ENDROOT
BRANCH   2   3
ATOM      3  C   UNL     1      46.846   7.577  13.305  0.00  0.00    +0.000 A 
ATOM      4  C   UNL     1      46.962   6.187  13.122  0.00  0.00    +0.000 A 
ATOM      5  C   UNL     1      46.099   5.501  12.255  0.00  0.00    +0.000 A 
ATOM      6  C   UNL     1      45.125   6.194  11.527  0.00  0.00    +0.000 A 
ATOM      7  C   UNL     1      44.980   7.569  11.742  0.00  0.00    +0.000 A 
ATOM      8  C   UNL     1      45.833   8.250  12.611  0.00  0.00    +0.000 A 
BRANCH   6   9
ATOM      9  C   UNL     1      44.246   5.506  10.515  0.00  0.00    +0.000 C 
BRANCH   9  10
ATOM     10  N   UNL     1      45.015   4.779   9.547  0.00  0.00    +0.000 N 
ATOM     11  C   UNL     1      44.802   3.437   9.327  0.00  0.00    +0.000 C 
ATOM     12  O   UNL     1      43.972   2.784   9.946  0.00  0.00    +0.000 OA
ATOM     13  H   UNL     1      45.654   5.292   8.957  0.00  0.00    +0.000 HD
BRANCH  11  14
ATOM     14  C   UNL     1      45.638   2.864   8.299  0.00  0.00    +0.000 A 
ATOM     15  C   UNL     1      46.233   1.630   8.148  0.00  0.00    +0.000 A 
ATOM     16  C   UNL     1      46.928   1.702   6.930  0.00  0.00    +0.000 A 
ATOM     17  N   UNL     1      46.791   2.887   6.337  0.00  0.00    +0.000 NA
ATOM     18  N   UNL     1      45.999   3.574   7.183  0.00  0.00    +0.000 N 
ATOM     19  H   UNL     1      45.739   4.527   6.948  0.00  0.00    +0.000 HD
ENDBRANCH  11  14
ENDBRANCH   9  10
ENDBRANCH   6   9
ENDBRANCH   2   3
BRANCH   2  20
ATOM     20  N   UNL     1      48.247   7.454  15.291  0.00  0.00    +0.000 N 
ATOM     21  C   UNL     1      48.429   7.955  16.561  0.00  0.00    +0.000 C 
ATOM     22  O   UNL     1      48.235   9.130  16.845  0.00  0.00    +0.000 OA
ATOM     23  H   UNL     1      48.620   6.543  15.067  0.00  0.00    +0.000 HD
BRANCH  21  24
ATOM     24  C   UNL     1      48.804   6.967  17.572  0.00  0.00    +0.000 A 
ATOM     25  C   UNL     1      48.006   6.622  18.652  0.00  0.00    +0.000 A 
ATOM     26  S   UNL     1      48.816   5.626  19.786  0.00  0.00    +0.000 S 
ATOM     27  C   UNL     1      50.247   5.636  18.862  0.00  0.00    +0.000 A 
ATOM     28  N   UNL     1      51.386   5.039  19.304  0.00  0.00    +0.000 NA
ATOM     29  C   UNL     1      52.391   5.161  18.500  0.00  0.00    +0.000 A 
ATOM     30  N   UNL     1      52.349   5.784  17.278  0.00  0.00    +0.000 N 
ATOM     31  C   UNL     1      51.188   6.289  16.736  0.00  0.00    +0.000 A 
ATOM     32  O   UNL     1      51.118   6.594  15.551  0.00  0.00    +0.000 OA
ATOM     33  C   UNL     1      50.077   6.307  17.667  0.00  0.00    +0.000 A 
ATOM     34  H   UNL     1      53.144   5.759  16.657  0.00  0.00    +0.000 HD
ENDBRANCH  21  24
ENDBRANCH   2  20
TORSDOF 6
ENDMDL
MODEL 6
REMARK VINA RESULT:    -6.194      4.330      7.304
REMARK INTER + INTRA:          -9.619
REMARK INTER:                  -8.444
REMARK INTRA:                  -1.175
REMARK UNBOUND:                -1.252
REMARK  Name = 
REMARK  7 active torsions:
REMARK  status: ('A' for Active; 'I' for Inactive)
REMARK    1  A    between atoms: C_1  and  C_2
REMARK    2  A    between atoms: C_2  and  N_3
REMARK    3  A    between atoms: C_2  and  C_16
REMARK    4  A    between atoms: C_4  and  C_6
REMARK    5  A    between atoms: C_19  and  C_20
REMARK    6  A    between atoms: C_20  and  N_21
REMARK    7  A    between atoms: C_22  and  C_24
REMARK                            x       y       z     vdW  Elec       q    Type
REMARK                         _______ _______ _______ _____ _____    ______ ____
ROOT
ATOM      1  C   UNL     1      46.580   6.731  11.620  0.00  0.00    +0.000 C 
ATOM      2  C   UNL     1      47.380   7.236  12.825  0.00  0.00    +0.000 C 
ENDROOT
BRANCH   2   3
ATOM      3  C   UNL     1      47.517   6.208  13.939  0.00  0.00    +0.000 A 
ATOM      4  C   UNL     1      46.839   4.979  13.853  0.00  0.00    +0.000 A 
ATOM      5  C   UNL     1      46.899   4.048  14.900  0.00  0.00    +0.000 A 
ATOM      6  C   UNL     1      47.612   4.340  16.069  0.00  0.00    +0.000 A 
ATOM      7  C   UNL     1      48.324   5.542  16.137  0.00  0.00    +0.000 A 
ATOM      8  C   UNL     1      48.271   6.464  15.092  0.00  0.00    +0.000 A 
BRANCH   6   9
ATOM      9  C   UNL     1      47.619   3.407  17.252  0.00  0.00    +0.000 C 
BRANCH   9  10
ATOM     10  N   UNL     1      48.953   3.061  17.651  0.00  0.00    +0.000 N 
ATOM     11  C   UNL     1      49.708   2.170  16.922  0.00  0.00    +0.000 C 
ATOM     12  O   UNL     1      49.291   1.608  15.918  0.00  0.00    +0.000 OA
ATOM     13  H   UNL     1      49.367   3.559  18.426  0.00  0.00    +0.000 HD
BRANCH  11  14
ATOM     14  C   UNL     1      51.038   1.955  17.442  0.00  0.00    +0.000 A 
ATOM     15  C   UNL     1      52.068   2.809  17.774  0.00  0.00    +0.000 A 
ATOM     16  C   UNL     1      53.108   1.976  18.217  0.00  0.00    +0.000 A 
ATOM     17  N   UNL     1      52.777   0.687  18.180  0.00  0.00    +0.000 NA
ATOM     18  N   UNL     1      51.514   0.698  17.712  0.00  0.00    +0.000 N 
ATOM     19  H   UNL     1      51.026  -0.184  17.593  0.00  0.00    +0.000 HD
ENDBRANCH  11  14
ENDBRANCH   9  10
ENDBRANCH   6   9
ENDBRANCH   2   3
BRANCH   2  20
ATOM     20  N   UNL     1      48.699   7.669  12.393  0.00  0.00    +0.000 N 
ATOM     21  C   UNL     1      49.040   9.004  12.371  0.00  0.00    +0.000 C 
ATOM     22  O   UNL     1      48.276   9.890  12.732  0.00  0.00    +0.000 OA
ATOM     23  H   UNL     1      49.276   7.009  11.892  0.00  0.00    +0.000 HD
BRANCH  21  24
ATOM     24  C   UNL     1      50.411   9.289  11.951  0.00  0.00    +0.000 A 
ATOM     25  C   UNL     1      50.744   9.901  10.752  0.00  0.00    +0.000 A 
ATOM     26  S   UNL     1      52.427   9.877  10.437  0.00  0.00    +0.000 S 
ATOM     27  C   UNL     1      52.747   9.049  11.891  0.00  0.00    +0.000 A 
ATOM     28  N   UNL     1      54.001   8.628  12.211  0.00  0.00    +0.000 NA
ATOM     29  C   UNL     1      54.071   7.989  13.333  0.00  0.00    +0.000 A 
ATOM     30  N   UNL     1      53.015   7.773  14.182  0.00  0.00    +0.000 N 
ATOM     31  C   UNL     1      51.759   8.291  13.959  0.00  0.00    +0.000 A 
ATOM     32  O   UNL     1      50.913   8.314  14.845  0.00  0.00    +0.000 OA
ATOM     33  C   UNL     1      51.602   8.880  12.644  0.00  0.00    +0.000 A 
ATOM     34  H   UNL     1      53.158   7.352  15.088  0.00  0.00    +0.000 HD
ENDBRANCH  21  24
ENDBRANCH   2  20
TORSDOF 6
ENDMDL
MODEL 7
REMARK VINA RESULT:    -6.022      3.306      4.394
REMARK INTER + INTRA:          -9.387
REMARK INTER:                  -8.025
REMARK INTRA:                  -1.362
REMARK UNBOUND:                -1.252
REMARK  Name = 
REMARK  7 active torsions:
REMARK  status: ('A' for Active; 'I' for Inactive)
REMARK    1  A    between atoms: C_1  and  C_2
REMARK    2  A    between atoms: C_2  and  N_3
REMARK    3  A    between atoms: C_2  and  C_16
REMARK    4  A    between atoms: C_4  and  C_6
REMARK    5  A    between atoms: C_19  and  C_20
REMARK    6  A    between atoms: C_20  and  N_21
REMARK    7  A    between atoms: C_22  and  C_24
REMARK                            x       y       z     vdW  Elec       q    Type
REMARK                         _______ _______ _______ _____ _____    ______ ____
ROOT
ATOM      1  C   UNL     1      52.490   8.672  14.095  0.00  0.00    +0.000 C 
ATOM      2  C   UNL     1      51.246   8.447  14.960  0.00  0.00    +0.000 C 
ENDROOT
BRANCH   2   3
ATOM      3  C   UNL     1      49.937   8.659  14.213  0.00  0.00    +0.000 A 
ATOM      4  C   UNL     1      48.718   8.672  14.915  0.00  0.00    +0.000 A 
ATOM      5  C   UNL     1      47.498   8.799  14.235  0.00  0.00    +0.000 A 
ATOM      6  C   UNL     1      47.468   8.883  12.839  0.00  0.00    +0.000 A 
ATOM      7  C   UNL     1      48.681   8.916  12.143  0.00  0.00    +0.000 A 
ATOM      8  C   UNL     1      49.896   8.798  12.819  0.00  0.00    +0.000 A 
BRANCH   6   9
ATOM      9  C   UNL     1      46.172   8.923  12.069  0.00  0.00    +0.000 C 
BRANCH   9  10
ATOM     10  N   UNL     1      45.336   7.799  12.376  0.00  0.00    +0.000 N 
ATOM     11  C   UNL     1      45.569   6.561  11.819  0.00  0.00    +0.000 C 
ATOM     12  O   UNL     1      46.475   6.349  11.025  0.00  0.00    +0.000 OA
ATOM     13  H   UNL     1      44.626   7.908  13.086  0.00  0.00    +0.000 HD
BRANCH  11  14
ATOM     14  C   UNL     1      44.655   5.533  12.255  0.00  0.00    +0.000 A 
ATOM     15  C   UNL     1      44.681   4.157  12.182  0.00  0.00    +0.000 A 
ATOM     16  C   UNL     1      43.484   3.733  12.782  0.00  0.00    +0.000 A 
ATOM     17  N   UNL     1      42.745   4.753  13.214  0.00  0.00    +0.000 NA
ATOM     18  N   UNL     1      43.477   5.836  12.889  0.00  0.00    +0.000 N 
ATOM     19  H   UNL     1      43.122   6.758  13.122  0.00  0.00    +0.000 HD
ENDBRANCH  11  14
ENDBRANCH   9  10
ENDBRANCH   6   9
ENDBRANCH   2   3
BRANCH   2  20
ATOM     20  N   UNL     1      51.276   7.108  15.525  0.00  0.00    +0.000 N 
ATOM     21  C   UNL     1      51.335   6.909  16.887  0.00  0.00    +0.000 C 
ATOM     22  O   UNL     1      51.340   7.831  17.692  0.00  0.00    +0.000 OA
ATOM     23  H   UNL     1      51.487   6.336  14.909  0.00  0.00    +0.000 HD
BRANCH  21  24
ATOM     24  C   UNL     1      51.321   5.510  17.313  0.00  0.00    +0.000 A 
ATOM     25  C   UNL     1      52.444   4.816  17.733  0.00  0.00    +0.000 A 
ATOM     26  S   UNL     1      52.155   3.140  17.932  0.00  0.00    +0.000 S 
ATOM     27  C   UNL     1      50.526   3.305  17.462  0.00  0.00    +0.000 A 
ATOM     28  N   UNL     1      49.710   2.225  17.327  0.00  0.00    +0.000 NA
ATOM     29  C   UNL     1      48.512   2.516  16.934  0.00  0.00    +0.000 A 
ATOM     30  N   UNL     1      48.046   3.788  16.710  0.00  0.00    +0.000 N 
ATOM     31  C   UNL     1      48.798   4.914  16.956  0.00  0.00    +0.000 A 
ATOM     32  O   UNL     1      48.284   6.025  17.005  0.00  0.00    +0.000 OA
ATOM     33  C   UNL     1      50.189   4.627  17.250  0.00  0.00    +0.000 A 
ATOM     34  H   UNL     1      47.072   3.952  16.499  0.00  0.00    +0.000 HD
ENDBRANCH  21  24
ENDBRANCH   2  20
TORSDOF 6
ENDMDL
MODEL 8
REMARK VINA RESULT:    -6.011      2.408      3.311
REMARK INTER + INTRA:          -9.372
REMARK INTER:                  -8.194
REMARK INTRA:                  -1.178
REMARK UNBOUND:                -1.252
REMARK  Name = 
REMARK  7 active torsions:
REMARK  status: ('A' for Active; 'I' for Inactive)
REMARK    1  A    between atoms: C_1  and  C_2
REMARK    2  A    between atoms: C_2  and  N_3
REMARK    3  A    between atoms: C_2  and  C_16
REMARK    4  A    between atoms: C_4  and  C_6
REMARK    5  A    between atoms: C_19  and  C_20
REMARK    6  A    between atoms: C_20  and  N_21
REMARK    7  A    between atoms: C_22  and  C_24
REMARK                            x       y       z     vdW  Elec       q    Type
REMARK                         _______ _______ _______ _____ _____    ______ ____
ROOT
ATOM      1  C   UNL     1      47.104   4.454  17.198  0.00  0.00    +0.000 C 
ATOM      2  C   UNL     1      48.050   4.782  16.039  0.00  0.00    +0.000 C 
ENDROOT
BRANCH   2   3
ATOM      3  C   UNL     1      47.329   5.167  14.754  0.00  0.00    +0.000 A 
ATOM      4  C   UNL     1      46.277   4.368  14.270  0.00  0.00    +0.000 A 
ATOM      5  C   UNL     1      45.647   4.669  13.053  0.00  0.00    +0.000 A 
ATOM      6  C   UNL     1      46.076   5.755  12.281  0.00  0.00    +0.000 A 
ATOM      7  C   UNL     1      47.090   6.576  12.784  0.00  0.00    +0.000 A 
ATOM      8  C   UNL     1      47.712   6.281  13.997  0.00  0.00    +0.000 A 
BRANCH   6   9
ATOM      9  C   UNL     1      45.487   6.051  10.925  0.00  0.00    +0.000 C 
BRANCH   9  10
ATOM     10  N   UNL     1      45.981   5.152   9.922  0.00  0.00    +0.000 N 
ATOM     11  C   UNL     1      45.141   4.278   9.269  0.00  0.00    +0.000 C 
ATOM     12  O   UNL     1      43.945   4.197   9.512  0.00  0.00    +0.000 OA
ATOM     13  H   UNL     1      46.945   5.239   9.632  0.00  0.00    +0.000 HD
BRANCH  11  14
ATOM     14  C   UNL     1      45.792   3.467   8.269  0.00  0.00    +0.000 A 
ATOM     15  C   UNL     1      46.369   3.756   7.051  0.00  0.00    +0.000 A 
ATOM     16  C   UNL     1      46.822   2.522   6.555  0.00  0.00    +0.000 A 
ATOM     17  N   UNL     1      46.563   1.515   7.388  0.00  0.00    +0.000 NA
ATOM     18  N   UNL     1      45.943   2.112   8.424  0.00  0.00    +0.000 N 
ATOM     19  H   UNL     1      45.641   1.545   9.210  0.00  0.00    +0.000 HD
ENDBRANCH  11  14
ENDBRANCH   9  10
ENDBRANCH   6   9
ENDBRANCH   2   3
BRANCH   2  20
ATOM     20  N   UNL     1      48.955   5.849  16.431  0.00  0.00    +0.000 N 
ATOM     21  C   UNL     1      50.222   5.576  16.898  0.00  0.00    +0.000 C 
ATOM     22  O   UNL     1      50.664   4.437  16.987  0.00  0.00    +0.000 OA
ATOM     23  H   UNL     1      48.570   6.771  16.577  0.00  0.00    +0.000 HD
BRANCH  21  24
ATOM     24  C   UNL     1      51.035   6.748  17.218  0.00  0.00    +0.000 A 
ATOM     25  C   UNL     1      52.112   7.176  16.458  0.00  0.00    +0.000 A 
ATOM     26  S   UNL     1      53.008   8.422  17.216  0.00  0.00    +0.000 S 
ATOM     27  C   UNL     1      51.980   8.417  18.574  0.00  0.00    +0.000 A 
ATOM     28  N   UNL     1      52.229   9.196  19.661  0.00  0.00    +0.000 NA
ATOM     29  C   UNL     1      51.372   9.053  20.619  0.00  0.00    +0.000 A 
ATOM     30  N   UNL     1      50.268   8.241  20.571  0.00  0.00    +0.000 N 
ATOM     31  C   UNL     1      49.909   7.534  19.445  0.00  0.00    +0.000 A 
ATOM     32  O   UNL     1      48.794   7.035  19.335  0.00  0.00    +0.000 OA
ATOM     33  C   UNL     1      50.921   7.547  18.408  0.00  0.00    +0.000 A 
ATOM     34  H   UNL     1      49.586   8.250  21.315  0.00  0.00    +0.000 HD
ENDBRANCH  21  24
ENDBRANCH   2  20
TORSDOF 6
ENDMDL
MODEL 9
REMARK VINA RESULT:    -5.751      4.054      6.501
REMARK INTER + INTRA:          -9.020
REMARK INTER:                  -7.833
REMARK INTRA:                  -1.187
REMARK UNBOUND:                -1.252
REMARK  Name = 
REMARK  7 active torsions:
REMARK  status: ('A' for Active; 'I' for Inactive)
REMARK    1  A    between atoms: C_1  and  C_2
REMARK    2  A    between atoms: C_2  and  N_3
REMARK    3  A    between atoms: C_2  and  C_16
REMARK    4  A    between atoms: C_4  and  C_6
REMARK    5  A    between atoms: C_19  and  C_20
REMARK    6  A    between atoms: C_20  and  N_21
REMARK    7  A    between atoms: C_22  and  C_24
REMARK                            x       y       z     vdW  Elec       q    Type
REMARK                         _______ _______ _______ _____ _____    ______ ____
ROOT
ATOM      1  C   UNL     1      44.490   5.269  13.259  0.00  0.00    +0.000 C 
ATOM      2  C   UNL     1      46.006   5.483  13.234  0.00  0.00    +0.000 C 
ENDROOT
BRANCH   2   3
ATOM      3  C   UNL     1      46.420   6.857  12.726  0.00  0.00    +0.000 A 
ATOM      4  C   UNL     1      47.689   7.042  12.147  0.00  0.00    +0.000 A 
ATOM      5  C   UNL     1      48.114   8.313  11.735  0.00  0.00    +0.000 A 
ATOM      6  C   UNL     1      47.292   9.431  11.921  0.00  0.00    +0.000 A 
ATOM      7  C   UNL     1      46.013   9.241  12.454  0.00  0.00    +0.000 A 
ATOM      8  C   UNL     1      45.587   7.975  12.857  0.00  0.00    +0.000 A 
BRANCH   6   9
ATOM      9  C   UNL     1      47.752  10.825  11.580  0.00  0.00    +0.000 C 
BRANCH   9  10
ATOM     10  N   UNL     1      48.967  10.813  10.817  0.00  0.00    +0.000 N 
ATOM     11  C   UNL     1      50.172  11.160  11.386  0.00  0.00    +0.000 C 
ATOM     12  O   UNL     1      50.280  11.515  12.552  0.00  0.00    +0.000 OA
ATOM     13  H   UNL     1      48.939  10.452   9.874  0.00  0.00    +0.000 HD
BRANCH  11  14
ATOM     14  C   UNL     1      51.300  11.066  10.490  0.00  0.00    +0.000 A 
ATOM     15  C   UNL     1      51.491  11.434   9.176  0.00  0.00    +0.000 A 
ATOM     16  C   UNL     1      52.813  11.065   8.879  0.00  0.00    +0.000 A 
ATOM     17  N   UNL     1      53.430  10.508   9.919  0.00  0.00    +0.000 NA
ATOM     18  N   UNL     1      52.495  10.524  10.888  0.00  0.00    +0.000 N 
ATOM     19  H   UNL     1      52.727  10.149  11.802  0.00  0.00    +0.000 HD
ENDBRANCH  11  14
ENDBRANCH   9  10
ENDBRANCH   6   9
ENDBRANCH   2   3
BRANCH   2  20
ATOM     20  N   UNL     1      46.555   5.267  14.563  0.00  0.00    +0.000 N 
ATOM     21  C   UNL     1      47.217   4.101  14.881  0.00  0.00    +0.000 C 
ATOM     22  O   UNL     1      47.404   3.202  14.071  0.00  0.00    +0.000 OA
ATOM     23  H   UNL     1      46.245   5.872  15.309  0.00  0.00    +0.000 HD
BRANCH  21  24
ATOM     24  C   UNL     1      47.748   4.038  16.242  0.00  0.00    +0.000 A 
ATOM     25  C   UNL     1      47.458   3.025  17.141  0.00  0.00    +0.000 A 
ATOM     26  S   UNL     1      48.028   3.354  18.722  0.00  0.00    +0.000 S 
ATOM     27  C   UNL     1      48.672   4.855  18.241  0.00  0.00    +0.000 A 
ATOM     28  N   UNL     1      49.235   5.710  19.136  0.00  0.00    +0.000 NA
ATOM     29  C   UNL     1      49.650   6.820  18.617  0.00  0.00    +0.000 A 
ATOM     30  N   UNL     1      49.594   7.132  17.282  0.00  0.00    +0.000 N 
ATOM     31  C   UNL     1      49.150   6.246  16.326  0.00  0.00    +0.000 A 
ATOM     32  O   UNL     1      49.355   6.440  15.133  0.00  0.00    +0.000 OA
ATOM     33  C   UNL     1      48.538   5.055  16.881  0.00  0.00    +0.000 A 
ATOM     34  H   UNL     1      50.024   7.974  16.929  0.00  0.00    +0.000 HD
ENDBRANCH  21  24
ENDBRANCH   2  20
TORSDOF 6
ENDMDL
