MODEL 1
REMARK VINA RESULT:    -8.357      0.000      0.000
REMARK INTER + INTRA:         -11.635
REMARK INTER:                 -10.800
REMARK INTRA:                  -0.834
REMARK UNBOUND:                -0.834
REMARK  Name = 
REMARK  7 active torsions:
REMARK  status: ('A' for Active; 'I' for Inactive)
REMARK    1  A    between atoms: C_1  and  C_2
REMARK    2  A    between atoms: C_2  and  N_3
REMARK    3  A    between atoms: C_2  and  C_17
REMARK    4  A    between atoms: C_4  and  C_6
REMARK    5  A    between atoms: N_12  and  C_13
REMARK    6  A    between atoms: C_20  and  C_21
REMARK    7  A    between atoms: C_21  and  C_22
REMARK                            x       y       z     vdW  Elec       q    Type
REMARK                         _______ _______ _______ _____ _____    ______ ____
ROOT
ATOM      1  C   UNL     1      43.053   4.965  13.615  0.00  0.00    +0.000 C 
ATOM      2  C   UNL     1      44.359   4.312  13.153  0.00  0.00    +0.000 C 
ENDROOT
BRANCH   2   3
ATOM      3  C   UNL     1      44.481   4.187  11.639  0.00  0.00    +0.000 A 
ATOM      4  C   UNL     1      44.018   3.021  11.009  0.00  0.00    +0.000 A 
ATOM      5  C   UNL     1      44.148   2.849   9.627  0.00  0.00    +0.000 A 
ATOM      6  C   UNL     1      44.756   3.835   8.840  0.00  0.00    +0.000 A 
ATOM      7  C   UNL     1      45.244   4.987   9.465  0.00  0.00    +0.000 A 
ATOM      8  C   UNL     1      45.119   5.155  10.848  0.00  0.00    +0.000 A 
BRANCH   6   9
ATOM      9  C   UNL     1      44.847   3.683   7.338  0.00  0.00    +0.000 C 
BRANCH   9  10
ATOM     10  C   UNL     1      46.047   2.875   6.905  0.00  0.00    +0.000 A 
ATOM     11  C   UNL     1      46.506   1.803   7.675  0.00  0.00    +0.000 A 
ATOM     12  C   UNL     1      47.652   1.135   7.269  0.00  0.00    +0.000 A 
ATOM     13  N   UNL     1      48.357   1.452   6.163  0.00  0.00    +0.000 NA
ATOM     14  C   UNL     1      47.897   2.490   5.433  0.00  0.00    +0.000 A 
ATOM     15  C   UNL     1      46.764   3.221   5.756  0.00  0.00    +0.000 A 
ENDBRANCH   9  10
ENDBRANCH   6   9
ENDBRANCH   2   3
BRANCH   2  16
ATOM     16  N   UNL     1      45.502   5.063  13.627  0.00  0.00    +0.000 N 
ATOM     17  C   UNL     1      46.688   4.512  14.025  0.00  0.00    +0.000 C 
ATOM     18  O   UNL     1      46.938   3.316  13.917  0.00  0.00    +0.000 OA
ATOM     19  H   UNL     1      45.284   6.007  13.918  0.00  0.00    +0.000 HD
BRANCH  17  20
ATOM     20  C   UNL     1      47.681   5.474  14.521  0.00  0.00    +0.000 A 
ATOM     21  C   UNL     1      48.188   6.465  13.693  0.00  0.00    +0.000 A 
ATOM     22  S   UNL     1      49.224   7.557  14.501  0.00  0.00    +0.000 S 
ATOM     23  C   UNL     1      49.065   6.712  15.971  0.00  0.00    +0.000 A 
ATOM     24  N   UNL     1      49.678   7.141  17.104  0.00  0.00    +0.000 NA
ATOM     25  C   UNL     1      49.464   6.401  18.143  0.00  0.00    +0.000 A 
ATOM     26  N   UNL     1      48.714   5.243  18.160  0.00  0.00    +0.000 N 
ATOM     27  C   UNL     1      48.527   4.485  19.379  0.00  0.00    +0.000 C 
ATOM     28  C   UNL     1      48.103   4.761  17.012  0.00  0.00    +0.000 A 
ATOM     29  O   UNL     1      47.455   3.716  16.999  0.00  0.00    +0.000 OA
ATOM     30  C   UNL     1      48.262   5.599  15.838  0.00  0.00    +0.000 A 
ENDBRANCH  17  20
ENDBRANCH   2  16
TORSDOF 5
ENDMDL
MODEL 2
REMARK VINA RESULT:    -8.060      1.813      2.731
REMARK INTER + INTRA:         -11.250
REMARK INTER:                 -11.026
REMARK INTRA:                  -0.224
REMARK UNBOUND:                -0.834
REMARK  Name = 
REMARK  7 active torsions:
REMARK  status: ('A' for Active; 'I' for Inactive)
REMARK    1  A    between atoms: C_1  and  C_2
REMARK    2  A    between atoms: C_2  and  N_3
REMARK    3  A    between atoms: C_2  and  C_17
REMARK    4  A    between atoms: C_4  and  C_6
REMARK    5  A    between atoms: N_12  and  C_13
REMARK    6  A    between atoms: C_20  and  C_21
REMARK    7  A    between atoms: C_21  and  C_22
REMARK                            x       y       z     vdW  Elec       q    Type
REMARK                         _______ _______ _______ _____ _____    ______ ____
ROOT
ATOM      1  C   UNL     1      47.131   7.802  12.309  0.00  0.00    +0.000 C 
ATOM      2  C   UNL     1      46.030   6.844  12.777  0.00  0.00    +0.000 C 
ENDROOT
BRANCH   2   3
ATOM      3  C   UNL     1      45.645   5.798  11.739  0.00  0.00    +0.000 A 
ATOM      4  C   UNL     1      45.981   6.011  10.393  0.00  0.00    +0.000 A 
ATOM      5  C   UNL     1      45.611   5.094   9.404  0.00  0.00    +0.000 A 
ATOM      6  C   UNL     1      44.882   3.944   9.734  0.00  0.00    +0.000 A 
ATOM      7  C   UNL     1      44.521   3.739  11.070  0.00  0.00    +0.000 A 
ATOM      8  C   UNL     1      44.887   4.659  12.057  0.00  0.00    +0.000 A 
BRANCH   6   9
ATOM      9  C   UNL     1      44.529   2.920   8.680  0.00  0.00    +0.000 C 
BRANCH   9  10
ATOM     10  C   UNL     1      45.723   2.484   7.867  0.00  0.00    +0.000 A 
ATOM     11  C   UNL     1      46.183   3.255   6.796  0.00  0.00    +0.000 A 
ATOM     12  C   UNL     1      47.242   2.778   6.037  0.00  0.00    +0.000 A 
ATOM     13  N   UNL     1      47.870   1.608   6.275  0.00  0.00    +0.000 NA
ATOM     14  C   UNL     1      47.412   0.878   7.314  0.00  0.00    +0.000 A 
ATOM     15  C   UNL     1      46.360   1.267   8.128  0.00  0.00    +0.000 A 
ENDBRANCH   9  10
ENDBRANCH   6   9
ENDBRANCH   2   3
BRANCH   2  16
ATOM     16  N   UNL     1      46.437   6.148  13.978  0.00  0.00    +0.000 N 
ATOM     17  C   UNL     1      47.706   5.710  14.235  0.00  0.00    +0.000 C 
ATOM     18  O   UNL     1      48.661   5.962  13.505  0.00  0.00    +0.000 OA
ATOM     19  H   UNL     1      45.671   5.749  14.504  0.00  0.00    +0.000 HD
BRANCH  17  20
ATOM     20  C   UNL     1      47.865   4.978  15.499  0.00  0.00    +0.000 A 
ATOM     21  C   UNL     1      47.409   3.674  15.627  0.00  0.00    +0.000 A 
ATOM     22  S   UNL     1      47.812   2.962  17.128  0.00  0.00    +0.000 S 
ATOM     23  C   UNL     1      48.565   4.390  17.670  0.00  0.00    +0.000 A 
ATOM     24  N   UNL     1      49.164   4.456  18.887  0.00  0.00    +0.000 NA
ATOM     25  C   UNL     1      49.696   5.604  19.161  0.00  0.00    +0.000 A 
ATOM     26  N   UNL     1      49.666   6.715  18.345  0.00  0.00    +0.000 N 
ATOM     27  C   UNL     1      50.298   7.956  18.739  0.00  0.00    +0.000 C 
ATOM     28  C   UNL     1      49.033   6.689  17.111  0.00  0.00    +0.000 A 
ATOM     29  O   UNL     1      48.969   7.676  16.381  0.00  0.00    +0.000 OA
ATOM     30  C   UNL     1      48.482   5.401  16.735  0.00  0.00    +0.000 A 
ENDBRANCH  17  20
ENDBRANCH   2  16
TORSDOF 5
ENDMDL
MODEL 3
REMARK VINA RESULT:    -7.795      2.153      3.390
REMARK INTER + INTRA:         -10.907
REMARK INTER:                  -9.479
REMARK INTRA:                  -1.428
REMARK UNBOUND:                -0.834
REMARK  Name = 
REMARK  7 active torsions:
REMARK  status: ('A' for Active; 'I' for Inactive)
REMARK    1  A    between atoms: C_1  and  C_2
REMARK    2  A    between atoms: C_2  and  N_3
REMARK    3  A    between atoms: C_2  and  C_17
REMARK    4  A    between atoms: C_4  and  C_6
REMARK    5  A    between atoms: N_12  and  C_13
REMARK    6  A    between atoms: C_20  and  C_21
REMARK    7  A    between atoms: C_21  and  C_22
REMARK                            x       y       z     vdW  Elec       q    Type
REMARK                         _______ _______ _______ _____ _____    ______ ____
ROOT
ATOM      1  C   UNL     1      47.667   9.264  12.590  0.00  0.00    +0.000 C 
ATOM      2  C   UNL     1      47.043   8.164  13.454  0.00  0.00    +0.000 C 
ENDROOT
BRANCH   2   3
ATOM      3  C   UNL     1      46.274   7.119  12.657  0.00  0.00    +0.000 A 
ATOM      4  C   UNL     1      45.237   7.533  11.805  0.00  0.00    +0.000 A 
ATOM      5  C   UNL     1      44.480   6.602  11.087  0.00  0.00    +0.000 A 
ATOM      6  C   UNL     1      44.731   5.230  11.211  0.00  0.00    +0.000 A 
ATOM      7  C   UNL     1      45.744   4.808  12.079  0.00  0.00    +0.000 A 
ATOM      8  C   UNL     1      46.497   5.740  12.801  0.00  0.00    +0.000 A 
BRANCH   6   9
ATOM      9  C   UNL     1      43.956   4.222  10.394  0.00  0.00    +0.000 C 
BRANCH   9  10
ATOM     10  C   UNL     1      44.806   3.540   9.349  0.00  0.00    +0.000 A 
ATOM     11  C   UNL     1      44.963   2.151   9.347  0.00  0.00    +0.000 A 
ATOM     12  C   UNL     1      45.808   1.579   8.408  0.00  0.00    +0.000 A 
ATOM     13  N   UNL     1      46.490   2.283   7.481  0.00  0.00    +0.000 NA
ATOM     14  C   UNL     1      46.324   3.622   7.499  0.00  0.00    +0.000 A 
ATOM     15  C   UNL     1      45.505   4.288   8.398  0.00  0.00    +0.000 A 
ENDBRANCH   9  10
ENDBRANCH   6   9
ENDBRANCH   2   3
BRANCH   2  16
ATOM     16  N   UNL     1      48.063   7.475  14.217  0.00  0.00    +0.000 N 
ATOM     17  C   UNL     1      48.622   7.944  15.373  0.00  0.00    +0.000 C 
ATOM     18  O   UNL     1      48.232   8.960  15.940  0.00  0.00    +0.000 OA
ATOM     19  H   UNL     1      48.548   6.754  13.701  0.00  0.00    +0.000 HD
BRANCH  17  20
ATOM     20  C   UNL     1      49.679   7.094  15.938  0.00  0.00    +0.000 A 
ATOM     21  C   UNL     1      50.996   7.529  15.980  0.00  0.00    +0.000 A 
ATOM     22  S   UNL     1      52.039   6.449  16.795  0.00  0.00    +0.000 S 
ATOM     23  C   UNL     1      50.773   5.345  17.075  0.00  0.00    +0.000 A 
ATOM     24  N   UNL     1      50.977   4.196  17.769  0.00  0.00    +0.000 NA
ATOM     25  C   UNL     1      49.924   3.457  17.905  0.00  0.00    +0.000 A 
ATOM     26  N   UNL     1      48.677   3.739  17.388  0.00  0.00    +0.000 N 
ATOM     27  C   UNL     1      47.554   2.850  17.601  0.00  0.00    +0.000 C 
ATOM     28  C   UNL     1      48.444   4.888  16.647  0.00  0.00    +0.000 A 
ATOM     29  O   UNL     1      47.348   5.144  16.152  0.00  0.00    +0.000 OA
ATOM     30  C   UNL     1      49.584   5.778  16.528  0.00  0.00    +0.000 A 
ENDBRANCH  17  20
ENDBRANCH   2  16
TORSDOF 5
ENDMDL
MODEL 4
REMARK VINA RESULT:    -7.552      1.592      2.183
REMARK INTER + INTRA:         -10.594
REMARK INTER:                 -10.538
REMARK INTRA:                  -0.056
REMARK UNBOUND:                -0.834
REMARK  Name = 
REMARK  7 active torsions:
REMARK  status: ('A' for Active; 'I' for Inactive)
REMARK    1  A    between atoms: C_1  and  C_2
REMARK    2  A    between atoms: C_2  and  N_3
REMARK    3  A    between atoms: C_2  and  C_17
REMARK    4  A    between atoms: C_4  and  C_6
REMARK    5  A    between atoms: N_12  and  C_13
REMARK    6  A    between atoms: C_20  and  C_21
REMARK    7  A    between atoms: C_21  and  C_22
REMARK                            x       y       z     vdW  Elec       q    Type
REMARK                         _______ _______ _______ _____ _____    ______ ____
ROOT
ATOM      1  C   UNL     1      44.849   8.349  11.542  0.00  0.00    +0.000 C 
ATOM      2  C   UNL     1      44.901   7.108  12.439  0.00  0.00    +0.000 C 
ENDROOT
BRANCH   2   3
ATOM      3  C   UNL     1      44.871   5.793  11.670  0.00  0.00    +0.000 A 
ATOM      4  C   UNL     1      44.699   5.817  10.277  0.00  0.00    +0.000 A 
ATOM      5  C   UNL     1      44.626   4.632   9.539  0.00  0.00    +0.000 A 
ATOM      6  C   UNL     1      44.710   3.388  10.177  0.00  0.00    +0.000 A 
ATOM      7  C   UNL     1      44.855   3.356  11.568  0.00  0.00    +0.000 A 
ATOM      8  C   UNL     1      44.922   4.542  12.305  0.00  0.00    +0.000 A 
BRANCH   6   9
ATOM      9  C   UNL     1      44.691   2.104   9.380  0.00  0.00    +0.000 C 
BRANCH   9  10
ATOM     10  C   UNL     1      45.813   2.024   8.374  0.00  0.00    +0.000 A 
ATOM     11  C   UNL     1      46.375   0.794   8.021  0.00  0.00    +0.000 A 
ATOM     12  C   UNL     1      47.448   0.780   7.143  0.00  0.00    +0.000 A 
ATOM     13  N   UNL     1      47.987   1.889   6.595  0.00  0.00    +0.000 NA
ATOM     14  C   UNL     1      47.430   3.067   6.948  0.00  0.00    +0.000 A 
ATOM     15  C   UNL     1      46.358   3.185   7.819  0.00  0.00    +0.000 A 
ENDBRANCH   9  10
ENDBRANCH   6   9
ENDBRANCH   2   3
BRANCH   2  16
ATOM     16  N   UNL     1      46.097   7.117  13.254  0.00  0.00    +0.000 N 
ATOM     17  C   UNL     1      47.370   6.988  12.773  0.00  0.00    +0.000 C 
ATOM     18  O   UNL     1      47.631   6.956  11.574  0.00  0.00    +0.000 OA
ATOM     19  H   UNL     1      45.929   6.942  14.235  0.00  0.00    +0.000 HD
BRANCH  17  20
ATOM     20  C   UNL     1      48.420   6.970  13.800  0.00  0.00    +0.000 A 
ATOM     21  C   UNL     1      49.507   7.829  13.721  0.00  0.00    +0.000 A 
ATOM     22  S   UNL     1      50.537   7.740  15.082  0.00  0.00    +0.000 S 
ATOM     23  C   UNL     1      49.589   6.519  15.795  0.00  0.00    +0.000 A 
ATOM     24  N   UNL     1      49.897   6.005  17.013  0.00  0.00    +0.000 NA
ATOM     25  C   UNL     1      49.086   5.086  17.429  0.00  0.00    +0.000 A 
ATOM     26  N   UNL     1      48.000   4.602  16.729  0.00  0.00    +0.000 N 
ATOM     27  C   UNL     1      47.145   3.574  17.284  0.00  0.00    +0.000 C 
ATOM     28  C   UNL     1      47.679   5.083  15.469  0.00  0.00    +0.000 A 
ATOM     29  O   UNL     1      46.734   4.645  14.816  0.00  0.00    +0.000 OA
ATOM     30  C   UNL     1      48.524   6.163  14.994  0.00  0.00    +0.000 A 
ENDBRANCH  17  20
ENDBRANCH   2  16
TORSDOF 5
ENDMDL
MODEL 5
REMARK VINA RESULT:    -7.512      2.328      4.032
REMARK INTER + INTRA:         -10.541
REMARK INTER:                  -9.336
REMARK INTRA:                  -1.205
REMARK UNBOUND:                -0.834
REMARK  Name = 
REMARK  7 active torsions:
REMARK  status: ('A' for Active; 'I' for Inactive)
REMARK    1  A    between atoms: C_1  and  C_2
REMARK    2  A    between atoms: C_2  and  N_3
REMARK    3  A    between atoms: C_2  and  C_17
REMARK    4  A    between atoms: C_4  and  C_6
REMARK    5  A    between atoms: N_12  and  C_13
REMARK    6  A    between atoms: C_20  and  C_21
REMARK    7  A    between atoms: C_21  and  C_22
REMARK                            x       y       z     vdW  Elec       q    Type
REMARK                         _______ _______ _______ _____ _____    ______ ____
ROOT
ATOM      1  C   UNL     1      49.707   7.663  13.229  0.00  0.00    +0.000 C 
ATOM      2  C   UNL     1      48.269   7.904  13.698  0.00  0.00    +0.000 C 
ENDROOT
BRANCH   2   3
ATOM      3  C   UNL     1      47.236   7.049  12.975  0.00  0.00    +0.000 A 
ATOM      4  C   UNL     1      46.374   7.654  12.047  0.00  0.00    +0.000 A 
ATOM      5  C   UNL     1      45.386   6.912  11.391  0.00  0.00    +0.000 A 
ATOM      6  C   UNL     1      45.224   5.547  11.658  0.00  0.00    +0.000 A 
ATOM      7  C   UNL     1      46.062   4.943  12.601  0.00  0.00    +0.000 A 
ATOM      8  C   UNL     1      47.046   5.687  13.260  0.00  0.00    +0.000 A 
BRANCH   6   9
ATOM      9  C   UNL     1      44.197   4.727  10.911  0.00  0.00    +0.000 C 
BRANCH   9  10
ATOM     10  C   UNL     1      44.801   3.915   9.790  0.00  0.00    +0.000 A 
ATOM     11  C   UNL     1      44.723   2.520   9.792  0.00  0.00    +0.000 A 
ATOM     12  C   UNL     1      45.352   1.817   8.775  0.00  0.00    +0.000 A 
ATOM     13  N   UNL     1      46.034   2.400   7.768  0.00  0.00    +0.000 NA
ATOM     14  C   UNL     1      46.097   3.748   7.783  0.00  0.00    +0.000 A 
ATOM     15  C   UNL     1      45.505   4.539   8.756  0.00  0.00    +0.000 A 
ENDBRANCH   9  10
ENDBRANCH   6   9
ENDBRANCH   2   3
BRANCH   2  16
ATOM     16  N   UNL     1      48.145   7.642  15.116  0.00  0.00    +0.000 N 
ATOM     17  C   UNL     1      48.632   8.451  16.104  0.00  0.00    +0.000 C 
ATOM     18  O   UNL     1      49.139   9.547  15.882  0.00  0.00    +0.000 OA
ATOM     19  H   UNL     1      47.921   6.683  15.342  0.00  0.00    +0.000 HD
BRANCH  17  20
ATOM     20  C   UNL     1      48.433   7.948  17.470  0.00  0.00    +0.000 A 
ATOM     21  C   UNL     1      47.909   8.766  18.460  0.00  0.00    +0.000 A 
ATOM     22  S   UNL     1      47.633   7.950  19.936  0.00  0.00    +0.000 S 
ATOM     23  C   UNL     1      48.248   6.490  19.311  0.00  0.00    +0.000 A 
ATOM     24  N   UNL     1      48.270   5.355  20.056  0.00  0.00    +0.000 NA
ATOM     25  C   UNL     1      48.763   4.324  19.449  0.00  0.00    +0.000 A 
ATOM     26  N   UNL     1      49.270   4.318  18.166  0.00  0.00    +0.000 N 
ATOM     27  C   UNL     1      49.796   3.108  17.570  0.00  0.00    +0.000 C 
ATOM     28  C   UNL     1      49.293   5.469  17.392  0.00  0.00    +0.000 A 
ATOM     29  O   UNL     1      49.767   5.492  16.258  0.00  0.00    +0.000 OA
ATOM     30  C   UNL     1      48.686   6.633  18.011  0.00  0.00    +0.000 A 
ENDBRANCH  17  20
ENDBRANCH   2  16
TORSDOF 5
ENDMDL
MODEL 6
REMARK VINA RESULT:    -7.478      2.644      3.909
REMARK INTER + INTRA:         -10.498
REMARK INTER:                  -9.497
REMARK INTRA:                  -1.001
REMARK UNBOUND:                -0.834
REMARK  Name = 
REMARK  7 active torsions:
REMARK  status: ('A' for Active; 'I' for Inactive)
REMARK    1  A    between atoms: C_1  and  C_2
REMARK    2  A    between atoms: C_2  and  N_3
REMARK    3  A    between atoms: C_2  and  C_17
REMARK    4  A    between atoms: C_4  and  C_6
REMARK    5  A    between atoms: N_12  and  C_13
REMARK    6  A    between atoms: C_20  and  C_21
REMARK    7  A    between atoms: C_21  and  C_22
REMARK                            x       y       z     vdW  Elec       q    Type
REMARK                         _______ _______ _______ _____ _____    ______ ____
ROOT
ATOM      1  C   UNL     1      49.078   7.767  12.968  0.00  0.00    +0.000 C 
ATOM      2  C   UNL     1      47.868   7.157  13.684  0.00  0.00    +0.000 C 
ENDROOT
BRANCH   2   3
ATOM      3  C   UNL     1      46.954   6.352  12.770  0.00  0.00    +0.000 A 
ATOM      4  C   UNL     1      46.537   6.913  11.552  0.00  0.00    +0.000 A 
ATOM      5  C   UNL     1      45.666   6.223  10.702  0.00  0.00    +0.000 A 
ATOM      6  C   UNL     1      45.179   4.958  11.054  0.00  0.00    +0.000 A 
ATOM      7  C   UNL     1      45.569   4.405  12.279  0.00  0.00    +0.000 A 
ATOM      8  C   UNL     1      46.436   5.098  13.130  0.00  0.00    +0.000 A 
BRANCH   6   9
ATOM      9  C   UNL     1      44.284   4.182  10.115  0.00  0.00    +0.000 C 
BRANCH   9  10
ATOM     10  C   UNL     1      45.059   3.416   9.070  0.00  0.00    +0.000 A 
ATOM     11  C   UNL     1      45.231   2.033   9.175  0.00  0.00    +0.000 A 
ATOM     12  C   UNL     1      46.008   1.385   8.225  0.00  0.00    +0.000 A 
ATOM     13  N   UNL     1      46.609   2.010   7.192  0.00  0.00    +0.000 NA
ATOM     14  C   UNL     1      46.431   3.345   7.108  0.00  0.00    +0.000 A 
ATOM     15  C   UNL     1      45.676   4.082   8.007  0.00  0.00    +0.000 A 
ENDBRANCH   9  10
ENDBRANCH   6   9
ENDBRANCH   2   3
BRANCH   2  16
ATOM     16  N   UNL     1      48.297   6.287  14.759  0.00  0.00    +0.000 N 
ATOM     17  C   UNL     1      48.709   6.713  15.990  0.00  0.00    +0.000 C 
ATOM     18  O   UNL     1      48.656   7.887  16.344  0.00  0.00    +0.000 OA
ATOM     19  H   UNL     1      48.544   5.354  14.460  0.00  0.00    +0.000 HD
BRANCH  17  20
ATOM     20  C   UNL     1      49.151   5.645  16.898  0.00  0.00    +0.000 A 
ATOM     21  C   UNL     1      48.229   4.846  17.558  0.00  0.00    +0.000 A 
ATOM     22  S   UNL     1      48.950   3.583  18.455  0.00  0.00    +0.000 S 
ATOM     23  C   UNL     1      50.517   4.094  18.028  0.00  0.00    +0.000 A 
ATOM     24  N   UNL     1      51.619   3.417  18.441  0.00  0.00    +0.000 NA
ATOM     25  C   UNL     1      52.740   3.920  18.036  0.00  0.00    +0.000 A 
ATOM     26  N   UNL     1      52.877   5.062  17.276  0.00  0.00    +0.000 N 
ATOM     27  C   UNL     1      54.179   5.544  16.866  0.00  0.00    +0.000 C 
ATOM     28  C   UNL     1      51.772   5.795  16.867  0.00  0.00    +0.000 A 
ATOM     29  O   UNL     1      51.872   6.831  16.214  0.00  0.00    +0.000 OA
ATOM     30  C   UNL     1      50.490   5.226  17.242  0.00  0.00    +0.000 A 
ENDBRANCH  17  20
ENDBRANCH   2  16
TORSDOF 5
ENDMDL
MODEL 7
REMARK VINA RESULT:    -7.390      4.614      7.835
REMARK INTER + INTRA:         -10.384
REMARK INTER:                  -9.060
REMARK INTRA:                  -1.324
REMARK UNBOUND:                -0.834
REMARK  Name = 
REMARK  7 active torsions:
REMARK  status: ('A' for Active; 'I' for Inactive)
REMARK    1  A    between atoms: C_1  and  C_2
REMARK    2  A    between atoms: C_2  and  N_3
REMARK    3  A    between atoms: C_2  and  C_17
REMARK    4  A    between atoms: C_4  and  C_6
REMARK    5  A    between atoms: N_12  and  C_13
REMARK    6  A    between atoms: C_20  and  C_21
REMARK    7  A    between atoms: C_21  and  C_22
REMARK                            x       y       z     vdW  Elec       q    Type
REMARK                         _______ _______ _______ _____ _____    ______ ____
ROOT
ATOM      1  C   UNL     1      46.026   8.934  13.444  0.00  0.00    +0.000 C 
ATOM      2  C   UNL     1      46.429   8.441  12.050  0.00  0.00    +0.000 C 
ENDROOT
BRANCH   2   3
ATOM      3  C   UNL     1      47.930   8.475  11.797  0.00  0.00    +0.000 A 
ATOM      4  C   UNL     1      48.675   7.292  11.928  0.00  0.00    +0.000 A 
ATOM      5  C   UNL     1      50.061   7.289  11.744  0.00  0.00    +0.000 A 
ATOM      6  C   UNL     1      50.742   8.473  11.436  0.00  0.00    +0.000 A 
ATOM      7  C   UNL     1      50.011   9.661  11.330  0.00  0.00    +0.000 A 
ATOM      8  C   UNL     1      48.625   9.663  11.520  0.00  0.00    +0.000 A 
BRANCH   6   9
ATOM      9  C   UNL     1      52.232   8.467  11.178  0.00  0.00    +0.000 C 
BRANCH   9  10
ATOM     10  C   UNL     1      52.570   8.281   9.719  0.00  0.00    +0.000 A 
ATOM     11  C   UNL     1      53.024   9.353   8.945  0.00  0.00    +0.000 A 
ATOM     12  C   UNL     1      53.257   9.146   7.593  0.00  0.00    +0.000 A 
ATOM     13  N   UNL     1      53.081   7.962   6.972  0.00  0.00    +0.000 NA
ATOM     14  C   UNL     1      52.644   6.939   7.736  0.00  0.00    +0.000 A 
ATOM     15  C   UNL     1      52.380   7.046   9.093  0.00  0.00    +0.000 A 
ENDBRANCH   9  10
ENDBRANCH   6   9
ENDBRANCH   2   3
BRANCH   2  16
ATOM     16  N   UNL     1      45.975   7.083  11.839  0.00  0.00    +0.000 N 
ATOM     17  C   UNL     1      44.713   6.733  11.448  0.00  0.00    +0.000 C 
ATOM     18  O   UNL     1      43.859   7.556  11.134  0.00  0.00    +0.000 OA
ATOM     19  H   UNL     1      46.562   6.380  12.267  0.00  0.00    +0.000 HD
BRANCH  17  20
ATOM     20  C   UNL     1      44.473   5.287  11.354  0.00  0.00    +0.000 A 
ATOM     21  C   UNL     1      43.781   4.614  12.350  0.00  0.00    +0.000 A 
ATOM     22  S   UNL     1      43.495   2.970  11.982  0.00  0.00    +0.000 S 
ATOM     23  C   UNL     1      44.326   3.096  10.502  0.00  0.00    +0.000 A 
ATOM     24  N   UNL     1      44.428   2.039   9.655  0.00  0.00    +0.000 NA
ATOM     25  C   UNL     1      45.085   2.283   8.568  0.00  0.00    +0.000 A 
ATOM     26  N   UNL     1      45.685   3.484   8.249  0.00  0.00    +0.000 N 
ATOM     27  C   UNL     1      46.395   3.662   7.000  0.00  0.00    +0.000 C 
ATOM     28  C   UNL     1      45.627   4.572   9.107  0.00  0.00    +0.000 A 
ATOM     29  O   UNL     1      46.179   5.641   8.855  0.00  0.00    +0.000 OA
ATOM     30  C   UNL     1      44.841   4.360  10.308  0.00  0.00    +0.000 A 
ENDBRANCH  17  20
ENDBRANCH   2  16
TORSDOF 5
ENDMDL
MODEL 8
REMARK VINA RESULT:    -7.269      2.634      3.624
REMARK INTER + INTRA:         -10.228
REMARK INTER:                  -8.996
REMARK INTRA:                  -1.233
REMARK UNBOUND:                -0.834
REMARK  Name = 
REMARK  7 active torsions:
REMARK  status: ('A' for Active; 'I' for Inactive)
REMARK    1  A    between atoms: C_1  and  C_2
REMARK    2  A    between atoms: C_2  and  N_3
REMARK    3  A    between atoms: C_2  and  C_17
REMARK    4  A    between atoms: C_4  and  C_6
REMARK    5  A    between atoms: N_12  and  C_13
REMARK    6  A    between atoms: C_20  and  C_21
REMARK    7  A    between atoms: C_21  and  C_22
REMARK                            x       y       z     vdW  Elec       q    Type
REMARK                         _______ _______ _______ _____ _____    ______ ____
ROOT
ATOM      1  C   UNL     1      47.164   4.385  16.320  0.00  0.00    +0.000 C 
ATOM      2  C   UNL     1      47.747   5.097  15.095  0.00  0.00    +0.000 C 
ENDROOT
BRANCH   2   3
ATOM      3  C   UNL     1      46.897   4.953  13.839  0.00  0.00    +0.000 A 
ATOM      4  C   UNL     1      46.298   3.716  13.554  0.00  0.00    +0.000 A 
ATOM      5  C   UNL     1      45.543   3.531  12.391  0.00  0.00    +0.000 A 
ATOM      6  C   UNL     1      45.378   4.577  11.475  0.00  0.00    +0.000 A 
ATOM      7  C   UNL     1      45.994   5.805  11.739  0.00  0.00    +0.000 A 
ATOM      8  C   UNL     1      46.753   5.986  12.900  0.00  0.00    +0.000 A 
BRANCH   6   9
ATOM      9  C   UNL     1      44.515   4.403  10.246  0.00  0.00    +0.000 C 
BRANCH   9  10
ATOM     10  C   UNL     1      45.212   3.635   9.149  0.00  0.00    +0.000 A 
ATOM     11  C   UNL     1      45.264   2.239   9.172  0.00  0.00    +0.000 A 
ATOM     12  C   UNL     1      45.974   1.582   8.177  0.00  0.00    +0.000 A 
ATOM     13  N   UNL     1      46.616   2.211   7.172  0.00  0.00    +0.000 NA
ATOM     14  C   UNL     1      46.552   3.560   7.165  0.00  0.00    +0.000 A 
ATOM     15  C   UNL     1      45.873   4.306   8.116  0.00  0.00    +0.000 A 
ENDBRANCH   9  10
ENDBRANCH   6   9
ENDBRANCH   2   3
BRANCH   2  16
ATOM     16  N   UNL     1      47.914   6.510  15.357  0.00  0.00    +0.000 N 
ATOM     17  C   UNL     1      49.118   7.143  15.490  0.00  0.00    +0.000 C 
ATOM     18  O   UNL     1      50.192   6.583  15.293  0.00  0.00    +0.000 OA
ATOM     19  H   UNL     1      47.086   6.964  15.719  0.00  0.00    +0.000 HD
BRANCH  17  20
ATOM     20  C   UNL     1      49.033   8.574  15.811  0.00  0.00    +0.000 A 
ATOM     21  C   UNL     1      49.442   9.534  14.896  0.00  0.00    +0.000 A 
ATOM     22  S   UNL     1      49.134  11.133  15.412  0.00  0.00    +0.000 S 
ATOM     23  C   UNL     1      48.488  10.594  16.892  0.00  0.00    +0.000 A 
ATOM     24  N   UNL     1      47.994  11.466  17.808  0.00  0.00    +0.000 NA
ATOM     25  C   UNL     1      47.534  10.912  18.884  0.00  0.00    +0.000 A 
ATOM     26  N   UNL     1      47.544   9.560  19.154  0.00  0.00    +0.000 N 
ATOM     27  C   UNL     1      46.999   9.034  20.387  0.00  0.00    +0.000 C 
ATOM     28  C   UNL     1      48.072   8.647  18.253  0.00  0.00    +0.000 A 
ATOM     29  O   UNL     1      48.118   7.441  18.486  0.00  0.00    +0.000 OA
ATOM     30  C   UNL     1      48.537   9.221  17.004  0.00  0.00    +0.000 A 
ENDBRANCH  17  20
ENDBRANCH   2  16
TORSDOF 5
ENDMDL
MODEL 9
REMARK VINA RESULT:    -7.233      2.758      4.316
REMARK INTER + INTRA:         -10.182
REMARK INTER:                  -8.886
REMARK INTRA:                  -1.296
REMARK UNBOUND:                -0.834
REMARK  Name = 
REMARK  7 active torsions:
REMARK  status: ('A' for Active; 'I' for Inactive)
REMARK    1  A    between atoms: C_1  and  C_2
REMARK    2  A    between atoms: C_2  and  N_3
REMARK    3  A    between atoms: C_2  and  C_17
REMARK    4  A    between atoms: C_4  and  C_6
REMARK    5  A    between atoms: N_12  and  C_13
REMARK    6  A    between atoms: C_20  and  C_21
REMARK    7  A    between atoms: C_21  and  C_22
REMARK                            x       y       z     vdW  Elec       q    Type
REMARK                         _______ _______ _______ _____ _____    ______ ____
ROOT
ATOM      1  C   UNL     1      46.843   4.132  16.221  0.00  0.00    +0.000 C 
ATOM      2  C   UNL     1      47.545   4.707  14.987  0.00  0.00    +0.000 C 
ENDROOT
BRANCH   2   3
ATOM      3  C   UNL     1      46.760   4.523  13.694  0.00  0.00    +0.000 A 
ATOM      4  C   UNL     1      46.551   5.630  12.856  0.00  0.00    +0.000 A 
ATOM      5  C   UNL     1      45.803   5.513  11.681  0.00  0.00    +0.000 A 
ATOM      6  C   UNL     1      45.231   4.287  11.318  0.00  0.00    +0.000 A 
ATOM      7  C   UNL     1      45.413   3.186  12.162  0.00  0.00    +0.000 A 
ATOM      8  C   UNL     1      46.157   3.306  13.339  0.00  0.00    +0.000 A 
BRANCH   6   9
ATOM      9  C   UNL     1      44.471   4.139  10.020  0.00  0.00    +0.000 C 
BRANCH   9  10
ATOM     10  C   UNL     1      45.255   3.395   8.966  0.00  0.00    +0.000 A 
ATOM     11  C   UNL     1      45.335   2.000   8.982  0.00  0.00    +0.000 A 
ATOM     12  C   UNL     1      46.123   1.368   8.031  0.00  0.00    +0.000 A 
ATOM     13  N   UNL     1      46.818   2.020   7.076  0.00  0.00    +0.000 NA
ATOM     14  C   UNL     1      46.726   3.366   7.076  0.00  0.00    +0.000 A 
ATOM     15  C   UNL     1      45.969   4.089   7.985  0.00  0.00    +0.000 A 
ENDBRANCH   9  10
ENDBRANCH   6   9
ENDBRANCH   2   3
BRANCH   2  16
ATOM     16  N   UNL     1      47.795   6.122  15.155  0.00  0.00    +0.000 N 
ATOM     17  C   UNL     1      48.877   6.652  15.801  0.00  0.00    +0.000 C 
ATOM     18  O   UNL     1      49.808   5.969  16.215  0.00  0.00    +0.000 OA
ATOM     19  H   UNL     1      46.981   6.705  15.014  0.00  0.00    +0.000 HD
BRANCH  17  20
ATOM     20  C   UNL     1      48.885   8.119  15.894  0.00  0.00    +0.000 A 
ATOM     21  C   UNL     1      48.668   8.755  17.106  0.00  0.00    +0.000 A 
ATOM     22  S   UNL     1      48.853  10.452  17.021  0.00  0.00    +0.000 S 
ATOM     23  C   UNL     1      49.182  10.391  15.352  0.00  0.00    +0.000 A 
ATOM     24  N   UNL     1      49.471  11.515  14.646  0.00  0.00    +0.000 NA
ATOM     25  C   UNL     1      49.702  11.314  13.389  0.00  0.00    +0.000 A 
ATOM     26  N   UNL     1      49.645  10.093  12.750  0.00  0.00    +0.000 N 
ATOM     27  C   UNL     1      49.927   9.970  11.335  0.00  0.00    +0.000 C 
ATOM     28  C   UNL     1      49.320   8.933  13.436  0.00  0.00    +0.000 A 
ATOM     29  O   UNL     1      49.234   7.840  12.880  0.00  0.00    +0.000 OA
ATOM     30  C   UNL     1      49.120   9.103  14.863  0.00  0.00    +0.000 A 
ENDBRANCH  17  20
ENDBRANCH   2  16
TORSDOF 5
ENDMDL
