MODEL 1
REMARK VINA RESULT:    -7.954      0.000      0.000
REMARK INTER + INTRA:         -10.319
REMARK INTER:                  -9.814
REMARK INTRA:                  -0.505
REMARK UNBOUND:                -0.505
REMARK  Name = 
REMARK  4 active torsions:
REMARK  status: ('A' for Active; 'I' for Inactive)
REMARK    1  A    between atoms: C_2  and  C_4
REMARK    2  A    between atoms: N_8  and  C_9
REMARK    3  A    between atoms: C_9  and  C_10
REMARK    4  A    between atoms: C_10  and  C_11
REMARK                            x       y       z     vdW  Elec       q    Type
REMARK                         _______ _______ _______ _____ _____    ______ ____
ROOT
ATOM      1  C   UNL     1      46.244   2.120   7.968  0.00  0.00    +0.000 A 
ATOM      2  C   UNL     1      46.380   3.482   7.712  0.00  0.00    +0.000 A 
ATOM      3  C   UNL     1      45.520   4.379   8.350  0.00  0.00    +0.000 A 
ATOM      4  C   UNL     1      44.582   3.910   9.270  0.00  0.00    +0.000 A 
ATOM      5  N   UNL     1      43.736   4.842   9.902  0.00  0.00    +0.000 N 
ATOM      6  N   UNL     1      44.428   2.590   9.498  0.00  0.00    +0.000 NA
ATOM      7  C   UNL     1      45.238   1.725   8.834  0.00  0.00    +0.000 A 
ATOM      8  H   UNL     1      44.224   5.724  10.019  0.00  0.00    +0.000 HD
ENDROOT
BRANCH   1  10
ATOM      9  N   UNL     1      46.842  -0.213   7.673  0.00  0.00    +0.000 N 
ATOM     10  C   UNL     1      47.104   1.091   7.352  0.00  0.00    +0.000 C 
ATOM     11  O   UNL     1      47.983   1.382   6.552  0.00  0.00    +0.000 OA
ATOM     12  H   UNL     1      47.356  -0.912   7.150  0.00  0.00    +0.000 HD
ATOM     13  H   UNL     1      45.978  -0.501   8.109  0.00  0.00    +0.000 HD
ENDBRANCH   1  10
BRANCH   5  14
ATOM     14  C   UNL     1      43.209   4.354  11.185  0.00  0.00    +0.000 C 
BRANCH  14  15
ATOM     15  C   UNL     1      43.357   5.445  12.252  0.00  0.00    +0.000 C 
BRANCH  15  16
ATOM     16  C   UNL     1      44.790   5.650  12.678  0.00  0.00    +0.000 A 
ATOM     17  C   UNL     1      45.430   6.881  12.476  0.00  0.00    +0.000 A 
ATOM     18  C   UNL     1      46.755   7.064  12.875  0.00  0.00    +0.000 A 
ATOM     19  C   UNL     1      47.454   6.021  13.483  0.00  0.00    +0.000 A 
ATOM     20  C   UNL     1      46.829   4.792  13.678  0.00  0.00    +0.000 A 
ATOM     21  C   UNL     1      45.508   4.605  13.278  0.00  0.00    +0.000 A 
ENDBRANCH  15  16
ENDBRANCH  14  15
ENDBRANCH   5  14
TORSDOF 4
ENDMDL
MODEL 2
REMARK VINA RESULT:    -7.484      3.128      6.665
REMARK INTER + INTRA:          -9.739
REMARK INTER:                  -9.400
REMARK INTRA:                  -0.339
REMARK UNBOUND:                -0.505
REMARK  Name = 
REMARK  4 active torsions:
REMARK  status: ('A' for Active; 'I' for Inactive)
REMARK    1  A    between atoms: C_2  and  C_4
REMARK    2  A    between atoms: N_8  and  C_9
REMARK    3  A    between atoms: C_9  and  C_10
REMARK    4  A    between atoms: C_10  and  C_11
REMARK                            x       y       z     vdW  Elec       q    Type
REMARK                         _______ _______ _______ _____ _____    ______ ____
ROOT
ATOM      1  C   UNL     1      45.597   7.258  12.671  0.00  0.00    +0.000 A 
ATOM      2  C   UNL     1      46.292   6.177  13.207  0.00  0.00    +0.000 A 
ATOM      3  C   UNL     1      45.977   4.887  12.772  0.00  0.00    +0.000 A 
ATOM      4  C   UNL     1      45.020   4.704  11.774  0.00  0.00    +0.000 A 
ATOM      5  N   UNL     1      44.732   3.392  11.352  0.00  0.00    +0.000 N 
ATOM      6  N   UNL     1      44.324   5.745  11.274  0.00  0.00    +0.000 NA
ATOM      7  C   UNL     1      44.606   6.989  11.741  0.00  0.00    +0.000 A 
ATOM      8  H   UNL     1      45.566   2.818  11.423  0.00  0.00    +0.000 HD
ENDROOT
BRANCH   1  10
ATOM      9  N   UNL     1      46.758   8.873  14.062  0.00  0.00    +0.000 N 
ATOM     10  C   UNL     1      45.856   8.659  13.056  0.00  0.00    +0.000 C 
ATOM     11  O   UNL     1      45.326   9.594  12.472  0.00  0.00    +0.000 OA
ATOM     12  H   UNL     1      47.018   9.837  14.230  0.00  0.00    +0.000 HD
ATOM     13  H   UNL     1      47.397   8.157  14.378  0.00  0.00    +0.000 HD
ENDBRANCH   1  10
BRANCH   5  14
ATOM     14  C   UNL     1      44.167   3.340   9.995  0.00  0.00    +0.000 C 
BRANCH  14  15
ATOM     15  C   UNL     1      44.556   2.017   9.324  0.00  0.00    +0.000 C 
BRANCH  15  16
ATOM     16  C   UNL     1      45.624   2.191   8.273  0.00  0.00    +0.000 A 
ATOM     17  C   UNL     1      45.767   3.406   7.589  0.00  0.00    +0.000 A 
ATOM     18  C   UNL     1      46.759   3.560   6.619  0.00  0.00    +0.000 A 
ATOM     19  C   UNL     1      47.621   2.504   6.325  0.00  0.00    +0.000 A 
ATOM     20  C   UNL     1      47.479   1.290   6.992  0.00  0.00    +0.000 A 
ATOM     21  C   UNL     1      46.488   1.131   7.957  0.00  0.00    +0.000 A 
ENDBRANCH  15  16
ENDBRANCH  14  15
ENDBRANCH   5  14
TORSDOF 4
ENDMDL
MODEL 3
REMARK VINA RESULT:    -7.357      1.411      1.726
REMARK INTER + INTRA:          -9.583
REMARK INTER:                  -9.086
REMARK INTRA:                  -0.497
REMARK UNBOUND:                -0.505
REMARK  Name = 
REMARK  4 active torsions:
REMARK  status: ('A' for Active; 'I' for Inactive)
REMARK    1  A    between atoms: C_2  and  C_4
REMARK    2  A    between atoms: N_8  and  C_9
REMARK    3  A    between atoms: C_9  and  C_10
REMARK    4  A    between atoms: C_10  and  C_11
REMARK                            x       y       z     vdW  Elec       q    Type
REMARK                         _______ _______ _______ _____ _____    ______ ____
ROOT
ATOM      1  C   UNL     1      46.618   2.575   7.331  0.00  0.00    +0.000 A 
ATOM      2  C   UNL     1      46.052   1.548   8.082  0.00  0.00    +0.000 A 
ATOM      3  C   UNL     1      45.240   1.874   9.171  0.00  0.00    +0.000 A 
ATOM      4  C   UNL     1      44.961   3.211   9.456  0.00  0.00    +0.000 A 
ATOM      5  N   UNL     1      44.131   3.505  10.554  0.00  0.00    +0.000 N 
ATOM      6  N   UNL     1      45.530   4.208   8.749  0.00  0.00    +0.000 NA
ATOM      7  C   UNL     1      46.357   3.878   7.723  0.00  0.00    +0.000 A 
ATOM      8  H   UNL     1      43.448   2.765  10.676  0.00  0.00    +0.000 HD
ENDROOT
BRANCH   1  10
ATOM      9  N   UNL     1      47.362   3.209   5.110  0.00  0.00    +0.000 N 
ATOM     10  C   UNL     1      47.484   2.341   6.160  0.00  0.00    +0.000 C 
ATOM     11  O   UNL     1      48.311   1.438   6.142  0.00  0.00    +0.000 OA
ATOM     12  H   UNL     1      48.046   3.111   4.369  0.00  0.00    +0.000 HD
ATOM     13  H   UNL     1      46.893   4.100   5.195  0.00  0.00    +0.000 HD
ENDBRANCH   1  10
BRANCH   5  14
ATOM     14  C   UNL     1      43.477   4.817  10.440  0.00  0.00    +0.000 C 
BRANCH  14  15
ATOM     15  C   UNL     1      43.605   5.575  11.767  0.00  0.00    +0.000 C 
BRANCH  15  16
ATOM     16  C   UNL     1      45.041   5.788  12.177  0.00  0.00    +0.000 A 
ATOM     17  C   UNL     1      45.892   6.603  11.417  0.00  0.00    +0.000 A 
ATOM     18  C   UNL     1      47.219   6.797  11.804  0.00  0.00    +0.000 A 
ATOM     19  C   UNL     1      47.709   6.183  12.957  0.00  0.00    +0.000 A 
ATOM     20  C   UNL     1      46.874   5.364  13.712  0.00  0.00    +0.000 A 
ATOM     21  C   UNL     1      45.551   5.165  13.326  0.00  0.00    +0.000 A 
ENDBRANCH  15  16
ENDBRANCH  14  15
ENDBRANCH   5  14
TORSDOF 4
ENDMDL
MODEL 4
REMARK VINA RESULT:    -7.347      2.861      6.460
REMARK INTER + INTRA:          -9.571
REMARK INTER:                  -9.174
REMARK INTRA:                  -0.397
REMARK UNBOUND:                -0.505
REMARK  Name = 
REMARK  4 active torsions:
REMARK  status: ('A' for Active; 'I' for Inactive)
REMARK    1  A    between atoms: C_2  and  C_4
REMARK    2  A    between atoms: N_8  and  C_9
REMARK    3  A    between atoms: C_9  and  C_10
REMARK    4  A    between atoms: C_10  and  C_11
REMARK                            x       y       z     vdW  Elec       q    Type
REMARK                         _______ _______ _______ _____ _____    ______ ____
ROOT
ATOM      1  C   UNL     1      47.085   5.992  13.151  0.00  0.00    +0.000 A 
ATOM      2  C   UNL     1      46.550   4.915  13.852  0.00  0.00    +0.000 A 
ATOM      3  C   UNL     1      45.550   4.146  13.251  0.00  0.00    +0.000 A 
ATOM      4  C   UNL     1      45.145   4.429  11.946  0.00  0.00    +0.000 A 
ATOM      5  N   UNL     1      44.141   3.630  11.366  0.00  0.00    +0.000 N 
ATOM      6  N   UNL     1      45.640   5.489  11.276  0.00  0.00    +0.000 NA
ATOM      7  C   UNL     1      46.576   6.257  11.890  0.00  0.00    +0.000 A 
ATOM      8  H   UNL     1      44.205   2.683  11.727  0.00  0.00    +0.000 HD
ENDROOT
BRANCH   1  10
ATOM      9  N   UNL     1      47.768   7.842  14.566  0.00  0.00    +0.000 N 
ATOM     10  C   UNL     1      48.148   6.862  13.691  0.00  0.00    +0.000 C 
ATOM     11  O   UNL     1      49.326   6.688  13.409  0.00  0.00    +0.000 OA
ATOM     12  H   UNL     1      48.517   8.348  15.022  0.00  0.00    +0.000 HD
ATOM     13  H   UNL     1      46.863   7.845  15.016  0.00  0.00    +0.000 HD
ENDBRANCH   1  10
BRANCH   5  14
ATOM     14  C   UNL     1      44.182   3.640   9.896  0.00  0.00    +0.000 C 
BRANCH  14  15
ATOM     15  C   UNL     1      44.594   2.256   9.381  0.00  0.00    +0.000 C 
BRANCH  15  16
ATOM     16  C   UNL     1      45.659   2.327   8.315  0.00  0.00    +0.000 A 
ATOM     17  C   UNL     1      46.468   1.216   8.033  0.00  0.00    +0.000 A 
ATOM     18  C   UNL     1      47.450   1.288   7.044  0.00  0.00    +0.000 A 
ATOM     19  C   UNL     1      47.632   2.468   6.323  0.00  0.00    +0.000 A 
ATOM     20  C   UNL     1      46.842   3.579   6.604  0.00  0.00    +0.000 A 
ATOM     21  C   UNL     1      45.864   3.512   7.593  0.00  0.00    +0.000 A 
ENDBRANCH  15  16
ENDBRANCH  14  15
ENDBRANCH   5  14
TORSDOF 4
ENDMDL
MODEL 5
REMARK VINA RESULT:    -6.546      3.618      6.689
REMARK INTER + INTRA:          -8.582
REMARK INTER:                  -8.265
REMARK INTRA:                  -0.317
REMARK UNBOUND:                -0.505
REMARK  Name = 
REMARK  4 active torsions:
REMARK  status: ('A' for Active; 'I' for Inactive)
REMARK    1  A    between atoms: C_2  and  C_4
REMARK    2  A    between atoms: N_8  and  C_9
REMARK    3  A    between atoms: C_9  and  C_10
REMARK    4  A    between atoms: C_10  and  C_11
REMARK                            x       y       z     vdW  Elec       q    Type
REMARK                         _______ _______ _______ _____ _____    ______ ____
ROOT
ATOM      1  C   UNL     1      47.591   5.156  15.191  0.00  0.00    +0.000 A 
ATOM      2  C   UNL     1      47.802   6.265  14.376  0.00  0.00    +0.000 A 
ATOM      3  C   UNL     1      47.169   6.321  13.132  0.00  0.00    +0.000 A 
ATOM      4  C   UNL     1      46.294   5.303  12.750  0.00  0.00    +0.000 A 
ATOM      5  N   UNL     1      45.664   5.394  11.494  0.00  0.00    +0.000 N 
ATOM      6  N   UNL     1      46.110   4.214  13.524  0.00  0.00    +0.000 NA
ATOM      7  C   UNL     1      46.771   4.150  14.709  0.00  0.00    +0.000 A 
ATOM      8  H   UNL     1      45.506   6.368  11.260  0.00  0.00    +0.000 HD
ENDROOT
BRANCH   1  10
ATOM      9  N   UNL     1      47.376   5.080  17.607  0.00  0.00    +0.000 N 
ATOM     10  C   UNL     1      48.206   5.002  16.523  0.00  0.00    +0.000 C 
ATOM     11  O   UNL     1      49.400   4.765  16.657  0.00  0.00    +0.000 OA
ATOM     12  H   UNL     1      47.788   4.849  18.502  0.00  0.00    +0.000 HD
ATOM     13  H   UNL     1      46.371   5.009  17.526  0.00  0.00    +0.000 HD
ENDBRANCH   1  10
BRANCH   5  14
ATOM     14  C   UNL     1      44.414   4.622  11.425  0.00  0.00    +0.000 C 
BRANCH  14  15
ATOM     15  C   UNL     1      43.947   4.524   9.968  0.00  0.00    +0.000 C 
BRANCH  15  16
ATOM     16  C   UNL     1      44.851   3.658   9.126  0.00  0.00    +0.000 A 
ATOM     17  C   UNL     1      44.921   2.274   9.338  0.00  0.00    +0.000 A 
ATOM     18  C   UNL     1      45.758   1.479   8.554  0.00  0.00    +0.000 A 
ATOM     19  C   UNL     1      46.531   2.057   7.546  0.00  0.00    +0.000 A 
ATOM     20  C   UNL     1      46.476   3.432   7.336  0.00  0.00    +0.000 A 
ATOM     21  C   UNL     1      45.645   4.229   8.120  0.00  0.00    +0.000 A 
ENDBRANCH  15  16
ENDBRANCH  14  15
ENDBRANCH   5  14
TORSDOF 4
ENDMDL
MODEL 6
REMARK VINA RESULT:    -6.158      3.333      6.624
REMARK INTER + INTRA:          -8.104
REMARK INTER:                  -7.752
REMARK INTRA:                  -0.352
REMARK UNBOUND:                -0.505
REMARK  Name = 
REMARK  4 active torsions:
REMARK  status: ('A' for Active; 'I' for Inactive)
REMARK    1  A    between atoms: C_2  and  C_4
REMARK    2  A    between atoms: N_8  and  C_9
REMARK    3  A    between atoms: C_9  and  C_10
REMARK    4  A    between atoms: C_10  and  C_11
REMARK                            x       y       z     vdW  Elec       q    Type
REMARK                         _______ _______ _______ _____ _____    ______ ____
ROOT
ATOM      1  C   UNL     1      46.421   8.430  12.335  0.00  0.00    +0.000 A 
ATOM      2  C   UNL     1      47.421   7.497  12.078  0.00  0.00    +0.000 A 
ATOM      3  C   UNL     1      47.082   6.143  12.016  0.00  0.00    +0.000 A 
ATOM      4  C   UNL     1      45.750   5.751  12.153  0.00  0.00    +0.000 A 
ATOM      5  N   UNL     1      45.441   4.380  12.077  0.00  0.00    +0.000 N 
ATOM      6  N   UNL     1      44.784   6.650  12.432  0.00  0.00    +0.000 NA
ATOM      7  C   UNL     1      45.135   7.957  12.538  0.00  0.00    +0.000 A 
ATOM      8  H   UNL     1      46.085   3.918  11.442  0.00  0.00    +0.000 HD
ENDROOT
BRANCH   1  10
ATOM      9  N   UNL     1      45.616  10.712  12.147  0.00  0.00    +0.000 N 
ATOM     10  C   UNL     1      46.670   9.883  12.415  0.00  0.00    +0.000 C 
ATOM     11  O   UNL     1      47.758  10.331  12.753  0.00  0.00    +0.000 OA
ATOM     12  H   UNL     1      45.767  11.697  12.326  0.00  0.00    +0.000 HD
ATOM     13  H   UNL     1      44.660  10.385  12.126  0.00  0.00    +0.000 HD
ENDBRANCH   1  10
BRANCH   5  14
ATOM     14  C   UNL     1      44.045   4.130  11.689  0.00  0.00    +0.000 C 
BRANCH  14  15
ATOM     15  C   UNL     1      43.848   4.488  10.211  0.00  0.00    +0.000 C 
BRANCH  15  16
ATOM     16  C   UNL     1      44.777   3.726   9.300  0.00  0.00    +0.000 A 
ATOM     17  C   UNL     1      44.847   2.327   9.353  0.00  0.00    +0.000 A 
ATOM     18  C   UNL     1      45.707   1.628   8.505  0.00  0.00    +0.000 A 
ATOM     19  C   UNL     1      46.505   2.318   7.592  0.00  0.00    +0.000 A 
ATOM     20  C   UNL     1      46.450   3.708   7.540  0.00  0.00    +0.000 A 
ATOM     21  C   UNL     1      45.596   4.409   8.388  0.00  0.00    +0.000 A 
ENDBRANCH  15  16
ENDBRANCH  14  15
ENDBRANCH   5  14
TORSDOF 4
ENDMDL
MODEL 7
REMARK VINA RESULT:    -6.061      4.384      6.083
REMARK INTER + INTRA:          -7.983
REMARK INTER:                  -7.725
REMARK INTRA:                  -0.259
REMARK UNBOUND:                -0.505
REMARK  Name = 
REMARK  4 active torsions:
REMARK  status: ('A' for Active; 'I' for Inactive)
REMARK    1  A    between atoms: C_2  and  C_4
REMARK    2  A    between atoms: N_8  and  C_9
REMARK    3  A    between atoms: C_9  and  C_10
REMARK    4  A    between atoms: C_10  and  C_11
REMARK                            x       y       z     vdW  Elec       q    Type
REMARK                         _______ _______ _______ _____ _____    ______ ____
ROOT
ATOM      1  C   UNL     1      45.310   5.009  11.466  0.00  0.00    +0.000 A 
ATOM      2  C   UNL     1      46.117   6.093  11.798  0.00  0.00    +0.000 A 
ATOM      3  C   UNL     1      46.732   6.120  13.052  0.00  0.00    +0.000 A 
ATOM      4  C   UNL     1      46.577   5.043  13.926  0.00  0.00    +0.000 A 
ATOM      5  N   UNL     1      47.217   5.097  15.179  0.00  0.00    +0.000 N 
ATOM      6  N   UNL     1      45.773   4.005  13.619  0.00  0.00    +0.000 NA
ATOM      7  C   UNL     1      45.142   4.016  12.416  0.00  0.00    +0.000 A 
ATOM      8  H   UNL     1      48.085   5.617  15.099  0.00  0.00    +0.000 HD
ENDROOT
BRANCH   1  10
ATOM      9  N   UNL     1      45.404   4.851   9.046  0.00  0.00    +0.000 N 
ATOM     10  C   UNL     1      44.621   4.880  10.167  0.00  0.00    +0.000 C 
ATOM     11  O   UNL     1      43.406   4.756  10.093  0.00  0.00    +0.000 OA
ATOM     12  H   UNL     1      44.930   4.638   8.177  0.00  0.00    +0.000 HD
ATOM     13  H   UNL     1      46.400   4.687   9.084  0.00  0.00    +0.000 HD
ENDBRANCH   1  10
BRANCH   5  14
ATOM     14  C   UNL     1      47.449   3.765  15.759  0.00  0.00    +0.000 C 
BRANCH  14  15
ATOM     15  C   UNL     1      47.919   3.909  17.211  0.00  0.00    +0.000 C 
BRANCH  15  16
ATOM     16  C   UNL     1      49.341   3.448  17.410  0.00  0.00    +0.000 A 
ATOM     17  C   UNL     1      50.301   4.301  17.973  0.00  0.00    +0.000 A 
ATOM     18  C   UNL     1      51.614   3.866  18.155  0.00  0.00    +0.000 A 
ATOM     19  C   UNL     1      51.983   2.574  17.782  0.00  0.00    +0.000 A 
ATOM     20  C   UNL     1      51.040   1.724  17.212  0.00  0.00    +0.000 A 
ATOM     21  C   UNL     1      49.729   2.156  17.024  0.00  0.00    +0.000 A 
ENDBRANCH  15  16
ENDBRANCH  14  15
ENDBRANCH   5  14
TORSDOF 4
ENDMDL
MODEL 8
REMARK VINA RESULT:    -5.646      3.539      5.363
REMARK INTER + INTRA:          -7.471
REMARK INTER:                  -7.077
REMARK INTRA:                  -0.394
REMARK UNBOUND:                -0.505
REMARK  Name = 
REMARK  4 active torsions:
REMARK  status: ('A' for Active; 'I' for Inactive)
REMARK    1  A    between atoms: C_2  and  C_4
REMARK    2  A    between atoms: N_8  and  C_9
REMARK    3  A    between atoms: C_9  and  C_10
REMARK    4  A    between atoms: C_10  and  C_11
REMARK                            x       y       z     vdW  Elec       q    Type
REMARK                         _______ _______ _______ _____ _____    ______ ____
ROOT
ATOM      1  C   UNL     1      44.602   4.306  11.595  0.00  0.00    +0.000 A 
ATOM      2  C   UNL     1      44.424   5.683  11.487  0.00  0.00    +0.000 A 
ATOM      3  C   UNL     1      45.212   6.530  12.270  0.00  0.00    +0.000 A 
ATOM      4  C   UNL     1      46.198   5.994  13.099  0.00  0.00    +0.000 A 
ATOM      5  N   UNL     1      46.981   6.876  13.868  0.00  0.00    +0.000 N 
ATOM      6  N   UNL     1      46.353   4.661  13.228  0.00  0.00    +0.000 NA
ATOM      7  C   UNL     1      45.547   3.848  12.498  0.00  0.00    +0.000 A 
ATOM      8  H   UNL     1      47.102   7.752  13.370  0.00  0.00    +0.000 HD
ENDROOT
BRANCH   1  10
ATOM      9  N   UNL     1      44.089   3.253   9.470  0.00  0.00    +0.000 N 
ATOM     10  C   UNL     1      43.827   3.325  10.810  0.00  0.00    +0.000 C 
ATOM     11  O   UNL     1      43.019   2.574  11.339  0.00  0.00    +0.000 OA
ATOM     12  H   UNL     1      43.643   2.494   8.969  0.00  0.00    +0.000 HD
ATOM     13  H   UNL     1      44.916   3.659   9.056  0.00  0.00    +0.000 HD
ENDBRANCH   1  10
BRANCH   5  14
ATOM     14  C   UNL     1      48.280   6.301  14.249  0.00  0.00    +0.000 C 
BRANCH  14  15
ATOM     15  C   UNL     1      48.559   6.591  15.729  0.00  0.00    +0.000 C 
BRANCH  15  16
ATOM     16  C   UNL     1      48.531   5.346  16.580  0.00  0.00    +0.000 A 
ATOM     17  C   UNL     1      49.628   4.998  17.381  0.00  0.00    +0.000 A 
ATOM     18  C   UNL     1      49.594   3.846  18.167  0.00  0.00    +0.000 A 
ATOM     19  C   UNL     1      48.462   3.030  18.165  0.00  0.00    +0.000 A 
ATOM     20  C   UNL     1      47.373   3.361  17.364  0.00  0.00    +0.000 A 
ATOM     21  C   UNL     1      47.405   4.508  16.575  0.00  0.00    +0.000 A 
ENDBRANCH  15  16
ENDBRANCH  14  15
ENDBRANCH   5  14
TORSDOF 4
ENDMDL
MODEL 9
REMARK VINA RESULT:    -5.645      5.478      8.121
REMARK INTER + INTRA:          -7.471
REMARK INTER:                  -7.205
REMARK INTRA:                  -0.266
REMARK UNBOUND:                -0.505
REMARK  Name = 
REMARK  4 active torsions:
REMARK  status: ('A' for Active; 'I' for Inactive)
REMARK    1  A    between atoms: C_2  and  C_4
REMARK    2  A    between atoms: N_8  and  C_9
REMARK    3  A    between atoms: C_9  and  C_10
REMARK    4  A    between atoms: C_10  and  C_11
REMARK                            x       y       z     vdW  Elec       q    Type
REMARK                         _______ _______ _______ _____ _____    ______ ____
ROOT
ATOM      1  C   UNL     1      49.360   4.410  17.892  0.00  0.00    +0.000 A 
ATOM      2  C   UNL     1      48.497   3.318  17.852  0.00  0.00    +0.000 A 
ATOM      3  C   UNL     1      47.528   3.258  16.847  0.00  0.00    +0.000 A 
ATOM      4  C   UNL     1      47.475   4.254  15.871  0.00  0.00    +0.000 A 
ATOM      5  N   UNL     1      46.492   4.160  14.867  0.00  0.00    +0.000 N 
ATOM      6  N   UNL     1      48.290   5.327  15.924  0.00  0.00    +0.000 NA
ATOM      7  C   UNL     1      49.195   5.397  16.935  0.00  0.00    +0.000 A 
ATOM      8  H   UNL     1      46.302   3.184  14.664  0.00  0.00    +0.000 HD
ENDROOT
BRANCH   1  10
ATOM      9  N   UNL     1      50.058   4.420  20.216  0.00  0.00    +0.000 N 
ATOM     10  C   UNL     1      50.421   4.566  18.906  0.00  0.00    +0.000 C 
ATOM     11  O   UNL     1      51.586   4.771  18.591  0.00  0.00    +0.000 OA
ATOM     12  H   UNL     1      50.815   4.407  20.889  0.00  0.00    +0.000 HD
ATOM     13  H   UNL     1      49.182   3.999  20.493  0.00  0.00    +0.000 HD
ENDBRANCH   1  10
BRANCH   5  14
ATOM     14  C   UNL     1      46.853   4.894  13.645  0.00  0.00    +0.000 C 
BRANCH  14  15
ATOM     15  C   UNL     1      45.590   5.477  13.001  0.00  0.00    +0.000 C 
BRANCH  15  16
ATOM     16  C   UNL     1      45.237   4.802  11.699  0.00  0.00    +0.000 A 
ATOM     17  C   UNL     1      44.521   3.596  11.687  0.00  0.00    +0.000 A 
ATOM     18  C   UNL     1      44.197   2.978  10.478  0.00  0.00    +0.000 A 
ATOM     19  C   UNL     1      44.579   3.559   9.269  0.00  0.00    +0.000 A 
ATOM     20  C   UNL     1      45.299   4.750   9.273  0.00  0.00    +0.000 A 
ATOM     21  C   UNL     1      45.628   5.368  10.477  0.00  0.00    +0.000 A 
ENDBRANCH  15  16
ENDBRANCH  14  15
ENDBRANCH   5  14
TORSDOF 4
ENDMDL
