MODEL 1
REMARK VINA RESULT:    -7.871      0.000      0.000
REMARK INTER + INTRA:          -9.640
REMARK INTER:                  -9.251
REMARK INTRA:                  -0.389
REMARK UNBOUND:                -0.389
REMARK  Name = 
REMARK  3 active torsions:
REMARK  status: ('A' for Active; 'I' for Inactive)
REMARK    1  A    between atoms: C_2  and  C_4
REMARK    2  A    between atoms: N_8  and  C_9
REMARK    3  A    between atoms: C_9  and  C_10
REMARK                            x       y       z     vdW  Elec       q    Type
REMARK                         _______ _______ _______ _____ _____    ______ ____
ROOT
ATOM      1  C   UNL     1      46.417   4.888  13.261  0.00  0.00    +0.000 A 
ATOM      2  C   UNL     1      46.713   5.964  12.431  0.00  0.00    +0.000 A 
ATOM      3  C   UNL     1      46.166   5.997  11.151  0.00  0.00    +0.000 A 
ATOM      4  C   UNL     1      45.365   4.944  10.708  0.00  0.00    +0.000 A 
ATOM      5  N   UNL     1      44.906   5.005   9.397  0.00  0.00    +0.000 N 
ATOM      6  N   UNL     1      45.087   3.886  11.495  0.00  0.00    +0.000 NA
ATOM      7  C   UNL     1      45.613   3.879  12.750  0.00  0.00    +0.000 A 
ATOM      8  H   UNL     1      44.309   5.812   9.253  0.00  0.00    +0.000 HD
ENDROOT
BRANCH   1  10
ATOM      9  N   UNL     1      47.707   5.799  15.108  0.00  0.00    +0.000 N 
ATOM     10  C   UNL     1      46.940   4.769  14.637  0.00  0.00    +0.000 C 
ATOM     11  O   UNL     1      46.672   3.806  15.344  0.00  0.00    +0.000 OA
ATOM     12  H   UNL     1      47.981   5.749  16.081  0.00  0.00    +0.000 HD
ATOM     13  H   UNL     1      47.762   6.699  14.653  0.00  0.00    +0.000 HD
ENDBRANCH   1  10
BRANCH   5  14
ATOM     14  C   UNL     1      44.352   3.791   8.823  0.00  0.00    +0.000 C 
BRANCH  14  15
ATOM     15  C   UNL     1      45.491   3.036   8.168  0.00  0.00    +0.000 A 
ATOM     16  C   UNL     1      46.345   3.702   7.272  0.00  0.00    +0.000 A 
ATOM     17  C   UNL     1      47.391   3.028   6.641  0.00  0.00    +0.000 A 
ATOM     18  C   UNL     1      47.604   1.679   6.913  0.00  0.00    +0.000 A 
ATOM     19  C   UNL     1      46.773   1.008   7.810  0.00  0.00    +0.000 A 
ATOM     20  C   UNL     1      45.722   1.681   8.437  0.00  0.00    +0.000 A 
ENDBRANCH  14  15
ENDBRANCH   5  14
TORSDOF 3
ENDMDL
MODEL 2
REMARK VINA RESULT:    -7.684      2.895      6.148
REMARK INTER + INTRA:          -9.420
REMARK INTER:                  -9.097
REMARK INTRA:                  -0.322
REMARK UNBOUND:                -0.389
REMARK  Name = 
REMARK  3 active torsions:
REMARK  status: ('A' for Active; 'I' for Inactive)
REMARK    1  A    between atoms: C_2  and  C_4
REMARK    2  A    between atoms: N_8  and  C_9
REMARK    3  A    between atoms: C_9  and  C_10
REMARK                            x       y       z     vdW  Elec       q    Type
REMARK                         _______ _______ _______ _____ _____    ______ ____
ROOT
ATOM      1  C   UNL     1      46.538   2.610   7.397  0.00  0.00    +0.000 A 
ATOM      2  C   UNL     1      45.965   1.652   8.228  0.00  0.00    +0.000 A 
ATOM      3  C   UNL     1      45.053   2.062   9.197  0.00  0.00    +0.000 A 
ATOM      4  C   UNL     1      44.754   3.416   9.344  0.00  0.00    +0.000 A 
ATOM      5  N   UNL     1      43.887   3.764  10.374  0.00  0.00    +0.000 N 
ATOM      6  N   UNL     1      45.316   4.355   8.560  0.00  0.00    +0.000 NA
ATOM      7  C   UNL     1      46.191   3.937   7.605  0.00  0.00    +0.000 A 
ATOM      8  H   UNL     1      42.971   3.349  10.241  0.00  0.00    +0.000 HD
ENDROOT
BRANCH   1  10
ATOM      9  N   UNL     1      47.479   3.032   5.196  0.00  0.00    +0.000 N 
ATOM     10  C   UNL     1      47.507   2.274   6.334  0.00  0.00    +0.000 C 
ATOM     11  O   UNL     1      48.327   1.376   6.476  0.00  0.00    +0.000 OA
ATOM     12  H   UNL     1      48.208   2.853   4.517  0.00  0.00    +0.000 HD
ATOM     13  H   UNL     1      46.985   3.910   5.132  0.00  0.00    +0.000 HD
ENDBRANCH   1  10
BRANCH   5  14
ATOM     14  C   UNL     1      43.816   5.167  10.746  0.00  0.00    +0.000 C 
BRANCH  14  15
ATOM     15  C   UNL     1      44.982   5.452  11.669  0.00  0.00    +0.000 A 
ATOM     16  C   UNL     1      45.886   6.483  11.355  0.00  0.00    +0.000 A 
ATOM     17  C   UNL     1      46.979   6.755  12.179  0.00  0.00    +0.000 A 
ATOM     18  C   UNL     1      47.172   6.007  13.338  0.00  0.00    +0.000 A 
ATOM     19  C   UNL     1      46.276   4.991  13.670  0.00  0.00    +0.000 A 
ATOM     20  C   UNL     1      45.186   4.713  12.842  0.00  0.00    +0.000 A 
ENDBRANCH  14  15
ENDBRANCH   5  14
TORSDOF 3
ENDMDL
MODEL 3
REMARK VINA RESULT:    -7.448      1.985      2.678
REMARK INTER + INTRA:          -9.143
REMARK INTER:                  -8.868
REMARK INTRA:                  -0.275
REMARK UNBOUND:                -0.389
REMARK  Name = 
REMARK  3 active torsions:
REMARK  status: ('A' for Active; 'I' for Inactive)
REMARK    1  A    between atoms: C_2  and  C_4
REMARK    2  A    between atoms: N_8  and  C_9
REMARK    3  A    between atoms: C_9  and  C_10
REMARK                            x       y       z     vdW  Elec       q    Type
REMARK                         _______ _______ _______ _____ _____    ______ ____
ROOT
ATOM      1  C   UNL     1      45.573   6.734  12.428  0.00  0.00    +0.000 A 
ATOM      2  C   UNL     1      45.775   5.609  13.220  0.00  0.00    +0.000 A 
ATOM      3  C   UNL     1      45.620   4.348  12.649  0.00  0.00    +0.000 A 
ATOM      4  C   UNL     1      45.235   4.230  11.314  0.00  0.00    +0.000 A 
ATOM      5  N   UNL     1      45.033   2.944  10.824  0.00  0.00    +0.000 N 
ATOM      6  N   UNL     1      45.017   5.312  10.541  0.00  0.00    +0.000 NA
ATOM      7  C   UNL     1      45.191   6.536  11.109  0.00  0.00    +0.000 A 
ATOM      8  H   UNL     1      45.888   2.400  10.856  0.00  0.00    +0.000 HD
ENDROOT
BRANCH   1  10
ATOM      9  N   UNL     1      44.743   9.010  12.617  0.00  0.00    +0.000 N 
ATOM     10  C   UNL     1      45.723   8.112  12.939  0.00  0.00    +0.000 C 
ATOM     11  O   UNL     1      46.665   8.432  13.652  0.00  0.00    +0.000 OA
ATOM     12  H   UNL     1      44.808   9.923  13.050  0.00  0.00    +0.000 HD
ATOM     13  H   UNL     1      43.850   8.738  12.233  0.00  0.00    +0.000 HD
ENDBRANCH   1  10
BRANCH   5  14
ATOM     14  C   UNL     1      44.333   2.812   9.558  0.00  0.00    +0.000 C 
BRANCH  14  15
ATOM     15  C   UNL     1      45.375   2.570   8.485  0.00  0.00    +0.000 A 
ATOM     16  C   UNL     1      45.990   1.310   8.381  0.00  0.00    +0.000 A 
ATOM     17  C   UNL     1      46.965   1.065   7.414  0.00  0.00    +0.000 A 
ATOM     18  C   UNL     1      47.326   2.077   6.527  0.00  0.00    +0.000 A 
ATOM     19  C   UNL     1      46.715   3.328   6.610  0.00  0.00    +0.000 A 
ATOM     20  C   UNL     1      45.743   3.575   7.582  0.00  0.00    +0.000 A 
ENDBRANCH  14  15
ENDBRANCH   5  14
TORSDOF 3
ENDMDL
MODEL 4
REMARK VINA RESULT:    -6.514      1.747      2.294
REMARK INTER + INTRA:          -8.045
REMARK INTER:                  -7.671
REMARK INTRA:                  -0.374
REMARK UNBOUND:                -0.389
REMARK  Name = 
REMARK  3 active torsions:
REMARK  status: ('A' for Active; 'I' for Inactive)
REMARK    1  A    between atoms: C_2  and  C_4
REMARK    2  A    between atoms: N_8  and  C_9
REMARK    3  A    between atoms: C_9  and  C_10
REMARK                            x       y       z     vdW  Elec       q    Type
REMARK                         _______ _______ _______ _____ _____    ______ ____
ROOT
ATOM      1  C   UNL     1      47.754   6.636  13.613  0.00  0.00    +0.000 A 
ATOM      2  C   UNL     1      47.676   7.495  12.521  0.00  0.00    +0.000 A 
ATOM      3  C   UNL     1      46.760   7.216  11.510  0.00  0.00    +0.000 A 
ATOM      4  C   UNL     1      45.965   6.072  11.586  0.00  0.00    +0.000 A 
ATOM      5  N   UNL     1      45.121   5.816  10.511  0.00  0.00    +0.000 N 
ATOM      6  N   UNL     1      46.045   5.222  12.627  0.00  0.00    +0.000 NA
ATOM      7  C   UNL     1      46.931   5.519  13.617  0.00  0.00    +0.000 A 
ATOM      8  H   UNL     1      44.435   6.554  10.398  0.00  0.00    +0.000 HD
ENDROOT
BRANCH   1  10
ATOM      9  N   UNL     1      48.137   7.089  15.970  0.00  0.00    +0.000 N 
ATOM     10  C   UNL     1      48.685   6.853  14.739  0.00  0.00    +0.000 C 
ATOM     11  O   UNL     1      49.898   6.790  14.588  0.00  0.00    +0.000 OA
ATOM     12  H   UNL     1      48.783   7.142  16.748  0.00  0.00    +0.000 HD
ATOM     13  H   UNL     1      47.164   6.924  16.181  0.00  0.00    +0.000 HD
ENDBRANCH   1  10
BRANCH   5  14
ATOM     14  C   UNL     1      44.534   4.489  10.421  0.00  0.00    +0.000 C 
BRANCH  14  15
ATOM     15  C   UNL     1      45.256   3.747   9.315  0.00  0.00    +0.000 A 
ATOM     16  C   UNL     1      45.284   2.341   9.320  0.00  0.00    +0.000 A 
ATOM     17  C   UNL     1      45.956   1.633   8.324  0.00  0.00    +0.000 A 
ATOM     18  C   UNL     1      46.598   2.325   7.300  0.00  0.00    +0.000 A 
ATOM     19  C   UNL     1      46.569   3.719   7.275  0.00  0.00    +0.000 A 
ATOM     20  C   UNL     1      45.901   4.429   8.275  0.00  0.00    +0.000 A 
ENDBRANCH  14  15
ENDBRANCH   5  14
TORSDOF 3
ENDMDL
MODEL 5
REMARK VINA RESULT:    -5.757      3.462      6.432
REMARK INTER + INTRA:          -7.155
REMARK INTER:                  -6.835
REMARK INTRA:                  -0.321
REMARK UNBOUND:                -0.389
REMARK  Name = 
REMARK  3 active torsions:
REMARK  status: ('A' for Active; 'I' for Inactive)
REMARK    1  A    between atoms: C_2  and  C_4
REMARK    2  A    between atoms: N_8  and  C_9
REMARK    3  A    between atoms: C_9  and  C_10
REMARK                            x       y       z     vdW  Elec       q    Type
REMARK                         _______ _______ _______ _____ _____    ______ ____
ROOT
ATOM      1  C   UNL     1      44.471   4.099  11.729  0.00  0.00    +0.000 A 
ATOM      2  C   UNL     1      45.590   4.057  12.555  0.00  0.00    +0.000 A 
ATOM      3  C   UNL     1      46.063   5.244  13.108  0.00  0.00    +0.000 A 
ATOM      4  C   UNL     1      45.437   6.453  12.804  0.00  0.00    +0.000 A 
ATOM      5  N   UNL     1      46.000   7.608  13.335  0.00  0.00    +0.000 N 
ATOM      6  N   UNL     1      44.365   6.510  11.991  0.00  0.00    +0.000 NA
ATOM      7  C   UNL     1      43.903   5.339  11.473  0.00  0.00    +0.000 A 
ATOM      8  H   UNL     1      45.976   7.597  14.349  0.00  0.00    +0.000 HD
ENDROOT
BRANCH   1  10
ATOM      9  N   UNL     1      44.515   2.401   9.992  0.00  0.00    +0.000 N 
ATOM     10  C   UNL     1      43.889   2.894  11.104  0.00  0.00    +0.000 C 
ATOM     11  O   UNL     1      42.909   2.336  11.578  0.00  0.00    +0.000 OA
ATOM     12  H   UNL     1      44.164   1.523   9.629  0.00  0.00    +0.000 HD
ATOM     13  H   UNL     1      45.440   2.687   9.707  0.00  0.00    +0.000 HD
ENDBRANCH   1  10
BRANCH   5  14
ATOM     14  C   UNL     1      45.568   8.880  12.780  0.00  0.00    +0.000 C 
BRANCH  14  15
ATOM     15  C   UNL     1      46.780   9.538  12.153  0.00  0.00    +0.000 A 
ATOM     16  C   UNL     1      48.007   8.853  12.120  0.00  0.00    +0.000 A 
ATOM     17  C   UNL     1      49.143   9.442  11.565  0.00  0.00    +0.000 A 
ATOM     18  C   UNL     1      49.060  10.721  11.021  0.00  0.00    +0.000 A 
ATOM     19  C   UNL     1      47.847  11.408  11.035  0.00  0.00    +0.000 A 
ATOM     20  C   UNL     1      46.710  10.821  11.597  0.00  0.00    +0.000 A 
ENDBRANCH  14  15
ENDBRANCH   5  14
TORSDOF 3
ENDMDL
MODEL 6
REMARK VINA RESULT:    -5.729      3.962      5.960
REMARK INTER + INTRA:          -7.123
REMARK INTER:                  -6.883
REMARK INTRA:                  -0.240
REMARK UNBOUND:                -0.389
REMARK  Name = 
REMARK  3 active torsions:
REMARK  status: ('A' for Active; 'I' for Inactive)
REMARK    1  A    between atoms: C_2  and  C_4
REMARK    2  A    between atoms: N_8  and  C_9
REMARK    3  A    between atoms: C_9  and  C_10
REMARK                            x       y       z     vdW  Elec       q    Type
REMARK                         _______ _______ _______ _____ _____    ______ ____
ROOT
ATOM      1  C   UNL     1      48.943   4.485  18.300  0.00  0.00    +0.000 A 
ATOM      2  C   UNL     1      48.172   3.336  18.157  0.00  0.00    +0.000 A 
ATOM      3  C   UNL     1      47.485   3.131  16.963  0.00  0.00    +0.000 A 
ATOM      4  C   UNL     1      47.549   4.087  15.949  0.00  0.00    +0.000 A 
ATOM      5  N   UNL     1      46.786   3.853  14.810  0.00  0.00    +0.000 N 
ATOM      6  N   UNL     1      48.276   5.213  16.082  0.00  0.00    +0.000 NA
ATOM      7  C   UNL     1      48.957   5.389  17.247  0.00  0.00    +0.000 A 
ATOM      8  H   UNL     1      47.083   3.007  14.336  0.00  0.00    +0.000 HD
ENDROOT
BRANCH   1  10
ATOM      9  N   UNL     1      49.241   4.284  20.703  0.00  0.00    +0.000 N 
ATOM     10  C   UNL     1      49.715   4.787  19.522  0.00  0.00    +0.000 C 
ATOM     11  O   UNL     1      50.755   5.429  19.481  0.00  0.00    +0.000 OA
ATOM     12  H   UNL     1      49.827   4.417  21.518  0.00  0.00    +0.000 HD
ATOM     13  H   UNL     1      48.528   3.570  20.752  0.00  0.00    +0.000 HD
ENDBRANCH   1  10
BRANCH   5  14
ATOM     14  C   UNL     1      46.587   4.966  13.897  0.00  0.00    +0.000 C 
BRANCH  14  15
ATOM     15  C   UNL     1      45.351   4.664  13.076  0.00  0.00    +0.000 A 
ATOM     16  C   UNL     1      44.331   5.627  12.968  0.00  0.00    +0.000 A 
ATOM     17  C   UNL     1      43.175   5.369  12.232  0.00  0.00    +0.000 A 
ATOM     18  C   UNL     1      43.031   4.146  11.581  0.00  0.00    +0.000 A 
ATOM     19  C   UNL     1      44.039   3.186  11.668  0.00  0.00    +0.000 A 
ATOM     20  C   UNL     1      45.195   3.442  12.410  0.00  0.00    +0.000 A 
ENDBRANCH  14  15
ENDBRANCH   5  14
TORSDOF 3
ENDMDL
MODEL 7
REMARK VINA RESULT:    -5.628      3.095      7.822
REMARK INTER + INTRA:          -7.004
REMARK INTER:                  -6.763
REMARK INTRA:                  -0.241
REMARK UNBOUND:                -0.389
REMARK  Name = 
REMARK  3 active torsions:
REMARK  status: ('A' for Active; 'I' for Inactive)
REMARK    1  A    between atoms: C_2  and  C_4
REMARK    2  A    between atoms: N_8  and  C_9
REMARK    3  A    between atoms: C_9  and  C_10
REMARK                            x       y       z     vdW  Elec       q    Type
REMARK                         _______ _______ _______ _____ _____    ______ ____
ROOT
ATOM      1  C   UNL     1      45.011   4.445  11.601  0.00  0.00    +0.000 A 
ATOM      2  C   UNL     1      45.398   5.763  11.822  0.00  0.00    +0.000 A 
ATOM      3  C   UNL     1      46.211   6.051  12.915  0.00  0.00    +0.000 A 
ATOM      4  C   UNL     1      46.596   5.032  13.785  0.00  0.00    +0.000 A 
ATOM      5  N   UNL     1      47.352   5.397  14.894  0.00  0.00    +0.000 N 
ATOM      6  N   UNL     1      46.212   3.755  13.595  0.00  0.00    +0.000 NA
ATOM      7  C   UNL     1      45.433   3.486  12.512  0.00  0.00    +0.000 A 
ATOM      8  H   UNL     1      48.241   5.798  14.617  0.00  0.00    +0.000 HD
ENDROOT
BRANCH   1  10
ATOM      9  N   UNL     1      44.276   4.754   9.306  0.00  0.00    +0.000 N 
ATOM     10  C   UNL     1      44.158   4.038  10.465  0.00  0.00    +0.000 C 
ATOM     11  O   UNL     1      43.402   3.080  10.543  0.00  0.00    +0.000 OA
ATOM     12  H   UNL     1      43.757   4.408   8.508  0.00  0.00    +0.000 HD
ATOM     13  H   UNL     1      45.037   5.393   9.127  0.00  0.00    +0.000 HD
ENDBRANCH   1  10
BRANCH   5  14
ATOM     14  C   UNL     1      47.486   4.424  15.964  0.00  0.00    +0.000 C 
BRANCH  14  15
ATOM     15  C   UNL     1      48.014   5.156  17.181  0.00  0.00    +0.000 A 
ATOM     16  C   UNL     1      49.151   5.975  17.065  0.00  0.00    +0.000 A 
ATOM     17  C   UNL     1      49.668   6.647  18.172  0.00  0.00    +0.000 A 
ATOM     18  C   UNL     1      49.044   6.517  19.410  0.00  0.00    +0.000 A 
ATOM     19  C   UNL     1      47.908   5.718  19.539  0.00  0.00    +0.000 A 
ATOM     20  C   UNL     1      47.393   5.040  18.431  0.00  0.00    +0.000 A 
ENDBRANCH  14  15
ENDBRANCH   5  14
TORSDOF 3
ENDMDL
MODEL 8
REMARK VINA RESULT:    -5.425      3.025      6.179
REMARK INTER + INTRA:          -6.765
REMARK INTER:                  -6.375
REMARK INTRA:                  -0.391
REMARK UNBOUND:                -0.389
REMARK  Name = 
REMARK  3 active torsions:
REMARK  status: ('A' for Active; 'I' for Inactive)
REMARK    1  A    between atoms: C_2  and  C_4
REMARK    2  A    between atoms: N_8  and  C_9
REMARK    3  A    between atoms: C_9  and  C_10
REMARK                            x       y       z     vdW  Elec       q    Type
REMARK                         _______ _______ _______ _____ _____    ______ ____
ROOT
ATOM      1  C   UNL     1      44.931   3.729  10.065  0.00  0.00    +0.000 A 
ATOM      2  C   UNL     1      44.933   3.276  11.380  0.00  0.00    +0.000 A 
ATOM      3  C   UNL     1      45.038   4.206  12.412  0.00  0.00    +0.000 A 
ATOM      4  C   UNL     1      45.174   5.562  12.116  0.00  0.00    +0.000 A 
ATOM      5  N   UNL     1      45.342   6.429  13.190  0.00  0.00    +0.000 N 
ATOM      6  N   UNL     1      45.195   6.012  10.847  0.00  0.00    +0.000 NA
ATOM      7  C   UNL     1      45.071   5.093   9.851  0.00  0.00    +0.000 A 
ATOM      8  H   UNL     1      44.535   6.418  13.803  0.00  0.00    +0.000 HD
ENDROOT
BRANCH   1  10
ATOM      9  N   UNL     1      44.754   1.481   9.160  0.00  0.00    +0.000 N 
ATOM     10  C   UNL     1      44.815   2.823   8.904  0.00  0.00    +0.000 C 
ATOM     11  O   UNL     1      44.741   3.252   7.761  0.00  0.00    +0.000 OA
ATOM     12  H   UNL     1      44.579   0.877   8.366  0.00  0.00    +0.000 HD
ATOM     13  H   UNL     1      44.582   1.102  10.081  0.00  0.00    +0.000 HD
ENDBRANCH   1  10
BRANCH   5  14
ATOM     14  C   UNL     1      45.802   7.777  12.897  0.00  0.00    +0.000 C 
BRANCH  14  15
ATOM     15  C   UNL     1      47.316   7.759  12.934  0.00  0.00    +0.000 A 
ATOM     16  C   UNL     1      48.047   8.140  11.795  0.00  0.00    +0.000 A 
ATOM     17  C   UNL     1      49.442   8.116  11.795  0.00  0.00    +0.000 A 
ATOM     18  C   UNL     1      50.124   7.723  12.944  0.00  0.00    +0.000 A 
ATOM     19  C   UNL     1      49.413   7.354  14.086  0.00  0.00    +0.000 A 
ATOM     20  C   UNL     1      48.016   7.372  14.084  0.00  0.00    +0.000 A 
ENDBRANCH  14  15
ENDBRANCH   5  14
TORSDOF 3
ENDMDL
MODEL 9
REMARK VINA RESULT:    -5.103      3.414      7.261
REMARK INTER + INTRA:          -6.387
REMARK INTER:                  -6.104
REMARK INTRA:                  -0.283
REMARK UNBOUND:                -0.389
REMARK  Name = 
REMARK  3 active torsions:
REMARK  status: ('A' for Active; 'I' for Inactive)
REMARK    1  A    between atoms: C_2  and  C_4
REMARK    2  A    between atoms: N_8  and  C_9
REMARK    3  A    between atoms: C_9  and  C_10
REMARK                            x       y       z     vdW  Elec       q    Type
REMARK                         _______ _______ _______ _____ _____    ______ ____
ROOT
ATOM      1  C   UNL     1      45.011   4.578  11.455  0.00  0.00    +0.000 A 
ATOM      2  C   UNL     1      45.277   3.927  12.655  0.00  0.00    +0.000 A 
ATOM      3  C   UNL     1      46.097   4.551  13.592  0.00  0.00    +0.000 A 
ATOM      4  C   UNL     1      46.664   5.793  13.303  0.00  0.00    +0.000 A 
ATOM      5  N   UNL     1      47.527   6.330  14.252  0.00  0.00    +0.000 N 
ATOM      6  N   UNL     1      46.431   6.424  12.137  0.00  0.00    +0.000 NA
ATOM      7  C   UNL     1      45.612   5.810  11.241  0.00  0.00    +0.000 A 
ATOM      8  H   UNL     1      47.048   6.505  15.129  0.00  0.00    +0.000 HD
ENDROOT
BRANCH   1  10
ATOM      9  N   UNL     1      44.223   4.554   9.156  0.00  0.00    +0.000 N 
ATOM     10  C   UNL     1      44.146   4.001  10.405  0.00  0.00    +0.000 C 
ATOM     11  O   UNL     1      43.416   3.046  10.630  0.00  0.00    +0.000 OA
ATOM     12  H   UNL     1      43.697   4.092   8.425  0.00  0.00    +0.000 HD
ATOM     13  H   UNL     1      44.964   5.180   8.875  0.00  0.00    +0.000 HD
ENDBRANCH   1  10
BRANCH   5  14
ATOM     14  C   UNL     1      48.364   7.444  13.842  0.00  0.00    +0.000 C 
BRANCH  14  15
ATOM     15  C   UNL     1      49.647   7.370  14.645  0.00  0.00    +0.000 A 
ATOM     16  C   UNL     1      49.688   6.607  15.825  0.00  0.00    +0.000 A 
ATOM     17  C   UNL     1      50.850   6.535  16.593  0.00  0.00    +0.000 A 
ATOM     18  C   UNL     1      51.993   7.216  16.180  0.00  0.00    +0.000 A 
ATOM     19  C   UNL     1      51.971   7.966  15.005  0.00  0.00    +0.000 A 
ATOM     20  C   UNL     1      50.806   8.044  14.238  0.00  0.00    +0.000 A 
ENDBRANCH  14  15
ENDBRANCH   5  14
TORSDOF 3
ENDMDL
