MODEL 1
REMARK VINA RESULT:    -7.189      0.000      0.000
REMARK INTER + INTRA:          -9.334
REMARK INTER:                  -8.869
REMARK INTRA:                  -0.464
REMARK UNBOUND:                -0.464
REMARK  Name = 
REMARK  4 active torsions:
REMARK  status: ('A' for Active; 'I' for Inactive)
REMARK    1  A    between atoms: C_2  and  C_3
REMARK    2  A    between atoms: N_7  and  C_8
REMARK    3  A    between atoms: C_8  and  C_9
REMARK    4  A    between atoms: C_13  and  C_14
REMARK                            x       y       z     vdW  Elec       q    Type
REMARK                         _______ _______ _______ _____ _____    ______ ____
ROOT
ATOM      1  C   UNL     1      44.359   3.613  11.381  0.00  0.00    +0.000 C 
ATOM      2  C   UNL     1      43.058   4.356  11.626  0.00  0.00    +0.000 C 
ATOM      3  C   UNL     1      43.026   2.871  11.549  0.00  0.00    +0.000 C 
ENDROOT
BRANCH   1   8
ATOM      4  C   UNL     1      47.826   6.086  14.456  0.00  0.00    +0.000 A 
ATOM      5  C   UNL     1      47.221   6.538  13.284  0.00  0.00    +0.000 A 
ATOM      6  C   UNL     1      46.373   5.679  12.571  0.00  0.00    +0.000 A 
ATOM      7  C   UNL     1      46.152   4.390  13.044  0.00  0.00    +0.000 A 
ATOM      8  N   UNL     1      45.354   3.439  12.430  0.00  0.00    +0.000 N 
ATOM      9  N   UNL     1      46.739   3.952  14.180  0.00  0.00    +0.000 NA
ATOM     10  C   UNL     1      47.549   4.795  14.860  0.00  0.00    +0.000 A 
ATOM     11  H   UNL     1      45.380   2.584  12.969  0.00  0.00    +0.000 HD
BRANCH   4  13
ATOM     12  N   UNL     1      49.436   7.547  15.856  0.00  0.00    +0.000 NA
ATOM     13  C   UNL     1      48.715   6.904  15.225  0.00  0.00    +0.000 C 
ENDBRANCH   4  13
ENDBRANCH   1   8
BRANCH   1  14
ATOM     14  C   UNL     1      44.907   3.439   9.967  0.00  0.00    +0.000 A 
ATOM     15  C   UNL     1      45.239   4.572   9.196  0.00  0.00    +0.000 A 
ATOM     16  C   UNL     1      46.017   4.464   8.041  0.00  0.00    +0.000 A 
ATOM     17  C   UNL     1      46.449   3.214   7.620  0.00  0.00    +0.000 A 
ATOM     18  C   UNL     1      46.050   2.070   8.309  0.00  0.00    +0.000 A 
ATOM     19  C   UNL     1      45.250   2.182   9.459  0.00  0.00    +0.000 A 
BRANCH  18  20
ATOM     20  C   UNL     1      46.500   0.779   7.893  0.00  0.00    +0.000 C 
ATOM     21  N   UNL     1      46.857  -0.284   7.577  0.00  0.00    +0.000 NA
ENDBRANCH  18  20
ENDBRANCH   1  14
TORSDOF 4
ENDMDL
MODEL 2
REMARK VINA RESULT:    -7.060      1.666      6.344
REMARK INTER + INTRA:          -9.175
REMARK INTER:                  -9.369
REMARK INTRA:                   0.194
REMARK UNBOUND:                -0.464
REMARK  Name = 
REMARK  4 active torsions:
REMARK  status: ('A' for Active; 'I' for Inactive)
REMARK    1  A    between atoms: C_2  and  C_3
REMARK    2  A    between atoms: N_7  and  C_8
REMARK    3  A    between atoms: C_8  and  C_9
REMARK    4  A    between atoms: C_13  and  C_14
REMARK                            x       y       z     vdW  Elec       q    Type
REMARK                         _______ _______ _______ _____ _____    ______ ____
ROOT
ATOM      1  C   UNL     1      44.046   4.452  11.311  0.00  0.00    +0.000 C 
ATOM      2  C   UNL     1      42.662   4.849  11.793  0.00  0.00    +0.000 C 
ATOM      3  C   UNL     1      43.287   5.635  10.696  0.00  0.00    +0.000 C 
ENDROOT
BRANCH   1   8
ATOM      4  C   UNL     1      46.758   2.553   7.233  0.00  0.00    +0.000 A 
ATOM      5  C   UNL     1      46.570   3.881   7.613  0.00  0.00    +0.000 A 
ATOM      6  C   UNL     1      45.738   4.174   8.703  0.00  0.00    +0.000 A 
ATOM      7  C   UNL     1      45.116   3.135   9.386  0.00  0.00    +0.000 A 
ATOM      8  N   UNL     1      44.260   3.286  10.465  0.00  0.00    +0.000 N 
ATOM      9  N   UNL     1      45.298   1.847   9.017  0.00  0.00    +0.000 NA
ATOM     10  C   UNL     1      46.108   1.580   7.967  0.00  0.00    +0.000 A 
ATOM     11  H   UNL     1      43.933   2.376  10.761  0.00  0.00    +0.000 HD
BRANCH   4  13
ATOM     12  N   UNL     1      48.252   1.871   5.235  0.00  0.00    +0.000 NA
ATOM     13  C   UNL     1      47.581   2.183   6.120  0.00  0.00    +0.000 C 
ENDBRANCH   4  13
ENDBRANCH   1   8
BRANCH   1  14
ATOM     14  C   UNL     1      45.298   4.927  12.045  0.00  0.00    +0.000 A 
ATOM     15  C   UNL     1      45.896   6.154  11.693  0.00  0.00    +0.000 A 
ATOM     16  C   UNL     1      46.838   6.769  12.521  0.00  0.00    +0.000 A 
ATOM     17  C   UNL     1      47.221   6.149  13.703  0.00  0.00    +0.000 A 
ATOM     18  C   UNL     1      46.717   4.888  14.023  0.00  0.00    +0.000 A 
ATOM     19  C   UNL     1      45.785   4.264  13.175  0.00  0.00    +0.000 A 
BRANCH  18  20
ATOM     20  C   UNL     1      47.093   4.246  15.243  0.00  0.00    +0.000 C 
ATOM     21  N   UNL     1      47.385   3.700  16.229  0.00  0.00    +0.000 NA
ENDBRANCH  18  20
ENDBRANCH   1  14
TORSDOF 4
ENDMDL
MODEL 3
REMARK VINA RESULT:    -6.873      1.958      6.289
REMARK INTER + INTRA:          -8.944
REMARK INTER:                  -9.066
REMARK INTRA:                   0.122
REMARK UNBOUND:                -0.464
REMARK  Name = 
REMARK  4 active torsions:
REMARK  status: ('A' for Active; 'I' for Inactive)
REMARK    1  A    between atoms: C_2  and  C_3
REMARK    2  A    between atoms: N_7  and  C_8
REMARK    3  A    between atoms: C_8  and  C_9
REMARK    4  A    between atoms: C_13  and  C_14
REMARK                            x       y       z     vdW  Elec       q    Type
REMARK                         _______ _______ _______ _____ _____    ______ ____
ROOT
ATOM      1  C   UNL     1      43.896   4.698  11.423  0.00  0.00    +0.000 C 
ATOM      2  C   UNL     1      42.492   5.169  11.758  0.00  0.00    +0.000 C 
ATOM      3  C   UNL     1      43.247   5.883  10.694  0.00  0.00    +0.000 C 
ENDROOT
BRANCH   1   8
ATOM      4  C   UNL     1      46.639   2.629   7.451  0.00  0.00    +0.000 A 
ATOM      5  C   UNL     1      46.417   3.972   7.751  0.00  0.00    +0.000 A 
ATOM      6  C   UNL     1      45.583   4.308   8.827  0.00  0.00    +0.000 A 
ATOM      7  C   UNL     1      44.991   3.296   9.574  0.00  0.00    +0.000 A 
ATOM      8  N   UNL     1      44.137   3.490  10.647  0.00  0.00    +0.000 N 
ATOM      9  N   UNL     1      45.206   1.994   9.283  0.00  0.00    +0.000 NA
ATOM     10  C   UNL     1      46.018   1.686   8.245  0.00  0.00    +0.000 A 
ATOM     11  H   UNL     1      43.834   2.591  10.999  0.00  0.00    +0.000 HD
BRANCH   4  13
ATOM     12  N   UNL     1      48.137   1.863   5.486  0.00  0.00    +0.000 NA
ATOM     13  C   UNL     1      47.466   2.214   6.357  0.00  0.00    +0.000 C 
ENDBRANCH   4  13
ENDBRANCH   1   8
BRANCH   1  14
ATOM     14  C   UNL     1      45.094   5.156  12.251  0.00  0.00    +0.000 A 
ATOM     15  C   UNL     1      45.483   4.422  13.390  0.00  0.00    +0.000 A 
ATOM     16  C   UNL     1      46.730   4.616  13.990  0.00  0.00    +0.000 A 
ATOM     17  C   UNL     1      47.596   5.572  13.478  0.00  0.00    +0.000 A 
ATOM     18  C   UNL     1      47.193   6.378  12.413  0.00  0.00    +0.000 A 
ATOM     19  C   UNL     1      45.929   6.194  11.827  0.00  0.00    +0.000 A 
BRANCH  18  20
ATOM     20  C   UNL     1      48.081   7.356  11.868  0.00  0.00    +0.000 C 
ATOM     21  N   UNL     1      48.826   8.136  11.428  0.00  0.00    +0.000 NA
ENDBRANCH  18  20
ENDBRANCH   1  14
TORSDOF 4
ENDMDL
MODEL 4
REMARK VINA RESULT:    -6.489      1.989      2.462
REMARK INTER + INTRA:          -8.470
REMARK INTER:                  -8.927
REMARK INTRA:                   0.457
REMARK UNBOUND:                -0.464
REMARK  Name = 
REMARK  4 active torsions:
REMARK  status: ('A' for Active; 'I' for Inactive)
REMARK    1  A    between atoms: C_2  and  C_3
REMARK    2  A    between atoms: N_7  and  C_8
REMARK    3  A    between atoms: C_8  and  C_9
REMARK    4  A    between atoms: C_13  and  C_14
REMARK                            x       y       z     vdW  Elec       q    Type
REMARK                         _______ _______ _______ _____ _____    ______ ____
ROOT
ATOM      1  C   UNL     1      44.207   3.861  10.941  0.00  0.00    +0.000 C 
ATOM      2  C   UNL     1      43.404   2.800  11.675  0.00  0.00    +0.000 C 
ATOM      3  C   UNL     1      44.822   3.022  12.070  0.00  0.00    +0.000 C 
ENDROOT
BRANCH   1   8
ATOM      4  C   UNL     1      46.613   8.342  12.252  0.00  0.00    +0.000 A 
ATOM      5  C   UNL     1      47.067   7.033  12.401  0.00  0.00    +0.000 A 
ATOM      6  C   UNL     1      46.225   5.968  12.050  0.00  0.00    +0.000 A 
ATOM      7  C   UNL     1      44.951   6.237  11.561  0.00  0.00    +0.000 A 
ATOM      8  N   UNL     1      44.017   5.282  11.196  0.00  0.00    +0.000 N 
ATOM      9  N   UNL     1      44.511   7.506  11.418  0.00  0.00    +0.000 NA
ATOM     10  C   UNL     1      45.337   8.523  11.754  0.00  0.00    +0.000 A 
ATOM     11  H   UNL     1      43.169   5.743  10.893  0.00  0.00    +0.000 HD
BRANCH   4  13
ATOM     12  N   UNL     1      48.043  10.397  12.901  0.00  0.00    +0.000 NA
ATOM     13  C   UNL     1      47.414   9.476  12.605  0.00  0.00    +0.000 C 
ENDBRANCH   4  13
ENDBRANCH   1   8
BRANCH   1  14
ATOM     14  C   UNL     1      44.876   3.551   9.604  0.00  0.00    +0.000 A 
ATOM     15  C   UNL     1      45.367   4.603   8.803  0.00  0.00    +0.000 A 
ATOM     16  C   UNL     1      46.243   4.362   7.743  0.00  0.00    +0.000 A 
ATOM     17  C   UNL     1      46.620   3.059   7.447  0.00  0.00    +0.000 A 
ATOM     18  C   UNL     1      46.070   1.995   8.162  0.00  0.00    +0.000 A 
ATOM     19  C   UNL     1      45.172   2.242   9.214  0.00  0.00    +0.000 A 
BRANCH  18  20
ATOM     20  C   UNL     1      46.460   0.651   7.876  0.00  0.00    +0.000 C 
ATOM     21  N   UNL     1      46.800  -0.436   7.629  0.00  0.00    +0.000 NA
ENDBRANCH  18  20
ENDBRANCH   1  14
TORSDOF 4
ENDMDL
MODEL 5
REMARK VINA RESULT:    -5.662      1.972      2.685
REMARK INTER + INTRA:          -7.450
REMARK INTER:                  -7.749
REMARK INTRA:                   0.299
REMARK UNBOUND:                -0.464
REMARK  Name = 
REMARK  4 active torsions:
REMARK  status: ('A' for Active; 'I' for Inactive)
REMARK    1  A    between atoms: C_2  and  C_3
REMARK    2  A    between atoms: N_7  and  C_8
REMARK    3  A    between atoms: C_8  and  C_9
REMARK    4  A    between atoms: C_13  and  C_14
REMARK                            x       y       z     vdW  Elec       q    Type
REMARK                         _______ _______ _______ _____ _____    ______ ____
ROOT
ATOM      1  C   UNL     1      43.742   5.595  11.543  0.00  0.00    +0.000 C 
ATOM      2  C   UNL     1      42.244   5.741  11.746  0.00  0.00    +0.000 C 
ATOM      3  C   UNL     1      43.049   5.097  12.819  0.00  0.00    +0.000 C 
ENDROOT
BRANCH   1   8
ATOM      4  C   UNL     1      48.365   7.177  13.470  0.00  0.00    +0.000 A 
ATOM      5  C   UNL     1      47.623   6.044  13.802  0.00  0.00    +0.000 A 
ATOM      6  C   UNL     1      46.365   5.849  13.215  0.00  0.00    +0.000 A 
ATOM      7  C   UNL     1      45.879   6.789  12.313  0.00  0.00    +0.000 A 
ATOM      8  N   UNL     1      44.650   6.725  11.677  0.00  0.00    +0.000 N 
ATOM      9  N   UNL     1      46.597   7.887  11.991  0.00  0.00    +0.000 NA
ATOM     10  C   UNL     1      47.812   8.058  12.561  0.00  0.00    +0.000 A 
ATOM     11  H   UNL     1      44.536   7.541  11.090  0.00  0.00    +0.000 HD
BRANCH   4  13
ATOM     12  N   UNL     1      50.675   7.676  14.520  0.00  0.00    +0.000 NA
ATOM     13  C   UNL     1      49.649   7.448  14.043  0.00  0.00    +0.000 C 
ENDBRANCH   4  13
ENDBRANCH   1   8
BRANCH   1  14
ATOM     14  C   UNL     1      44.313   4.428  10.741  0.00  0.00    +0.000 A 
ATOM     15  C   UNL     1      43.884   3.112  11.011  0.00  0.00    +0.000 A 
ATOM     16  C   UNL     1      44.137   2.067  10.119  0.00  0.00    +0.000 A 
ATOM     17  C   UNL     1      44.852   2.317   8.956  0.00  0.00    +0.000 A 
ATOM     18  C   UNL     1      45.372   3.589   8.716  0.00  0.00    +0.000 A 
ATOM     19  C   UNL     1      45.132   4.632   9.627  0.00  0.00    +0.000 A 
BRANCH  18  20
ATOM     20  C   UNL     1      46.097   3.861   7.516  0.00  0.00    +0.000 C 
ATOM     21  N   UNL     1      46.694   4.056   6.534  0.00  0.00    +0.000 NA
ENDBRANCH  18  20
ENDBRANCH   1  14
TORSDOF 4
ENDMDL
MODEL 6
REMARK VINA RESULT:    -5.170      3.062      4.826
REMARK INTER + INTRA:          -6.843
REMARK INTER:                  -6.435
REMARK INTRA:                  -0.407
REMARK UNBOUND:                -0.464
REMARK  Name = 
REMARK  4 active torsions:
REMARK  status: ('A' for Active; 'I' for Inactive)
REMARK    1  A    between atoms: C_2  and  C_3
REMARK    2  A    between atoms: N_7  and  C_8
REMARK    3  A    between atoms: C_8  and  C_9
REMARK    4  A    between atoms: C_13  and  C_14
REMARK                            x       y       z     vdW  Elec       q    Type
REMARK                         _______ _______ _______ _____ _____    ______ ____
ROOT
ATOM      1  C   UNL     1      45.622   4.428  12.894  0.00  0.00    +0.000 C 
ATOM      2  C   UNL     1      44.150   4.057  12.925  0.00  0.00    +0.000 C 
ATOM      3  C   UNL     1      44.933   3.760  11.696  0.00  0.00    +0.000 C 
ENDROOT
BRANCH   1   8
ATOM      4  C   UNL     1      48.563   4.159  17.238  0.00  0.00    +0.000 A 
ATOM      5  C   UNL     1      47.892   5.259  16.705  0.00  0.00    +0.000 A 
ATOM      6  C   UNL     1      47.219   5.129  15.482  0.00  0.00    +0.000 A 
ATOM      7  C   UNL     1      47.234   3.905  14.821  0.00  0.00    +0.000 A 
ATOM      8  N   UNL     1      46.626   3.648  13.603  0.00  0.00    +0.000 N 
ATOM      9  N   UNL     1      47.884   2.840  15.337  0.00  0.00    +0.000 NA
ATOM     10  C   UNL     1      48.524   2.979  16.521  0.00  0.00    +0.000 A 
ATOM     11  H   UNL     1      46.805   2.687  13.338  0.00  0.00    +0.000 HD
BRANCH   4  13
ATOM     12  N   UNL     1      49.857   4.297  19.472  0.00  0.00    +0.000 NA
ATOM     13  C   UNL     1      49.283   4.225  18.474  0.00  0.00    +0.000 C 
ENDBRANCH   4  13
ENDBRANCH   1   8
BRANCH   1  14
ATOM     14  C   UNL     1      46.065   5.847  12.547  0.00  0.00    +0.000 A 
ATOM     15  C   UNL     1      45.232   6.940  12.860  0.00  0.00    +0.000 A 
ATOM     16  C   UNL     1      45.714   8.251  12.846  0.00  0.00    +0.000 A 
ATOM     17  C   UNL     1      47.034   8.492  12.489  0.00  0.00    +0.000 A 
ATOM     18  C   UNL     1      47.849   7.437  12.080  0.00  0.00    +0.000 A 
ATOM     19  C   UNL     1      47.352   6.122  12.075  0.00  0.00    +0.000 A 
BRANCH  18  20
ATOM     20  C   UNL     1      49.212   7.671  11.722  0.00  0.00    +0.000 C 
ATOM     21  N   UNL     1      50.316   7.884  11.418  0.00  0.00    +0.000 NA
ENDBRANCH  18  20
ENDBRANCH   1  14
TORSDOF 4
ENDMDL
MODEL 7
REMARK VINA RESULT:    -5.094      3.515      7.826
REMARK INTER + INTRA:          -6.750
REMARK INTER:                  -6.527
REMARK INTRA:                  -0.223
REMARK UNBOUND:                -0.464
REMARK  Name = 
REMARK  4 active torsions:
REMARK  status: ('A' for Active; 'I' for Inactive)
REMARK    1  A    between atoms: C_2  and  C_3
REMARK    2  A    between atoms: N_7  and  C_8
REMARK    3  A    between atoms: C_8  and  C_9
REMARK    4  A    between atoms: C_13  and  C_14
REMARK                            x       y       z     vdW  Elec       q    Type
REMARK                         _______ _______ _______ _____ _____    ______ ____
ROOT
ATOM      1  C   UNL     1      48.057   4.464  16.743  0.00  0.00    +0.000 C 
ATOM      2  C   UNL     1      47.065   3.498  17.367  0.00  0.00    +0.000 C 
ATOM      3  C   UNL     1      47.381   4.760  18.088  0.00  0.00    +0.000 C 
ENDROOT
BRANCH   1   8
ATOM      4  C   UNL     1      45.623   4.616  12.090  0.00  0.00    +0.000 A 
ATOM      5  C   UNL     1      46.070   3.505  12.805  0.00  0.00    +0.000 A 
ATOM      6  C   UNL     1      46.769   3.695  14.005  0.00  0.00    +0.000 A 
ATOM      7  C   UNL     1      47.007   4.987  14.461  0.00  0.00    +0.000 A 
ATOM      8  N   UNL     1      47.697   5.313  15.616  0.00  0.00    +0.000 N 
ATOM      9  N   UNL     1      46.574   6.064  13.767  0.00  0.00    +0.000 NA
ATOM     10  C   UNL     1      45.895   5.864  12.614  0.00  0.00    +0.000 A 
ATOM     11  H   UNL     1      47.743   6.321  15.704  0.00  0.00    +0.000 HD
BRANCH   4  13
ATOM     12  N   UNL     1      44.347   4.420   9.849  0.00  0.00    +0.000 NA
ATOM     13  C   UNL     1      44.916   4.496  10.850  0.00  0.00    +0.000 C 
ENDBRANCH   4  13
ENDBRANCH   1   8
BRANCH   1  14
ATOM     14  C   UNL     1      49.560   4.265  16.919  0.00  0.00    +0.000 A 
ATOM     15  C   UNL     1      50.402   5.383  17.091  0.00  0.00    +0.000 A 
ATOM     16  C   UNL     1      51.712   5.243  17.556  0.00  0.00    +0.000 A 
ATOM     17  C   UNL     1      52.212   3.977  17.826  0.00  0.00    +0.000 A 
ATOM     18  C   UNL     1      51.432   2.850  17.568  0.00  0.00    +0.000 A 
ATOM     19  C   UNL     1      50.121   2.995  17.080  0.00  0.00    +0.000 A 
BRANCH  18  20
ATOM     20  C   UNL     1      51.931   1.542  17.854  0.00  0.00    +0.000 C 
ATOM     21  N   UNL     1      52.323   0.476  18.111  0.00  0.00    +0.000 NA
ENDBRANCH  18  20
ENDBRANCH   1  14
TORSDOF 4
ENDMDL
MODEL 8
REMARK VINA RESULT:    -4.907      3.522      8.184
REMARK INTER + INTRA:          -6.518
REMARK INTER:                  -6.150
REMARK INTRA:                  -0.368
REMARK UNBOUND:                -0.464
REMARK  Name = 
REMARK  4 active torsions:
REMARK  status: ('A' for Active; 'I' for Inactive)
REMARK    1  A    between atoms: C_2  and  C_3
REMARK    2  A    between atoms: N_7  and  C_8
REMARK    3  A    between atoms: C_8  and  C_9
REMARK    4  A    between atoms: C_13  and  C_14
REMARK                            x       y       z     vdW  Elec       q    Type
REMARK                         _______ _______ _______ _____ _____    ______ ____
ROOT
ATOM      1  C   UNL     1      48.391   5.180  17.404  0.00  0.00    +0.000 C 
ATOM      2  C   UNL     1      47.114   5.104  18.221  0.00  0.00    +0.000 C 
ATOM      3  C   UNL     1      48.181   6.045  18.655  0.00  0.00    +0.000 C 
ENDROOT
BRANCH   1   8
ATOM      4  C   UNL     1      46.372   5.380  12.559  0.00  0.00    +0.000 A 
ATOM      5  C   UNL     1      46.305   4.345  13.490  0.00  0.00    +0.000 A 
ATOM      6  C   UNL     1      46.985   4.470  14.710  0.00  0.00    +0.000 A 
ATOM      7  C   UNL     1      47.715   5.625  14.969  0.00  0.00    +0.000 A 
ATOM      8  N   UNL     1      48.444   5.868  16.121  0.00  0.00    +0.000 N 
ATOM      9  N   UNL     1      47.781   6.628  14.066  0.00  0.00    +0.000 NA
ATOM     10  C   UNL     1      47.115   6.495  12.896  0.00  0.00    +0.000 A 
ATOM     11  H   UNL     1      48.895   6.771  16.047  0.00  0.00    +0.000 HD
BRANCH   4  13
ATOM     12  N   UNL     1      45.180   5.277  10.266  0.00  0.00    +0.000 NA
ATOM     13  C   UNL     1      45.715   5.312  11.288  0.00  0.00    +0.000 C 
ENDBRANCH   4  13
ENDBRANCH   1   8
BRANCH   1  14
ATOM     14  C   UNL     1      49.520   4.174  17.618  0.00  0.00    +0.000 A 
ATOM     15  C   UNL     1      49.309   2.810  17.332  0.00  0.00    +0.000 A 
ATOM     16  C   UNL     1      50.377   1.917  17.218  0.00  0.00    +0.000 A 
ATOM     17  C   UNL     1      51.673   2.369  17.421  0.00  0.00    +0.000 A 
ATOM     18  C   UNL     1      51.899   3.691  17.803  0.00  0.00    +0.000 A 
ATOM     19  C   UNL     1      50.818   4.581  17.937  0.00  0.00    +0.000 A 
BRANCH  18  20
ATOM     20  C   UNL     1      53.229   4.172  18.001  0.00  0.00    +0.000 C 
ATOM     21  N   UNL     1      54.318   4.564  18.135  0.00  0.00    +0.000 NA
ENDBRANCH  18  20
ENDBRANCH   1  14
TORSDOF 4
ENDMDL
MODEL 9
REMARK VINA RESULT:    -4.875      3.351      6.908
REMARK INTER + INTRA:          -6.479
REMARK INTER:                  -6.107
REMARK INTRA:                  -0.371
REMARK UNBOUND:                -0.464
REMARK  Name = 
REMARK  4 active torsions:
REMARK  status: ('A' for Active; 'I' for Inactive)
REMARK    1  A    between atoms: C_2  and  C_3
REMARK    2  A    between atoms: N_7  and  C_8
REMARK    3  A    between atoms: C_8  and  C_9
REMARK    4  A    between atoms: C_13  and  C_14
REMARK                            x       y       z     vdW  Elec       q    Type
REMARK                         _______ _______ _______ _____ _____    ______ ____
ROOT
ATOM      1  C   UNL     1      47.809   8.074  13.636  0.00  0.00    +0.000 C 
ATOM      2  C   UNL     1      48.449   7.436  14.856  0.00  0.00    +0.000 C 
ATOM      3  C   UNL     1      48.023   8.860  14.937  0.00  0.00    +0.000 C 
ENDROOT
BRANCH   1   8
ATOM      4  C   UNL     1      44.427   4.277  12.323  0.00  0.00    +0.000 A 
ATOM      5  C   UNL     1      45.820   4.237  12.338  0.00  0.00    +0.000 A 
ATOM      6  C   UNL     1      46.539   5.399  12.652  0.00  0.00    +0.000 A 
ATOM      7  C   UNL     1      45.849   6.571  12.942  0.00  0.00    +0.000 A 
ATOM      8  N   UNL     1      46.435   7.788  13.249  0.00  0.00    +0.000 N 
ATOM      9  N   UNL     1      44.499   6.610  12.927  0.00  0.00    +0.000 NA
ATOM     10  C   UNL     1      43.819   5.479  12.628  0.00  0.00    +0.000 A 
ATOM     11  H   UNL     1      45.711   8.478  13.399  0.00  0.00    +0.000 HD
BRANCH   4  13
ATOM     12  N   UNL     1      43.004   2.202  11.722  0.00  0.00    +0.000 NA
ATOM     13  C   UNL     1      43.630   3.132  11.996  0.00  0.00    +0.000 C 
ENDBRANCH   4  13
ENDBRANCH   1   8
BRANCH   1  14
ATOM     14  C   UNL     1      48.668   8.642  12.508  0.00  0.00    +0.000 A 
ATOM     15  C   UNL     1      48.345   9.891  11.938  0.00  0.00    +0.000 A 
ATOM     16  C   UNL     1      49.256  10.582  11.136  0.00  0.00    +0.000 A 
ATOM     17  C   UNL     1      50.496  10.020  10.865  0.00  0.00    +0.000 A 
ATOM     18  C   UNL     1      50.799   8.742  11.336  0.00  0.00    +0.000 A 
ATOM     19  C   UNL     1      49.871   8.042  12.124  0.00  0.00    +0.000 A 
BRANCH  18  20
ATOM     20  C   UNL     1      52.077   8.159  11.074  0.00  0.00    +0.000 C 
ATOM     21  N   UNL     1      53.128   7.694  10.885  0.00  0.00    +0.000 NA
ENDBRANCH  18  20
ENDBRANCH   1  14
TORSDOF 4
ENDMDL
