MODEL 1
REMARK VINA RESULT:    -7.852      0.000      0.000
REMARK INTER + INTRA:         -12.272
REMARK INTER:                 -11.524
REMARK INTRA:                  -0.749
REMARK UNBOUND:                -0.749
REMARK  Name = 
REMARK  9 active torsions:
REMARK  status: ('A' for Active; 'I' for Inactive)
REMARK    1  A    between atoms: C_1  and  O_2
REMARK    2  A    between atoms: O_2  and  C_3
REMARK    3  A    between atoms: C_11  and  C_13
REMARK    4  A    between atoms: C_13  and  C_14
REMARK    5  A    between atoms: C_14  and  C_15
REMARK    6  A    between atoms: C_18  and  C_19
REMARK    7  A    between atoms: C_19  and  S_20
REMARK    8  A    between atoms: S_20  and  C_21
REMARK    9  A    between atoms: C_21  and  C_22
REMARK                            x       y       z     vdW  Elec       q    Type
REMARK                         _______ _______ _______ _____ _____    ______ ____
ROOT
ATOM      1  C   UNL     1      48.382   5.971  15.602  0.00  0.00    +0.000 C 
ENDROOT
BRANCH   1   2
ATOM      2  C   UNL     1      47.659   5.891  14.270  0.00  0.00    +0.000 A 
ATOM      3  C   UNL     1      46.654   4.932  14.077  0.00  0.00    +0.000 A 
ATOM      4  C   UNL     1      45.954   4.854  12.864  0.00  0.00    +0.000 A 
ATOM      5  C   UNL     1      46.244   5.738  11.815  0.00  0.00    +0.000 A 
ATOM      6  C   UNL     1      47.219   6.712  12.015  0.00  0.00    +0.000 A 
ATOM      7  C   UNL     1      47.910   6.785  13.219  0.00  0.00    +0.000 A 
BRANCH   5   8
ATOM      8  C   UNL     1      45.553   5.656  10.483  0.00  0.00    +0.000 C 
BRANCH   8   9
ATOM      9  S   UNL     1      44.541   4.167  10.254  0.00  0.00    +0.000 S 
BRANCH   9  10
ATOM     10  C   UNL     1      44.550   4.017   8.434  0.00  0.00    +0.000 C 
BRANCH  10  11
ATOM     11  C   UNL     1      45.583   3.019   7.991  0.00  0.00    +0.000 A 
ATOM     12  C   UNL     1      46.526   3.335   7.003  0.00  0.00    +0.000 A 
ATOM     13  C   UNL     1      47.439   2.379   6.578  0.00  0.00    +0.000 A 
ATOM     14  C   UNL     1      47.378   1.115   7.156  0.00  0.00    +0.000 A 
ATOM     15  N   UNL     1      46.491   0.770   8.114  0.00  0.00    +0.000 NA
ATOM     16  C   UNL     1      45.613   1.722   8.502  0.00  0.00    +0.000 A 
ENDBRANCH  10  11
ENDBRANCH   9  10
ENDBRANCH   8   9
ENDBRANCH   5   8
ENDBRANCH   1   2
BRANCH   1  17
ATOM     17  C   UNL     1      47.907   4.990  16.690  0.00  0.00    +0.000 C 
BRANCH  17  26
ATOM     18  C   UNL     1      52.003   3.832  18.644  0.00  0.00    +0.000 A 
ATOM     19  N   UNL     1      53.177   3.193  18.893  0.00  0.00    +0.000 NA
ATOM     20  C   UNL     1      53.378   1.948  18.412  0.00  0.00    +0.000 A 
ATOM     21  C   UNL     1      52.471   1.252  17.641  0.00  0.00    +0.000 A 
ATOM     22  C   UNL     1      51.277   1.914  17.361  0.00  0.00    +0.000 A 
ATOM     23  N   UNL     1      50.233   1.487  16.582  0.00  0.00    +0.000 NA
ATOM     24  C   UNL     1      49.366   2.467  16.619  0.00  0.00    +0.000 A 
ATOM     25  N   UNL     1      49.763   3.521  17.415  0.00  0.00    +0.000 N 
ATOM     26  C   UNL     1      49.014   4.680  17.679  0.00  0.00    +0.000 C 
ATOM     27  O   UNL     1      49.287   5.382  18.645  0.00  0.00    +0.000 OA
ATOM     28  C   UNL     1      51.032   3.182  17.883  0.00  0.00    +0.000 A 
BRANCH  18  30
ATOM     29  C   UNL     1      52.843   6.015  18.809  0.00  0.00    +0.000 C 
ATOM     30  O   UNL     1      51.810   5.096  19.139  0.00  0.00    +0.000 OA
ENDBRANCH  18  30
ENDBRANCH  17  26
ENDBRANCH   1  17
TORSDOF 8
ENDMDL
MODEL 2
REMARK VINA RESULT:    -7.705      2.371      3.585
REMARK INTER + INTRA:         -12.057
REMARK INTER:                 -11.153
REMARK INTRA:                  -0.905
REMARK UNBOUND:                -0.749
REMARK  Name = 
REMARK  9 active torsions:
REMARK  status: ('A' for Active; 'I' for Inactive)
REMARK    1  A    between atoms: C_1  and  O_2
REMARK    2  A    between atoms: O_2  and  C_3
REMARK    3  A    between atoms: C_11  and  C_13
REMARK    4  A    between atoms: C_13  and  C_14
REMARK    5  A    between atoms: C_14  and  C_15
REMARK    6  A    between atoms: C_18  and  C_19
REMARK    7  A    between atoms: C_19  and  S_20
REMARK    8  A    between atoms: S_20  and  C_21
REMARK    9  A    between atoms: C_21  and  C_22
REMARK                            x       y       z     vdW  Elec       q    Type
REMARK                         _______ _______ _______ _____ _____    ______ ____
ROOT
ATOM      1  C   UNL     1      48.515   7.740  13.386  0.00  0.00    +0.000 C 
ENDROOT
BRANCH   1   2
ATOM      2  C   UNL     1      47.288   7.078  12.786  0.00  0.00    +0.000 A 
ATOM      3  C   UNL     1      47.122   5.690  12.891  0.00  0.00    +0.000 A 
ATOM      4  C   UNL     1      45.985   5.058  12.365  0.00  0.00    +0.000 A 
ATOM      5  C   UNL     1      44.986   5.803  11.725  0.00  0.00    +0.000 A 
ATOM      6  C   UNL     1      45.133   7.186  11.648  0.00  0.00    +0.000 A 
ATOM      7  C   UNL     1      46.261   7.808  12.169  0.00  0.00    +0.000 A 
BRANCH   5   8
ATOM      8  C   UNL     1      43.777   5.160  11.105  0.00  0.00    +0.000 C 
BRANCH   8   9
ATOM      9  S   UNL     1      44.105   3.563  10.306  0.00  0.00    +0.000 S 
BRANCH   9  10
ATOM     10  C   UNL     1      44.717   4.111   8.675  0.00  0.00    +0.000 C 
BRANCH  10  11
ATOM     11  C   UNL     1      45.653   3.089   8.092  0.00  0.00    +0.000 A 
ATOM     12  C   UNL     1      46.482   3.397   7.004  0.00  0.00    +0.000 A 
ATOM     13  C   UNL     1      47.302   2.421   6.454  0.00  0.00    +0.000 A 
ATOM     14  C   UNL     1      47.265   1.147   7.011  0.00  0.00    +0.000 A 
ATOM     15  N   UNL     1      46.487   0.809   8.061  0.00  0.00    +0.000 NA
ATOM     16  C   UNL     1      45.697   1.780   8.570  0.00  0.00    +0.000 A 
ENDBRANCH  10  11
ENDBRANCH   9  10
ENDBRANCH   8   9
ENDBRANCH   5   8
ENDBRANCH   1   2
BRANCH   1  17
ATOM     17  C   UNL     1      48.411   8.141  14.869  0.00  0.00    +0.000 C 
BRANCH  17  26
ATOM     18  C   UNL     1      48.935   4.845  18.157  0.00  0.00    +0.000 A 
ATOM     19  N   UNL     1      48.858   4.184  19.341  0.00  0.00    +0.000 NA
ATOM     20  C   UNL     1      48.579   4.866  20.473  0.00  0.00    +0.000 A 
ATOM     21  C   UNL     1      48.332   6.222  20.528  0.00  0.00    +0.000 A 
ATOM     22  C   UNL     1      48.383   6.899  19.311  0.00  0.00    +0.000 A 
ATOM     23  N   UNL     1      48.129   8.223  19.066  0.00  0.00    +0.000 NA
ATOM     24  C   UNL     1      48.292   8.361  17.774  0.00  0.00    +0.000 A 
ATOM     25  N   UNL     1      48.678   7.197  17.142  0.00  0.00    +0.000 N 
ATOM     26  C   UNL     1      48.972   7.063  15.776  0.00  0.00    +0.000 C 
ATOM     27  O   UNL     1      49.625   6.105  15.379  0.00  0.00    +0.000 OA
ATOM     28  C   UNL     1      48.711   6.222  18.138  0.00  0.00    +0.000 A 
BRANCH  18  30
ATOM     29  C   UNL     1      48.338   3.056  16.763  0.00  0.00    +0.000 C 
ATOM     30  O   UNL     1      49.220   4.142  17.014  0.00  0.00    +0.000 OA
ENDBRANCH  18  30
ENDBRANCH  17  26
ENDBRANCH   1  17
TORSDOF 8
ENDMDL
MODEL 3
REMARK VINA RESULT:    -6.349      4.652      9.152
REMARK INTER + INTRA:         -10.067
REMARK INTER:                  -8.312
REMARK INTRA:                  -1.755
REMARK UNBOUND:                -0.749
REMARK  Name = 
REMARK  9 active torsions:
REMARK  status: ('A' for Active; 'I' for Inactive)
REMARK    1  A    between atoms: C_1  and  O_2
REMARK    2  A    between atoms: O_2  and  C_3
REMARK    3  A    between atoms: C_11  and  C_13
REMARK    4  A    between atoms: C_13  and  C_14
REMARK    5  A    between atoms: C_14  and  C_15
REMARK    6  A    between atoms: C_18  and  C_19
REMARK    7  A    between atoms: C_19  and  S_20
REMARK    8  A    between atoms: S_20  and  C_21
REMARK    9  A    between atoms: C_21  and  C_22
REMARK                            x       y       z     vdW  Elec       q    Type
REMARK                         _______ _______ _______ _____ _____    ______ ____
ROOT
ATOM      1  C   UNL     1      48.641   8.165  14.173  0.00  0.00    +0.000 C 
ENDROOT
BRANCH   1   2
ATOM      2  C   UNL     1      49.123   7.902  15.589  0.00  0.00    +0.000 A 
ATOM      3  C   UNL     1      48.484   8.523  16.671  0.00  0.00    +0.000 A 
ATOM      4  C   UNL     1      48.895   8.277  17.989  0.00  0.00    +0.000 A 
ATOM      5  C   UNL     1      49.955   7.400  18.254  0.00  0.00    +0.000 A 
ATOM      6  C   UNL     1      50.571   6.756  17.184  0.00  0.00    +0.000 A 
ATOM      7  C   UNL     1      50.161   7.003  15.879  0.00  0.00    +0.000 A 
BRANCH   5   8
ATOM      8  C   UNL     1      50.458   7.147  19.648  0.00  0.00    +0.000 C 
BRANCH   8   9
ATOM      9  S   UNL     1      49.193   6.550  20.804  0.00  0.00    +0.000 S 
BRANCH   9  10
ATOM     10  C   UNL     1      49.300   4.747  20.535  0.00  0.00    +0.000 C 
BRANCH  10  11
ATOM     11  C   UNL     1      48.839   4.392  19.149  0.00  0.00    +0.000 A 
ATOM     12  C   UNL     1      47.605   4.839  18.654  0.00  0.00    +0.000 A 
ATOM     13  C   UNL     1      47.182   4.457  17.388  0.00  0.00    +0.000 A 
ATOM     14  C   UNL     1      48.013   3.625  16.645  0.00  0.00    +0.000 A 
ATOM     15  N   UNL     1      49.210   3.177  17.079  0.00  0.00    +0.000 NA
ATOM     16  C   UNL     1      49.591   3.562  18.318  0.00  0.00    +0.000 A 
ENDBRANCH  10  11
ENDBRANCH   9  10
ENDBRANCH   8   9
ENDBRANCH   5   8
ENDBRANCH   1   2
BRANCH   1  17
ATOM     17  C   UNL     1      48.743   6.982  13.193  0.00  0.00    +0.000 C 
BRANCH  17  26
ATOM     18  C   UNL     1      44.344   6.746  11.602  0.00  0.00    +0.000 A 
ATOM     19  N   UNL     1      43.035   6.403  11.482  0.00  0.00    +0.000 NA
ATOM     20  C   UNL     1      42.577   5.282  12.079  0.00  0.00    +0.000 A 
ATOM     21  C   UNL     1      43.348   4.436  12.849  0.00  0.00    +0.000 A 
ATOM     22  C   UNL     1      44.685   4.799  12.997  0.00  0.00    +0.000 A 
ATOM     23  N   UNL     1      45.654   4.180  13.743  0.00  0.00    +0.000 NA
ATOM     24  C   UNL     1      46.727   4.910  13.569  0.00  0.00    +0.000 A 
ATOM     25  N   UNL     1      46.535   5.974  12.712  0.00  0.00    +0.000 N 
ATOM     26  C   UNL     1      47.518   6.890  12.305  0.00  0.00    +0.000 C 
ATOM     27  O   UNL     1      47.345   7.571  11.301  0.00  0.00    +0.000 OA
ATOM     28  C   UNL     1      45.187   5.929  12.354  0.00  0.00    +0.000 A 
BRANCH  18  30
ATOM     29  C   UNL     1      43.866   8.961  10.998  0.00  0.00    +0.000 C 
ATOM     30  O   UNL     1      44.797   7.887  10.991  0.00  0.00    +0.000 OA
ENDBRANCH  18  30
ENDBRANCH  17  26
ENDBRANCH   1  17
TORSDOF 8
ENDMDL
MODEL 4
REMARK VINA RESULT:    -5.788      2.632      3.993
REMARK INTER + INTRA:          -9.243
REMARK INTER:                  -8.029
REMARK INTRA:                  -1.214
REMARK UNBOUND:                -0.749
REMARK  Name = 
REMARK  9 active torsions:
REMARK  status: ('A' for Active; 'I' for Inactive)
REMARK    1  A    between atoms: C_1  and  O_2
REMARK    2  A    between atoms: O_2  and  C_3
REMARK    3  A    between atoms: C_11  and  C_13
REMARK    4  A    between atoms: C_13  and  C_14
REMARK    5  A    between atoms: C_14  and  C_15
REMARK    6  A    between atoms: C_18  and  C_19
REMARK    7  A    between atoms: C_19  and  S_20
REMARK    8  A    between atoms: S_20  and  C_21
REMARK    9  A    between atoms: C_21  and  C_22
REMARK                            x       y       z     vdW  Elec       q    Type
REMARK                         _______ _______ _______ _____ _____    ______ ____
ROOT
ATOM      1  C   UNL     1      48.093   3.663  17.562  0.00  0.00    +0.000 C 
ENDROOT
BRANCH   1   2
ATOM      2  C   UNL     1      47.957   4.527  16.321  0.00  0.00    +0.000 A 
ATOM      3  C   UNL     1      47.138   4.107  15.264  0.00  0.00    +0.000 A 
ATOM      4  C   UNL     1      46.978   4.900  14.117  0.00  0.00    +0.000 A 
ATOM      5  C   UNL     1      47.634   6.134  14.005  0.00  0.00    +0.000 A 
ATOM      6  C   UNL     1      48.422   6.568  15.068  0.00  0.00    +0.000 A 
ATOM      7  C   UNL     1      48.579   5.779  16.202  0.00  0.00    +0.000 A 
BRANCH   5   8
ATOM      8  C   UNL     1      47.528   6.990  12.774  0.00  0.00    +0.000 C 
BRANCH   8   9
ATOM      9  S   UNL     1      45.868   7.655  12.465  0.00  0.00    +0.000 S 
BRANCH   9  10
ATOM     10  C   UNL     1      45.383   6.703  10.984  0.00  0.00    +0.000 C 
BRANCH  10  11
ATOM     11  C   UNL     1      44.638   5.458  11.378  0.00  0.00    +0.000 A 
ATOM     12  C   UNL     1      43.925   5.386  12.584  0.00  0.00    +0.000 A 
ATOM     13  C   UNL     1      43.285   4.208  12.946  0.00  0.00    +0.000 A 
ATOM     14  C   UNL     1      43.382   3.120  12.085  0.00  0.00    +0.000 A 
ATOM     15  N   UNL     1      44.052   3.148  10.913  0.00  0.00    +0.000 NA
ATOM     16  C   UNL     1      44.668   4.307  10.591  0.00  0.00    +0.000 A 
ENDBRANCH  10  11
ENDBRANCH   9  10
ENDBRANCH   8   9
ENDBRANCH   5   8
ENDBRANCH   1   2
BRANCH   1  17
ATOM     17  C   UNL     1      49.356   3.891  18.412  0.00  0.00    +0.000 C 
BRANCH  17  26
ATOM     18  C   UNL     1      53.658   2.209  17.635  0.00  0.00    +0.000 A 
ATOM     19  N   UNL     1      55.011   2.127  17.541  0.00  0.00    +0.000 NA
ATOM     20  C   UNL     1      55.748   3.255  17.474  0.00  0.00    +0.000 A 
ATOM     21  C   UNL     1      55.230   4.532  17.519  0.00  0.00    +0.000 A 
ATOM     22  C   UNL     1      53.844   4.621  17.643  0.00  0.00    +0.000 A 
ATOM     23  N   UNL     1      53.074   5.749  17.764  0.00  0.00    +0.000 NA
ATOM     24  C   UNL     1      51.847   5.305  17.868  0.00  0.00    +0.000 A 
ATOM     25  N   UNL     1      51.751   3.932  17.787  0.00  0.00    +0.000 N 
ATOM     26  C   UNL     1      50.560   3.188  17.817  0.00  0.00    +0.000 C 
ATOM     27  O   UNL     1      50.544   2.036  17.400  0.00  0.00    +0.000 OA
ATOM     28  C   UNL     1      53.062   3.469  17.670  0.00  0.00    +0.000 A 
BRANCH  18  30
ATOM     29  C   UNL     1      53.661  -0.090  18.096  0.00  0.00    +0.000 C 
ATOM     30  O   UNL     1      52.919   1.055  17.701  0.00  0.00    +0.000 OA
ENDBRANCH  18  30
ENDBRANCH  17  26
ENDBRANCH   1  17
TORSDOF 8
ENDMDL
MODEL 5
REMARK VINA RESULT:    -5.692      2.391      3.520
REMARK INTER + INTRA:          -9.103
REMARK INTER:                  -8.947
REMARK INTRA:                  -0.156
REMARK UNBOUND:                -0.749
REMARK  Name = 
REMARK  9 active torsions:
REMARK  status: ('A' for Active; 'I' for Inactive)
REMARK    1  A    between atoms: C_1  and  O_2
REMARK    2  A    between atoms: O_2  and  C_3
REMARK    3  A    between atoms: C_11  and  C_13
REMARK    4  A    between atoms: C_13  and  C_14
REMARK    5  A    between atoms: C_14  and  C_15
REMARK    6  A    between atoms: C_18  and  C_19
REMARK    7  A    between atoms: C_19  and  S_20
REMARK    8  A    between atoms: S_20  and  C_21
REMARK    9  A    between atoms: C_21  and  C_22
REMARK                            x       y       z     vdW  Elec       q    Type
REMARK                         _______ _______ _______ _____ _____    ______ ____
ROOT
ATOM      1  C   UNL     1      47.889   5.490  15.402  0.00  0.00    +0.000 C 
ENDROOT
BRANCH   1   2
ATOM      2  C   UNL     1      47.235   5.473  14.032  0.00  0.00    +0.000 A 
ATOM      3  C   UNL     1      46.232   4.535  13.750  0.00  0.00    +0.000 A 
ATOM      4  C   UNL     1      45.595   4.514  12.500  0.00  0.00    +0.000 A 
ATOM      5  C   UNL     1      45.948   5.436  11.504  0.00  0.00    +0.000 A 
ATOM      6  C   UNL     1      46.921   6.390  11.793  0.00  0.00    +0.000 A 
ATOM      7  C   UNL     1      47.549   6.406  13.033  0.00  0.00    +0.000 A 
BRANCH   5   8
ATOM      8  C   UNL     1      45.325   5.417  10.136  0.00  0.00    +0.000 C 
BRANCH   8   9
ATOM      9  S   UNL     1      44.008   4.185   9.930  0.00  0.00    +0.000 S 
BRANCH   9  10
ATOM     10  C   UNL     1      44.986   2.650   9.795  0.00  0.00    +0.000 C 
BRANCH  10  11
ATOM     11  C   UNL     1      45.697   2.591   8.472  0.00  0.00    +0.000 A 
ATOM     12  C   UNL     1      46.407   1.448   8.076  0.00  0.00    +0.000 A 
ATOM     13  C   UNL     1      47.095   1.437   6.869  0.00  0.00    +0.000 A 
ATOM     14  C   UNL     1      47.057   2.586   6.086  0.00  0.00    +0.000 A 
ATOM     15  N   UNL     1      46.382   3.705   6.425  0.00  0.00    +0.000 NA
ATOM     16  C   UNL     1      45.727   3.685   7.608  0.00  0.00    +0.000 A 
ENDBRANCH  10  11
ENDBRANCH   9  10
ENDBRANCH   8   9
ENDBRANCH   5   8
ENDBRANCH   1   2
BRANCH   1  17
ATOM     17  C   UNL     1      48.723   6.740  15.738  0.00  0.00    +0.000 C 
BRANCH  17  26
ATOM     18  C   UNL     1      52.243   6.568  18.824  0.00  0.00    +0.000 A 
ATOM     19  N   UNL     1      53.225   6.954  19.680  0.00  0.00    +0.000 NA
ATOM     20  C   UNL     1      53.737   8.200  19.596  0.00  0.00    +0.000 A 
ATOM     21  C   UNL     1      53.316   9.160  18.700  0.00  0.00    +0.000 A 
ATOM     22  C   UNL     1      52.289   8.777  17.837  0.00  0.00    +0.000 A 
ATOM     23  N   UNL     1      51.647   9.536  16.894  0.00  0.00    +0.000 NA
ATOM     24  C   UNL     1      50.758   8.731  16.367  0.00  0.00    +0.000 A 
ATOM     25  N   UNL     1      50.795   7.455  16.889  0.00  0.00    +0.000 N 
ATOM     26  C   UNL     1      49.995   6.376  16.480  0.00  0.00    +0.000 C 
ATOM     27  O   UNL     1      50.327   5.228  16.747  0.00  0.00    +0.000 OA
ATOM     28  C   UNL     1      51.777   7.482  17.879  0.00  0.00    +0.000 A 
BRANCH  18  30
ATOM     29  C   UNL     1      51.942   4.678  20.179  0.00  0.00    +0.000 C 
ATOM     30  O   UNL     1      51.732   5.299  18.918  0.00  0.00    +0.000 OA
ENDBRANCH  18  30
ENDBRANCH  17  26
ENDBRANCH   1  17
TORSDOF 8
ENDMDL
MODEL 6
REMARK VINA RESULT:    -5.319     11.091     12.319
REMARK INTER + INTRA:          -8.556
REMARK INTER:                  -7.072
REMARK INTRA:                  -1.484
REMARK UNBOUND:                -0.749
REMARK  Name = 
REMARK  9 active torsions:
REMARK  status: ('A' for Active; 'I' for Inactive)
REMARK    1  A    between atoms: C_1  and  O_2
REMARK    2  A    between atoms: O_2  and  C_3
REMARK    3  A    between atoms: C_11  and  C_13
REMARK    4  A    between atoms: C_13  and  C_14
REMARK    5  A    between atoms: C_14  and  C_15
REMARK    6  A    between atoms: C_18  and  C_19
REMARK    7  A    between atoms: C_19  and  S_20
REMARK    8  A    between atoms: S_20  and  C_21
REMARK    9  A    between atoms: C_21  and  C_22
REMARK                            x       y       z     vdW  Elec       q    Type
REMARK                         _______ _______ _______ _____ _____    ______ ____
ROOT
ATOM      1  C   UNL     1      40.513  -2.210  18.188  0.00  0.00    +0.000 C 
ENDROOT
BRANCH   1   2
ATOM      2  C   UNL     1      40.796  -2.830  16.832  0.00  0.00    +0.000 A 
ATOM      3  C   UNL     1      41.290  -4.140  16.753  0.00  0.00    +0.000 A 
ATOM      4  C   UNL     1      41.536  -4.744  15.511  0.00  0.00    +0.000 A 
ATOM      5  C   UNL     1      41.290  -4.049  14.318  0.00  0.00    +0.000 A 
ATOM      6  C   UNL     1      40.768  -2.760  14.393  0.00  0.00    +0.000 A 
ATOM      7  C   UNL     1      40.526  -2.165  15.626  0.00  0.00    +0.000 A 
BRANCH   5   8
ATOM      8  C   UNL     1      41.586  -4.642  12.969  0.00  0.00    +0.000 C 
BRANCH   8   9
ATOM      9  S   UNL     1      40.317  -5.788  12.359  0.00  0.00    +0.000 S 
BRANCH   9  10
ATOM     10  C   UNL     1      39.650  -4.846  10.944  0.00  0.00    +0.000 C 
BRANCH  10  11
ATOM     11  C   UNL     1      38.986  -3.582  11.417  0.00  0.00    +0.000 A 
ATOM     12  C   UNL     1      37.900  -3.618  12.303  0.00  0.00    +0.000 A 
ATOM     13  C   UNL     1      37.274  -2.439  12.687  0.00  0.00    +0.000 A 
ATOM     14  C   UNL     1      37.755  -1.244  12.162  0.00  0.00    +0.000 A 
ATOM     15  N   UNL     1      38.801  -1.163  11.312  0.00  0.00    +0.000 NA
ATOM     16  C   UNL     1      39.385  -2.329  10.954  0.00  0.00    +0.000 A 
ENDBRANCH  10  11
ENDBRANCH   9  10
ENDBRANCH   8   9
ENDBRANCH   5   8
ENDBRANCH   1   2
BRANCH   1  17
ATOM     17  C   UNL     1      39.037  -2.187  18.628  0.00  0.00    +0.000 C 
BRANCH  17  26
ATOM     18  C   UNL     1      37.857   1.886  16.638  0.00  0.00    +0.000 A 
ATOM     19  N   UNL     1      37.764   3.219  16.389  0.00  0.00    +0.000 NA
ATOM     20  C   UNL     1      38.051   4.105  17.365  0.00  0.00    +0.000 A 
ATOM     21  C   UNL     1      38.471   3.762  18.634  0.00  0.00    +0.000 A 
ATOM     22  C   UNL     1      38.594   2.397  18.885  0.00  0.00    +0.000 A 
ATOM     23  N   UNL     1      39.037   1.781  20.026  0.00  0.00    +0.000 NA
ATOM     24  C   UNL     1      38.983   0.500  19.757  0.00  0.00    +0.000 A 
ATOM     25  N   UNL     1      38.492   0.224  18.499  0.00  0.00    +0.000 N 
ATOM     26  C   UNL     1      38.277  -1.056  17.963  0.00  0.00    +0.000 C 
ATOM     27  O   UNL     1      37.533  -1.203  17.001  0.00  0.00    +0.000 OA
ATOM     28  C   UNL     1      38.261   1.465  17.904  0.00  0.00    +0.000 A 
BRANCH  18  30
ATOM     29  C   UNL     1      36.790   1.543  14.578  0.00  0.00    +0.000 C 
ATOM     30  O   UNL     1      37.562   0.995  15.638  0.00  0.00    +0.000 OA
ENDBRANCH  18  30
ENDBRANCH  17  26
ENDBRANCH   1  17
TORSDOF 8
ENDMDL
MODEL 7
REMARK VINA RESULT:    -4.981     11.417     12.999
REMARK INTER + INTRA:          -8.059
REMARK INTER:                  -6.048
REMARK INTRA:                  -2.010
REMARK UNBOUND:                -0.749
REMARK  Name = 
REMARK  9 active torsions:
REMARK  status: ('A' for Active; 'I' for Inactive)
REMARK    1  A    between atoms: C_1  and  O_2
REMARK    2  A    between atoms: O_2  and  C_3
REMARK    3  A    between atoms: C_11  and  C_13
REMARK    4  A    between atoms: C_13  and  C_14
REMARK    5  A    between atoms: C_14  and  C_15
REMARK    6  A    between atoms: C_18  and  C_19
REMARK    7  A    between atoms: C_19  and  S_20
REMARK    8  A    between atoms: S_20  and  C_21
REMARK    9  A    between atoms: C_21  and  C_22
REMARK                            x       y       z     vdW  Elec       q    Type
REMARK                         _______ _______ _______ _____ _____    ______ ____
ROOT
ATOM      1  C   UNL     1      40.527  -2.204  17.761  0.00  0.00    +0.000 C 
ENDROOT
BRANCH   1   2
ATOM      2  C   UNL     1      40.856  -3.015  16.522  0.00  0.00    +0.000 A 
ATOM      3  C   UNL     1      40.553  -2.505  15.251  0.00  0.00    +0.000 A 
ATOM      4  C   UNL     1      40.870  -3.226  14.090  0.00  0.00    +0.000 A 
ATOM      5  C   UNL     1      41.502  -4.474  14.175  0.00  0.00    +0.000 A 
ATOM      6  C   UNL     1      41.834  -4.969  15.434  0.00  0.00    +0.000 A 
ATOM      7  C   UNL     1      41.517  -4.251  16.582  0.00  0.00    +0.000 A 
BRANCH   5   8
ATOM      8  C   UNL     1      41.814  -5.300  12.959  0.00  0.00    +0.000 C 
BRANCH   8   9
ATOM      9  S   UNL     1      40.358  -5.788  11.990  0.00  0.00    +0.000 S 
BRANCH   9  10
ATOM     10  C   UNL     1      39.374  -6.658  13.258  0.00  0.00    +0.000 C 
BRANCH  10  11
ATOM     11  C   UNL     1      38.413  -5.712  13.922  0.00  0.00    +0.000 A 
ATOM     12  C   UNL     1      38.252  -5.695  15.316  0.00  0.00    +0.000 A 
ATOM     13  C   UNL     1      37.323  -4.844  15.900  0.00  0.00    +0.000 A 
ATOM     14  C   UNL     1      36.568  -4.028  15.064  0.00  0.00    +0.000 A 
ATOM     15  N   UNL     1      36.694  -4.008  13.720  0.00  0.00    +0.000 NA
ATOM     16  C   UNL     1      37.603  -4.851  13.182  0.00  0.00    +0.000 A 
ENDBRANCH  10  11
ENDBRANCH   9  10
ENDBRANCH   8   9
ENDBRANCH   5   8
ENDBRANCH   1   2
BRANCH   1  17
ATOM     17  C   UNL     1      39.050  -2.206  18.199  0.00  0.00    +0.000 C 
BRANCH  17  26
ATOM     18  C   UNL     1      37.919   2.074  16.667  0.00  0.00    +0.000 A 
ATOM     19  N   UNL     1      37.830   3.426  16.573  0.00  0.00    +0.000 NA
ATOM     20  C   UNL     1      38.087   4.192  17.655  0.00  0.00    +0.000 A 
ATOM     21  C   UNL     1      38.472   3.702  18.886  0.00  0.00    +0.000 A 
ATOM     22  C   UNL     1      38.590   2.317  18.978  0.00  0.00    +0.000 A 
ATOM     23  N   UNL     1      39.003   1.571  20.052  0.00  0.00    +0.000 NA
ATOM     24  C   UNL     1      38.959   0.331  19.633  0.00  0.00    +0.000 A 
ATOM     25  N   UNL     1      38.503   0.204  18.338  0.00  0.00    +0.000 N 
ATOM     26  C   UNL     1      38.307  -1.004  17.650  0.00  0.00    +0.000 C 
ATOM     27  O   UNL     1      37.590  -1.036  16.657  0.00  0.00    +0.000 OA
ATOM     28  C   UNL     1      38.287   1.507  17.886  0.00  0.00    +0.000 A 
BRANCH  18  30
ATOM     29  C   UNL     1      36.628   1.825  14.725  0.00  0.00    +0.000 C 
ATOM     30  O   UNL     1      37.653   1.306  15.562  0.00  0.00    +0.000 OA
ENDBRANCH  18  30
ENDBRANCH  17  26
ENDBRANCH   1  17
TORSDOF 8
ENDMDL
MODEL 8
REMARK VINA RESULT:    -4.881     11.232     12.419
REMARK INTER + INTRA:          -7.912
REMARK INTER:                  -6.102
REMARK INTRA:                  -1.810
REMARK UNBOUND:                -0.749
REMARK  Name = 
REMARK  9 active torsions:
REMARK  status: ('A' for Active; 'I' for Inactive)
REMARK    1  A    between atoms: C_1  and  O_2
REMARK    2  A    between atoms: O_2  and  C_3
REMARK    3  A    between atoms: C_11  and  C_13
REMARK    4  A    between atoms: C_13  and  C_14
REMARK    5  A    between atoms: C_14  and  C_15
REMARK    6  A    between atoms: C_18  and  C_19
REMARK    7  A    between atoms: C_19  and  S_20
REMARK    8  A    between atoms: S_20  and  C_21
REMARK    9  A    between atoms: C_21  and  C_22
REMARK                            x       y       z     vdW  Elec       q    Type
REMARK                         _______ _______ _______ _____ _____    ______ ____
ROOT
ATOM      1  C   UNL     1      40.459  -2.085  16.101  0.00  0.00    +0.000 C 
ENDROOT
BRANCH   1   2
ATOM      2  C   UNL     1      40.214  -2.849  14.812  0.00  0.00    +0.000 A 
ATOM      3  C   UNL     1      39.100  -3.693  14.701  0.00  0.00    +0.000 A 
ATOM      4  C   UNL     1      38.839  -4.390  13.512  0.00  0.00    +0.000 A 
ATOM      5  C   UNL     1      39.688  -4.256  12.405  0.00  0.00    +0.000 A 
ATOM      6  C   UNL     1      40.777  -3.394  12.501  0.00  0.00    +0.000 A 
ATOM      7  C   UNL     1      41.032  -2.705  13.682  0.00  0.00    +0.000 A 
BRANCH   5   8
ATOM      8  C   UNL     1      39.472  -5.023  11.131  0.00  0.00    +0.000 C 
BRANCH   8   9
ATOM      9  S   UNL     1      39.020  -3.995   9.705  0.00  0.00    +0.000 S 
BRANCH   9  10
ATOM     10  C   UNL     1      37.312  -3.521  10.146  0.00  0.00    +0.000 C 
BRANCH  10  11
ATOM     11  C   UNL     1      37.308  -2.249  10.948  0.00  0.00    +0.000 A 
ATOM     12  C   UNL     1      36.392  -2.049  11.991  0.00  0.00    +0.000 A 
ATOM     13  C   UNL     1      36.377  -0.846  12.685  0.00  0.00    +0.000 A 
ATOM     14  C   UNL     1      37.288   0.136  12.308  0.00  0.00    +0.000 A 
ATOM     15  N   UNL     1      38.190  -0.017  11.316  0.00  0.00    +0.000 NA
ATOM     16  C   UNL     1      38.175  -1.197  10.656  0.00  0.00    +0.000 A 
ENDBRANCH  10  11
ENDBRANCH   9  10
ENDBRANCH   8   9
ENDBRANCH   5   8
ENDBRANCH   1   2
BRANCH   1  17
ATOM     17  C   UNL     1      39.291  -2.058  17.104  0.00  0.00    +0.000 C 
BRANCH  17  26
ATOM     18  C   UNL     1      37.809   2.382  16.944  0.00  0.00    +0.000 A 
ATOM     19  N   UNL     1      37.615   3.688  17.268  0.00  0.00    +0.000 NA
ATOM     20  C   UNL     1      37.829   4.104  18.534  0.00  0.00    +0.000 A 
ATOM     21  C   UNL     1      38.269   3.293  19.559  0.00  0.00    +0.000 A 
ATOM     22  C   UNL     1      38.496   1.959  19.225  0.00  0.00    +0.000 A 
ATOM     23  N   UNL     1      38.981   0.956  20.023  0.00  0.00    +0.000 NA
ATOM     24  C   UNL     1      39.027  -0.097  19.244  0.00  0.00    +0.000 A 
ATOM     25  N   UNL     1      38.562   0.144  17.968  0.00  0.00    +0.000 N 
ATOM     26  C   UNL     1      38.449  -0.808  16.942  0.00  0.00    +0.000 C 
ATOM     27  O   UNL     1      37.722  -0.592  15.980  0.00  0.00    +0.000 OA
ATOM     28  C   UNL     1      38.239   1.500  17.935  0.00  0.00    +0.000 A 
BRANCH  18  30
ATOM     29  C   UNL     1      36.334   2.379  15.121  0.00  0.00    +0.000 C 
ATOM     30  O   UNL     1      37.587   1.971  15.655  0.00  0.00    +0.000 OA
ENDBRANCH  18  30
ENDBRANCH  17  26
ENDBRANCH   1  17
TORSDOF 8
ENDMDL
