MODEL 1
REMARK VINA RESULT:    -8.892      0.000      0.000
REMARK INTER + INTRA:         -12.158
REMARK INTER:                 -11.491
REMARK INTRA:                  -0.667
REMARK UNBOUND:                -0.667
REMARK  Name = 
REMARK  5 active torsions:
REMARK  status: ('A' for Active; 'I' for Inactive)
REMARK    1  A    between atoms: C_2  and  C_4
REMARK    2  A    between atoms: C_7  and  O_8
REMARK    3  A    between atoms: O_8  and  C_9
REMARK    4  A    between atoms: C_9  and  C_10
REMARK    5  A    between atoms: C_14  and  C_15
REMARK                            x       y       z     vdW  Elec       q    Type
REMARK                         _______ _______ _______ _____ _____    ______ ____
ROOT
ATOM      1  C   UNL     1      43.440   4.358  11.044  0.00  0.00    +0.000 C 
ENDROOT
BRANCH   1   2
ATOM      2  C   UNL     1      44.626   4.773  11.873  0.00  0.00    +0.000 A 
ATOM      3  C   UNL     1      45.105   3.939  12.873  0.00  0.00    +0.000 A 
ATOM      4  N   UNL     1      46.185   4.216  13.634  0.00  0.00    +0.000 NA
ATOM      5  C   UNL     1      46.822   5.385  13.377  0.00  0.00    +0.000 A 
ATOM      6  C   UNL     1      46.464   6.300  12.385  0.00  0.00    +0.000 A 
ATOM      7  C   UNL     1      45.338   5.952  11.622  0.00  0.00    +0.000 A 
BRANCH   6   8
ATOM      8  C   UNL     1      47.213   7.552  12.146  0.00  0.00    +0.000 A 
ATOM      9  C   UNL     1      46.611   8.817  12.312  0.00  0.00    +0.000 A 
ATOM     10  C   UNL     1      47.320  10.002  12.084  0.00  0.00    +0.000 A 
ATOM     11  C   UNL     1      48.656   9.950  11.699  0.00  0.00    +0.000 A 
ATOM     12  C   UNL     1      49.266   8.714  11.540  0.00  0.00    +0.000 A 
ATOM     13  F   UNL     1      50.553   8.656  11.175  0.00  0.00    +0.000 F 
ATOM     14  C   UNL     1      48.562   7.532  11.750  0.00  0.00    +0.000 A 
ENDBRANCH   6   8
ENDBRANCH   1   2
BRANCH   1  15
ATOM     15  O   UNL     1      43.626   4.733   9.674  0.00  0.00    +0.000 OA
BRANCH  15  19
ATOM     16  C   UNL     1      46.348   2.284   7.795  0.00  0.00    +0.000 A 
ATOM     17  C   UNL     1      45.422   1.732   8.683  0.00  0.00    +0.000 A 
ATOM     18  C   UNL     1      44.506   2.572   9.320  0.00  0.00    +0.000 A 
ATOM     19  C   UNL     1      44.554   3.930   9.043  0.00  0.00    +0.000 A 
ATOM     20  N   UNL     1      45.449   4.491   8.201  0.00  0.00    +0.000 NA
ATOM     21  C   UNL     1      46.333   3.657   7.603  0.00  0.00    +0.000 A 
BRANCH  16  23
ATOM     22  N   UNL     1      48.427   2.152   6.548  0.00  0.00    +0.000 N 
ATOM     23  C   UNL     1      47.350   1.486   7.062  0.00  0.00    +0.000 C 
ATOM     24  O   UNL     1      47.249   0.270   6.959  0.00  0.00    +0.000 OA
ATOM     25  H   UNL     1      49.163   1.576   6.156  0.00  0.00    +0.000 HD
ATOM     26  H   UNL     1      48.675   3.089   6.836  0.00  0.00    +0.000 HD
ENDBRANCH  16  23
ENDBRANCH  15  19
ENDBRANCH   1  15
TORSDOF 5
ENDMDL
MODEL 2
REMARK VINA RESULT:    -8.828      1.007      1.403
REMARK INTER + INTRA:         -12.075
REMARK INTER:                 -11.443
REMARK INTRA:                  -0.632
REMARK UNBOUND:                -0.667
REMARK  Name = 
REMARK  5 active torsions:
REMARK  status: ('A' for Active; 'I' for Inactive)
REMARK    1  A    between atoms: C_2  and  C_4
REMARK    2  A    between atoms: C_7  and  O_8
REMARK    3  A    between atoms: O_8  and  C_9
REMARK    4  A    between atoms: C_9  and  C_10
REMARK    5  A    between atoms: C_14  and  C_15
REMARK                            x       y       z     vdW  Elec       q    Type
REMARK                         _______ _______ _______ _____ _____    ______ ____
ROOT
ATOM      1  C   UNL     1      43.586   4.148  11.250  0.00  0.00    +0.000 C 
ENDROOT
BRANCH   1   2
ATOM      2  C   UNL     1      44.826   4.568  11.992  0.00  0.00    +0.000 A 
ATOM      3  C   UNL     1      45.434   3.699  12.886  0.00  0.00    +0.000 A 
ATOM      4  N   UNL     1      46.568   3.981  13.560  0.00  0.00    +0.000 NA
ATOM      5  C   UNL     1      47.127   5.192  13.324  0.00  0.00    +0.000 A 
ATOM      6  C   UNL     1      46.638   6.149  12.431  0.00  0.00    +0.000 A 
ATOM      7  C   UNL     1      45.461   5.794  11.754  0.00  0.00    +0.000 A 
BRANCH   6   8
ATOM      8  C   UNL     1      47.306   7.448  12.207  0.00  0.00    +0.000 A 
ATOM      9  C   UNL     1      48.674   7.529  11.876  0.00  0.00    +0.000 A 
ATOM     10  C   UNL     1      49.306   8.760  11.665  0.00  0.00    +0.000 A 
ATOM     11  C   UNL     1      48.579   9.942  11.767  0.00  0.00    +0.000 A 
ATOM     12  C   UNL     1      47.231   9.880  12.084  0.00  0.00    +0.000 A 
ATOM     13  F   UNL     1      46.522  11.013  12.178  0.00  0.00    +0.000 F 
ATOM     14  C   UNL     1      46.599   8.660  12.309  0.00  0.00    +0.000 A 
ENDBRANCH   6   8
ENDBRANCH   1   2
BRANCH   1  15
ATOM     15  O   UNL     1      43.641   4.584   9.887  0.00  0.00    +0.000 OA
BRANCH  15  19
ATOM     16  C   UNL     1      46.393   2.420   7.721  0.00  0.00    +0.000 A 
ATOM     17  C   UNL     1      45.553   1.762   8.622  0.00  0.00    +0.000 A 
ATOM     18  C   UNL     1      44.626   2.505   9.357  0.00  0.00    +0.000 A 
ATOM     19  C   UNL     1      44.577   3.877   9.159  0.00  0.00    +0.000 A 
ATOM     20  N   UNL     1      45.388   4.540   8.306  0.00  0.00    +0.000 NA
ATOM     21  C   UNL     1      46.285   3.798   7.613  0.00  0.00    +0.000 A 
BRANCH  16  23
ATOM     22  N   UNL     1      48.469   2.462   6.463  0.00  0.00    +0.000 N 
ATOM     23  C   UNL     1      47.397   1.729   6.889  0.00  0.00    +0.000 C 
ATOM     24  O   UNL     1      47.302   0.537   6.630  0.00  0.00    +0.000 OA
ATOM     25  H   UNL     1      49.207   1.947   5.999  0.00  0.00    +0.000 HD
ATOM     26  H   UNL     1      48.712   3.356   6.869  0.00  0.00    +0.000 HD
ENDBRANCH  16  23
ENDBRANCH  15  19
ENDBRANCH   1  15
TORSDOF 5
ENDMDL
MODEL 3
REMARK VINA RESULT:    -8.415      2.710      3.857
REMARK INTER + INTRA:         -11.541
REMARK INTER:                 -10.873
REMARK INTRA:                  -0.668
REMARK UNBOUND:                -0.667
REMARK  Name = 
REMARK  5 active torsions:
REMARK  status: ('A' for Active; 'I' for Inactive)
REMARK    1  A    between atoms: C_2  and  C_4
REMARK    2  A    between atoms: C_7  and  O_8
REMARK    3  A    between atoms: O_8  and  C_9
REMARK    4  A    between atoms: C_9  and  C_10
REMARK    5  A    between atoms: C_14  and  C_15
REMARK                            x       y       z     vdW  Elec       q    Type
REMARK                         _______ _______ _______ _____ _____    ______ ____
ROOT
ATOM      1  C   UNL     1      43.895   4.307  11.416  0.00  0.00    +0.000 C 
ENDROOT
BRANCH   1   2
ATOM      2  C   UNL     1      44.997   5.152  11.995  0.00  0.00    +0.000 A 
ATOM      3  C   UNL     1      45.310   6.380  11.428  0.00  0.00    +0.000 A 
ATOM      4  N   UNL     1      46.253   7.215  11.908  0.00  0.00    +0.000 NA
ATOM      5  C   UNL     1      46.915   6.806  13.018  0.00  0.00    +0.000 A 
ATOM      6  C   UNL     1      46.683   5.612  13.704  0.00  0.00    +0.000 A 
ATOM      7  C   UNL     1      45.683   4.790  13.161  0.00  0.00    +0.000 A 
BRANCH   6   8
ATOM      8  C   UNL     1      47.432   5.232  14.921  0.00  0.00    +0.000 A 
ATOM      9  C   UNL     1      48.414   6.075  15.479  0.00  0.00    +0.000 A 
ATOM     10  C   UNL     1      49.123   5.714  16.631  0.00  0.00    +0.000 A 
ATOM     11  C   UNL     1      48.855   4.503  17.261  0.00  0.00    +0.000 A 
ATOM     12  C   UNL     1      47.885   3.665  16.730  0.00  0.00    +0.000 A 
ATOM     13  F   UNL     1      47.617   2.499  17.334  0.00  0.00    +0.000 F 
ATOM     14  C   UNL     1      47.187   4.011  15.577  0.00  0.00    +0.000 A 
ENDBRANCH   6   8
ENDBRANCH   1   2
BRANCH   1  15
ATOM     15  O   UNL     1      43.762   4.546  10.010  0.00  0.00    +0.000 OA
BRANCH  15  19
ATOM     16  C   UNL     1      46.378   2.259   7.803  0.00  0.00    +0.000 A 
ATOM     17  C   UNL     1      46.313   3.637   7.584  0.00  0.00    +0.000 A 
ATOM     18  C   UNL     1      45.418   4.404   8.334  0.00  0.00    +0.000 A 
ATOM     19  C   UNL     1      44.625   3.760   9.272  0.00  0.00    +0.000 A 
ATOM     20  N   UNL     1      44.658   2.428   9.492  0.00  0.00    +0.000 NA
ATOM     21  C   UNL     1      45.526   1.705   8.746  0.00  0.00    +0.000 A 
BRANCH  16  23
ATOM     22  N   UNL     1      48.425   1.917   6.544  0.00  0.00    +0.000 N 
ATOM     23  C   UNL     1      47.295   1.361   7.074  0.00  0.00    +0.000 C 
ATOM     24  O   UNL     1      47.081   0.159   6.988  0.00  0.00    +0.000 OA
ATOM     25  H   UNL     1      49.102   1.271   6.155  0.00  0.00    +0.000 HD
ATOM     26  H   UNL     1      48.761   2.831   6.818  0.00  0.00    +0.000 HD
ENDBRANCH  16  23
ENDBRANCH  15  19
ENDBRANCH   1  15
TORSDOF 5
ENDMDL
MODEL 4
REMARK VINA RESULT:    -8.321      3.567      6.825
REMARK INTER + INTRA:         -11.420
REMARK INTER:                 -10.581
REMARK INTRA:                  -0.840
REMARK UNBOUND:                -0.667
REMARK  Name = 
REMARK  5 active torsions:
REMARK  status: ('A' for Active; 'I' for Inactive)
REMARK    1  A    between atoms: C_2  and  C_4
REMARK    2  A    between atoms: C_7  and  O_8
REMARK    3  A    between atoms: O_8  and  C_9
REMARK    4  A    between atoms: C_9  and  C_10
REMARK    5  A    between atoms: C_14  and  C_15
REMARK                            x       y       z     vdW  Elec       q    Type
REMARK                         _______ _______ _______ _____ _____    ______ ____
ROOT
ATOM      1  C   UNL     1      44.313   6.656  11.713  0.00  0.00    +0.000 C 
ENDROOT
BRANCH   1   2
ATOM      2  C   UNL     1      44.219   5.228  11.248  0.00  0.00    +0.000 A 
ATOM      3  C   UNL     1      43.310   4.360  11.835  0.00  0.00    +0.000 A 
ATOM      4  N   UNL     1      43.134   3.079  11.451  0.00  0.00    +0.000 NA
ATOM      5  C   UNL     1      43.902   2.644  10.423  0.00  0.00    +0.000 A 
ATOM      6  C   UNL     1      44.833   3.417   9.726  0.00  0.00    +0.000 A 
ATOM      7  C   UNL     1      44.965   4.744  10.166  0.00  0.00    +0.000 A 
BRANCH   6   8
ATOM      8  C   UNL     1      45.631   2.885   8.600  0.00  0.00    +0.000 A 
ATOM      9  C   UNL     1      46.112   3.723   7.574  0.00  0.00    +0.000 A 
ATOM     10  C   UNL     1      46.866   3.219   6.508  0.00  0.00    +0.000 A 
ATOM     11  C   UNL     1      47.169   1.862   6.451  0.00  0.00    +0.000 A 
ATOM     12  C   UNL     1      46.710   1.025   7.457  0.00  0.00    +0.000 A 
ATOM     13  F   UNL     1      47.003  -0.282   7.413  0.00  0.00    +0.000 F 
ATOM     14  C   UNL     1      45.948   1.517   8.513  0.00  0.00    +0.000 A 
ENDBRANCH   6   8
ENDBRANCH   1   2
BRANCH   1  15
ATOM     15  O   UNL     1      45.052   6.741  12.937  0.00  0.00    +0.000 OA
BRANCH  15  19
ATOM     16  C   UNL     1      48.967   7.839  12.293  0.00  0.00    +0.000 A 
ATOM     17  C   UNL     1      47.939   8.732  11.978  0.00  0.00    +0.000 A 
ATOM     18  C   UNL     1      46.614   8.348  12.195  0.00  0.00    +0.000 A 
ATOM     19  C   UNL     1      46.370   7.087  12.718  0.00  0.00    +0.000 A 
ATOM     20  N   UNL     1      47.344   6.200  13.016  0.00  0.00    +0.000 NA
ATOM     21  C   UNL     1      48.620   6.591  12.787  0.00  0.00    +0.000 A 
BRANCH  16  23
ATOM     22  N   UNL     1      51.110   7.349  11.265  0.00  0.00    +0.000 N 
ATOM     23  C   UNL     1      50.398   8.150  12.113  0.00  0.00    +0.000 C 
ATOM     24  O   UNL     1      50.918   9.112  12.662  0.00  0.00    +0.000 OA
ATOM     25  H   UNL     1      52.056   7.647  11.058  0.00  0.00    +0.000 HD
ATOM     26  H   UNL     1      50.666   6.726  10.604  0.00  0.00    +0.000 HD
ENDBRANCH  16  23
ENDBRANCH  15  19
ENDBRANCH   1  15
TORSDOF 5
ENDMDL
MODEL 5
REMARK VINA RESULT:    -8.176      1.872      2.314
REMARK INTER + INTRA:         -11.233
REMARK INTER:                 -10.630
REMARK INTRA:                  -0.603
REMARK UNBOUND:                -0.667
REMARK  Name = 
REMARK  5 active torsions:
REMARK  status: ('A' for Active; 'I' for Inactive)
REMARK    1  A    between atoms: C_2  and  C_4
REMARK    2  A    between atoms: C_7  and  O_8
REMARK    3  A    between atoms: O_8  and  C_9
REMARK    4  A    between atoms: C_9  and  C_10
REMARK    5  A    between atoms: C_14  and  C_15
REMARK                            x       y       z     vdW  Elec       q    Type
REMARK                         _______ _______ _______ _____ _____    ______ ____
ROOT
ATOM      1  C   UNL     1      44.278   3.331  11.567  0.00  0.00    +0.000 C 
ENDROOT
BRANCH   1   2
ATOM      2  C   UNL     1      44.647   4.787  11.661  0.00  0.00    +0.000 A 
ATOM      3  C   UNL     1      43.677   5.766  11.500  0.00  0.00    +0.000 A 
ATOM      4  N   UNL     1      43.915   7.090  11.609  0.00  0.00    +0.000 NA
ATOM      5  C   UNL     1      45.188   7.454  11.898  0.00  0.00    +0.000 A 
ATOM      6  C   UNL     1      46.252   6.575  12.112  0.00  0.00    +0.000 A 
ATOM      7  C   UNL     1      45.940   5.211  11.994  0.00  0.00    +0.000 A 
BRANCH   6   8
ATOM      8  C   UNL     1      47.617   7.037  12.441  0.00  0.00    +0.000 A 
ATOM      9  C   UNL     1      48.378   7.800  11.532  0.00  0.00    +0.000 A 
ATOM     10  C   UNL     1      49.671   8.237  11.844  0.00  0.00    +0.000 A 
ATOM     11  C   UNL     1      50.229   7.932  13.082  0.00  0.00    +0.000 A 
ATOM     12  C   UNL     1      49.490   7.189  13.990  0.00  0.00    +0.000 A 
ATOM     13  F   UNL     1      50.018   6.896  15.187  0.00  0.00    +0.000 F 
ATOM     14  C   UNL     1      48.210   6.739  13.681  0.00  0.00    +0.000 A 
ENDBRANCH   6   8
ENDBRANCH   1   2
BRANCH   1  15
ATOM     15  O   UNL     1      43.691   3.040  10.294  0.00  0.00    +0.000 OA
BRANCH  15  19
ATOM     16  C   UNL     1      46.562   2.646   7.370  0.00  0.00    +0.000 A 
ATOM     17  C   UNL     1      45.966   3.890   7.588  0.00  0.00    +0.000 A 
ATOM     18  C   UNL     1      44.989   4.013   8.579  0.00  0.00    +0.000 A 
ATOM     19  C   UNL     1      44.648   2.885   9.310  0.00  0.00    +0.000 A 
ATOM     20  N   UNL     1      45.197   1.668   9.109  0.00  0.00    +0.000 NA
ATOM     21  C   UNL     1      46.135   1.573   8.137  0.00  0.00    +0.000 A 
BRANCH  16  23
ATOM     22  N   UNL     1      47.462   3.029   5.148  0.00  0.00    +0.000 N 
ATOM     23  C   UNL     1      47.611   2.411   6.359  0.00  0.00    +0.000 C 
ATOM     24  O   UNL     1      48.599   1.733   6.606  0.00  0.00    +0.000 OA
ATOM     25  H   UNL     1      48.246   2.958   4.511  0.00  0.00    +0.000 HD
ATOM     26  H   UNL     1      46.815   3.791   5.003  0.00  0.00    +0.000 HD
ENDBRANCH  16  23
ENDBRANCH  15  19
ENDBRANCH   1  15
TORSDOF 5
ENDMDL
MODEL 6
REMARK VINA RESULT:    -7.980      3.575      7.113
REMARK INTER + INTRA:         -10.980
REMARK INTER:                 -10.486
REMARK INTRA:                  -0.494
REMARK UNBOUND:                -0.667
REMARK  Name = 
REMARK  5 active torsions:
REMARK  status: ('A' for Active; 'I' for Inactive)
REMARK    1  A    between atoms: C_2  and  C_4
REMARK    2  A    between atoms: C_7  and  O_8
REMARK    3  A    between atoms: O_8  and  C_9
REMARK    4  A    between atoms: C_9  and  C_10
REMARK    5  A    between atoms: C_14  and  C_15
REMARK                            x       y       z     vdW  Elec       q    Type
REMARK                         _______ _______ _______ _____ _____    ______ ____
ROOT
ATOM      1  C   UNL     1      43.883   6.517  11.468  0.00  0.00    +0.000 C 
ENDROOT
BRANCH   1   2
ATOM      2  C   UNL     1      43.960   5.066  11.076  0.00  0.00    +0.000 A 
ATOM      3  C   UNL     1      43.185   4.122  11.735  0.00  0.00    +0.000 A 
ATOM      4  N   UNL     1      43.163   2.811  11.421  0.00  0.00    +0.000 NA
ATOM      5  C   UNL     1      43.953   2.422  10.390  0.00  0.00    +0.000 A 
ATOM      6  C   UNL     1      44.759   3.268   9.626  0.00  0.00    +0.000 A 
ATOM      7  C   UNL     1      44.732   4.623   9.995  0.00  0.00    +0.000 A 
BRANCH   6   8
ATOM      8  C   UNL     1      45.587   2.782   8.502  0.00  0.00    +0.000 A 
ATOM      9  C   UNL     1      46.021   3.645   7.475  0.00  0.00    +0.000 A 
ATOM     10  C   UNL     1      46.804   3.184   6.411  0.00  0.00    +0.000 A 
ATOM     11  C   UNL     1      47.185   1.847   6.356  0.00  0.00    +0.000 A 
ATOM     12  C   UNL     1      46.773   0.986   7.362  0.00  0.00    +0.000 A 
ATOM     13  F   UNL     1      47.141  -0.302   7.319  0.00  0.00    +0.000 F 
ATOM     14  C   UNL     1      45.982   1.434   8.416  0.00  0.00    +0.000 A 
ENDBRANCH   6   8
ENDBRANCH   1   2
BRANCH   1  15
ATOM     15  O   UNL     1      45.046   7.223  11.019  0.00  0.00    +0.000 OA
BRANCH  15  19
ATOM     16  C   UNL     1      47.910   7.446  13.967  0.00  0.00    +0.000 A 
ATOM     17  C   UNL     1      47.089   8.549  13.718  0.00  0.00    +0.000 A 
ATOM     18  C   UNL     1      46.124   8.465  12.712  0.00  0.00    +0.000 A 
ATOM     19  C   UNL     1      46.019   7.282  11.996  0.00  0.00    +0.000 A 
ATOM     20  N   UNL     1      46.810   6.208  12.206  0.00  0.00    +0.000 NA
ATOM     21  C   UNL     1      47.745   6.317  13.180  0.00  0.00    +0.000 A 
BRANCH  16  23
ATOM     22  N   UNL     1      48.532   7.357  16.312  0.00  0.00    +0.000 N 
ATOM     23  C   UNL     1      48.951   7.426  15.013  0.00  0.00    +0.000 C 
ATOM     24  O   UNL     1      50.142   7.421  14.731  0.00  0.00    +0.000 OA
ATOM     25  H   UNL     1      49.255   7.221  17.008  0.00  0.00    +0.000 HD
ATOM     26  H   UNL     1      47.589   7.095  16.565  0.00  0.00    +0.000 HD
ENDBRANCH  16  23
ENDBRANCH  15  19
ENDBRANCH   1  15
TORSDOF 5
ENDMDL
MODEL 7
REMARK VINA RESULT:    -7.912      3.744      7.409
REMARK INTER + INTRA:         -10.891
REMARK INTER:                 -10.333
REMARK INTRA:                  -0.558
REMARK UNBOUND:                -0.667
REMARK  Name = 
REMARK  5 active torsions:
REMARK  status: ('A' for Active; 'I' for Inactive)
REMARK    1  A    between atoms: C_2  and  C_4
REMARK    2  A    between atoms: C_7  and  O_8
REMARK    3  A    between atoms: O_8  and  C_9
REMARK    4  A    between atoms: C_9  and  C_10
REMARK    5  A    between atoms: C_14  and  C_15
REMARK                            x       y       z     vdW  Elec       q    Type
REMARK                         _______ _______ _______ _____ _____    ______ ____
ROOT
ATOM      1  C   UNL     1      45.977   7.066  12.194  0.00  0.00    +0.000 C 
ENDROOT
BRANCH   1   2
ATOM      2  C   UNL     1      45.204   6.080  11.361  0.00  0.00    +0.000 A 
ATOM      3  C   UNL     1      43.822   6.009  11.463  0.00  0.00    +0.000 A 
ATOM      4  N   UNL     1      43.052   5.185  10.724  0.00  0.00    +0.000 NA
ATOM      5  C   UNL     1      43.695   4.393   9.832  0.00  0.00    +0.000 A 
ATOM      6  C   UNL     1      45.074   4.382   9.607  0.00  0.00    +0.000 A 
ATOM      7  C   UNL     1      45.821   5.268  10.400  0.00  0.00    +0.000 A 
BRANCH   6   8
ATOM      8  C   UNL     1      45.713   3.502   8.606  0.00  0.00    +0.000 A 
ATOM      9  C   UNL     1      46.345   4.025   7.459  0.00  0.00    +0.000 A 
ATOM     10  C   UNL     1      46.949   3.191   6.511  0.00  0.00    +0.000 A 
ATOM     11  C   UNL     1      46.948   1.812   6.695  0.00  0.00    +0.000 A 
ATOM     12  C   UNL     1      46.337   1.282   7.822  0.00  0.00    +0.000 A 
ATOM     13  F   UNL     1      46.336  -0.045   8.009  0.00  0.00    +0.000 F 
ATOM     14  C   UNL     1      45.722   2.104   8.762  0.00  0.00    +0.000 A 
ENDBRANCH   6   8
ENDBRANCH   1   2
BRANCH   1  15
ATOM     15  O   UNL     1      47.322   6.615  12.393  0.00  0.00    +0.000 OA
BRANCH  15  19
ATOM     16  C   UNL     1      47.836   4.934  16.115  0.00  0.00    +0.000 A 
ATOM     17  C   UNL     1      48.495   6.125  15.798  0.00  0.00    +0.000 A 
ATOM     18  C   UNL     1      48.319   6.685  14.531  0.00  0.00    +0.000 A 
ATOM     19  C   UNL     1      47.490   6.030  13.632  0.00  0.00    +0.000 A 
ATOM     20  N   UNL     1      46.854   4.871  13.907  0.00  0.00    +0.000 NA
ATOM     21  C   UNL     1      47.049   4.343  15.139  0.00  0.00    +0.000 A 
BRANCH  16  23
ATOM     22  N   UNL     1      47.186   4.768  18.448  0.00  0.00    +0.000 N 
ATOM     23  C   UNL     1      47.944   4.267  17.427  0.00  0.00    +0.000 C 
ATOM     24  O   UNL     1      48.646   3.277  17.586  0.00  0.00    +0.000 OA
ATOM     25  H   UNL     1      47.178   4.227  19.305  0.00  0.00    +0.000 HD
ATOM     26  H   UNL     1      46.413   5.400  18.291  0.00  0.00    +0.000 HD
ENDBRANCH  16  23
ENDBRANCH  15  19
ENDBRANCH   1  15
TORSDOF 5
ENDMDL
MODEL 8
REMARK VINA RESULT:    -7.578      1.594      2.152
REMARK INTER + INTRA:         -10.460
REMARK INTER:                  -9.794
REMARK INTRA:                  -0.666
REMARK UNBOUND:                -0.667
REMARK  Name = 
REMARK  5 active torsions:
REMARK  status: ('A' for Active; 'I' for Inactive)
REMARK    1  A    between atoms: C_2  and  C_4
REMARK    2  A    between atoms: C_7  and  O_8
REMARK    3  A    between atoms: O_8  and  C_9
REMARK    4  A    between atoms: C_9  and  C_10
REMARK    5  A    between atoms: C_14  and  C_15
REMARK                            x       y       z     vdW  Elec       q    Type
REMARK                         _______ _______ _______ _____ _____    ______ ____
ROOT
ATOM      1  C   UNL     1      44.708   4.597  11.606  0.00  0.00    +0.000 C 
ENDROOT
BRANCH   1   2
ATOM      2  C   UNL     1      45.240   5.998  11.740  0.00  0.00    +0.000 A 
ATOM      3  C   UNL     1      44.396   7.086  11.571  0.00  0.00    +0.000 A 
ATOM      4  N   UNL     1      44.783   8.370  11.713  0.00  0.00    +0.000 NA
ATOM      5  C   UNL     1      46.080   8.579  12.048  0.00  0.00    +0.000 A 
ATOM      6  C   UNL     1      47.027   7.578  12.275  0.00  0.00    +0.000 A 
ATOM      7  C   UNL     1      46.562   6.262  12.120  0.00  0.00    +0.000 A 
BRANCH   6   8
ATOM      8  C   UNL     1      48.426   7.873  12.653  0.00  0.00    +0.000 A 
ATOM      9  C   UNL     1      48.948   7.493  13.906  0.00  0.00    +0.000 A 
ATOM     10  C   UNL     1      50.272   7.773  14.264  0.00  0.00    +0.000 A 
ATOM     11  C   UNL     1      51.111   8.429  13.368  0.00  0.00    +0.000 A 
ATOM     12  C   UNL     1      50.615   8.803  12.128  0.00  0.00    +0.000 A 
ATOM     13  F   UNL     1      51.418   9.429  11.257  0.00  0.00    +0.000 F 
ATOM     14  C   UNL     1      49.295   8.540  11.771  0.00  0.00    +0.000 A 
ENDBRANCH   6   8
ENDBRANCH   1   2
BRANCH   1  15
ATOM     15  O   UNL     1      44.046   4.427  10.348  0.00  0.00    +0.000 OA
BRANCH  15  19
ATOM     16  C   UNL     1      46.522   2.804   7.487  0.00  0.00    +0.000 A 
ATOM     17  C   UNL     1      45.774   1.960   8.312  0.00  0.00    +0.000 A 
ATOM     18  C   UNL     1      44.941   2.520   9.283  0.00  0.00    +0.000 A 
ATOM     19  C   UNL     1      44.890   3.901   9.390  0.00  0.00    +0.000 A 
ATOM     20  N   UNL     1      45.613   4.739   8.616  0.00  0.00    +0.000 NA
ATOM     21  C   UNL     1      46.421   4.172   7.689  0.00  0.00    +0.000 A 
BRANCH  16  23
ATOM     22  N   UNL     1      47.304   2.895   5.191  0.00  0.00    +0.000 N 
ATOM     23  C   UNL     1      47.421   2.317   6.424  0.00  0.00    +0.000 C 
ATOM     24  O   UNL     1      48.271   1.464   6.645  0.00  0.00    +0.000 OA
ATOM     25  H   UNL     1      48.007   2.638   4.509  0.00  0.00    +0.000 HD
ATOM     26  H   UNL     1      46.812   3.766   5.044  0.00  0.00    +0.000 HD
ENDBRANCH  16  23
ENDBRANCH  15  19
ENDBRANCH   1  15
TORSDOF 5
ENDMDL
MODEL 9
REMARK VINA RESULT:    -7.518      4.507      8.084
REMARK INTER + INTRA:         -10.383
REMARK INTER:                  -9.844
REMARK INTRA:                  -0.539
REMARK UNBOUND:                -0.667
REMARK  Name = 
REMARK  5 active torsions:
REMARK  status: ('A' for Active; 'I' for Inactive)
REMARK    1  A    between atoms: C_2  and  C_4
REMARK    2  A    between atoms: C_7  and  O_8
REMARK    3  A    between atoms: O_8  and  C_9
REMARK    4  A    between atoms: C_9  and  C_10
REMARK    5  A    between atoms: C_14  and  C_15
REMARK                            x       y       z     vdW  Elec       q    Type
REMARK                         _______ _______ _______ _____ _____    ______ ____
ROOT
ATOM      1  C   UNL     1      45.901   5.135  13.994  0.00  0.00    +0.000 C 
ENDROOT
BRANCH   1   2
ATOM      2  C   UNL     1      45.078   4.780  12.785  0.00  0.00    +0.000 A 
ATOM      3  C   UNL     1      43.716   5.043  12.765  0.00  0.00    +0.000 A 
ATOM      4  N   UNL     1      42.915   4.793  11.709  0.00  0.00    +0.000 NA
ATOM      5  C   UNL     1      43.507   4.259  10.613  0.00  0.00    +0.000 A 
ATOM      6  C   UNL     1      44.868   3.971  10.488  0.00  0.00    +0.000 A 
ATOM      7  C   UNL     1      45.651   4.261  11.617  0.00  0.00    +0.000 A 
BRANCH   6   8
ATOM      8  C   UNL     1      45.455   3.402   9.256  0.00  0.00    +0.000 A 
ATOM      9  C   UNL     1      45.831   4.218   8.171  0.00  0.00    +0.000 A 
ATOM     10  C   UNL     1      46.386   3.679   7.005  0.00  0.00    +0.000 A 
ATOM     11  C   UNL     1      46.590   2.306   6.902  0.00  0.00    +0.000 A 
ATOM     12  C   UNL     1      46.232   1.489   7.965  0.00  0.00    +0.000 A 
ATOM     13  F   UNL     1      46.432   0.167   7.877  0.00  0.00    +0.000 F 
ATOM     14  C   UNL     1      45.667   2.018   9.122  0.00  0.00    +0.000 A 
ENDBRANCH   6   8
ENDBRANCH   1   2
BRANCH   1  15
ATOM     15  O   UNL     1      46.852   4.103  14.279  0.00  0.00    +0.000 OA
BRANCH  15  19
ATOM     16  C   UNL     1      48.470   4.441  18.049  0.00  0.00    +0.000 A 
ATOM     17  C   UNL     1      47.623   3.369  17.755  0.00  0.00    +0.000 A 
ATOM     18  C   UNL     1      47.074   3.266  16.475  0.00  0.00    +0.000 A 
ATOM     19  C   UNL     1      47.396   4.239  15.541  0.00  0.00    +0.000 A 
ATOM     20  N   UNL     1      48.199   5.293  15.803  0.00  0.00    +0.000 NA
ATOM     21  C   UNL     1      48.710   5.376  17.055  0.00  0.00    +0.000 A 
BRANCH  16  23
ATOM     22  N   UNL     1      48.574   3.963  20.427  0.00  0.00    +0.000 N 
ATOM     23  C   UNL     1      49.109   4.636  19.364  0.00  0.00    +0.000 C 
ATOM     24  O   UNL     1      50.107   5.332  19.494  0.00  0.00    +0.000 OA
ATOM     25  H   UNL     1      49.095   4.010  21.294  0.00  0.00    +0.000 HD
ATOM     26  H   UNL     1      47.932   3.189  20.313  0.00  0.00    +0.000 HD
ENDBRANCH  16  23
ENDBRANCH  15  19
ENDBRANCH   1  15
TORSDOF 5
ENDMDL
