MODEL 1
REMARK VINA RESULT:    -7.631      0.000      0.000
REMARK INTER + INTRA:         -10.494
REMARK INTER:                  -9.861
REMARK INTRA:                  -0.633
REMARK UNBOUND:                -0.633
REMARK  Name = 
REMARK  6 active torsions:
REMARK  status: ('A' for Active; 'I' for Inactive)
REMARK    1  A    between atoms: C_1  and  C_2
REMARK    2  A    between atoms: C_2  and  C_3
REMARK    3  A    between atoms: C_2  and  C_14
REMARK    4  A    between atoms: C_3  and  N_4
REMARK    5  A    between atoms: N_4  and  C_5
REMARK    6  A    between atoms: C_8  and  C_9
REMARK                            x       y       z     vdW  Elec       q    Type
REMARK                         _______ _______ _______ _____ _____    ______ ____
ROOT
ATOM      1  N   UNL     1      43.760   3.645  10.324  0.00  0.00    +0.000 N 
ATOM      2  H   UNL     1      43.477   4.623  10.273  0.00  0.00    +0.000 HD
ENDROOT
BRANCH   1   3
ATOM      3  C   UNL     1      44.678   3.327   9.312  0.00  0.00    +0.000 A 
ATOM      4  C   UNL     1      45.145   2.014   9.194  0.00  0.00    +0.000 A 
ATOM      5  C   UNL     1      46.078   1.679   8.211  0.00  0.00    +0.000 A 
ATOM      6  C   UNL     1      46.548   2.689   7.385  0.00  0.00    +0.000 A 
ATOM      7  N   UNL     1      46.177   3.993   7.498  0.00  0.00    +0.000 NA
ATOM      8  C   UNL     1      45.275   4.269   8.469  0.00  0.00    +0.000 A 
BRANCH   6   9
ATOM      9  C   UNL     1      47.513   2.374   6.284  0.00  0.00    +0.000 C 
ATOM     10  N   UNL     1      47.393   3.156   5.167  0.00  0.00    +0.000 N 
ATOM     11  O   UNL     1      48.343   1.477   6.364  0.00  0.00    +0.000 OA
ATOM     12  H   UNL     1      46.682   3.879   5.144  0.00  0.00    +0.000 HD
ATOM     13  H   UNL     1      47.990   2.993   4.371  0.00  0.00    +0.000 HD
ENDBRANCH   6   9
ENDBRANCH   1   3
BRANCH   1  14
ATOM     14  C   UNL     1      44.125   3.276  11.689  0.00  0.00    +0.000 C 
BRANCH  14  16
ATOM     15  C   UNL     1      42.936   5.136  13.001  0.00  0.00    +0.000 C 
ATOM     16  C   UNL     1      44.210   4.537  12.488  0.00  0.00    +0.000 C 
BRANCH  16  17
ATOM     17  C   UNL     1      45.471   5.285  12.604  0.00  0.00    +0.000 A 
ATOM     18  C   UNL     1      46.366   5.058  13.658  0.00  0.00    +0.000 A 
ATOM     19  C   UNL     1      47.553   5.791  13.757  0.00  0.00    +0.000 A 
ATOM     20  C   UNL     1      47.864   6.751  12.797  0.00  0.00    +0.000 A 
ATOM     21  C   UNL     1      46.989   6.982  11.743  0.00  0.00    +0.000 A 
ATOM     22  C   UNL     1      45.799   6.259  11.649  0.00  0.00    +0.000 A 
ENDBRANCH  16  17
ENDBRANCH  14  16
ENDBRANCH   1  14
TORSDOF 5
ENDMDL
MODEL 2
REMARK VINA RESULT:    -7.622      0.688      1.571
REMARK INTER + INTRA:         -10.482
REMARK INTER:                  -9.703
REMARK INTRA:                  -0.779
REMARK UNBOUND:                -0.633
REMARK  Name = 
REMARK  6 active torsions:
REMARK  status: ('A' for Active; 'I' for Inactive)
REMARK    1  A    between atoms: C_1  and  C_2
REMARK    2  A    between atoms: C_2  and  C_3
REMARK    3  A    between atoms: C_2  and  C_14
REMARK    4  A    between atoms: C_3  and  N_4
REMARK    5  A    between atoms: N_4  and  C_5
REMARK    6  A    between atoms: C_8  and  C_9
REMARK                            x       y       z     vdW  Elec       q    Type
REMARK                         _______ _______ _______ _____ _____    ______ ____
ROOT
ATOM      1  N   UNL     1      43.754   3.259  10.557  0.00  0.00    +0.000 N 
ATOM      2  H   UNL     1      43.255   4.136  10.412  0.00  0.00    +0.000 HD
ENDROOT
BRANCH   1   3
ATOM      3  C   UNL     1      44.690   3.032   9.537  0.00  0.00    +0.000 A 
ATOM      4  C   UNL     1      45.105   4.098   8.733  0.00  0.00    +0.000 A 
ATOM      5  C   UNL     1      46.017   3.890   7.696  0.00  0.00    +0.000 A 
ATOM      6  C   UNL     1      46.467   2.598   7.470  0.00  0.00    +0.000 A 
ATOM      7  N   UNL     1      46.047   1.516   8.179  0.00  0.00    +0.000 NA
ATOM      8  C   UNL     1      45.159   1.767   9.169  0.00  0.00    +0.000 A 
BRANCH   6   9
ATOM      9  C   UNL     1      47.481   2.330   6.401  0.00  0.00    +0.000 C 
ATOM     10  N   UNL     1      47.444   3.193   5.338  0.00  0.00    +0.000 N 
ATOM     11  O   UNL     1      48.279   1.403   6.459  0.00  0.00    +0.000 OA
ATOM     12  H   UNL     1      46.757   3.939   5.332  0.00  0.00    +0.000 HD
ATOM     13  H   UNL     1      48.079   3.068   4.565  0.00  0.00    +0.000 HD
ENDBRANCH   6   9
ENDBRANCH   1   3
BRANCH   1  14
ATOM     14  C   UNL     1      44.232   3.149  11.931  0.00  0.00    +0.000 C 
BRANCH  14  16
ATOM     15  C   UNL     1      42.974   5.211  12.802  0.00  0.00    +0.000 C 
ATOM     16  C   UNL     1      44.275   4.530  12.505  0.00  0.00    +0.000 C 
BRANCH  16  17
ATOM     17  C   UNL     1      45.535   5.283  12.590  0.00  0.00    +0.000 A 
ATOM     18  C   UNL     1      45.912   6.200  11.599  0.00  0.00    +0.000 A 
ATOM     19  C   UNL     1      47.122   6.894  11.693  0.00  0.00    +0.000 A 
ATOM     20  C   UNL     1      47.965   6.687  12.782  0.00  0.00    +0.000 A 
ATOM     21  C   UNL     1      47.601   5.785  13.775  0.00  0.00    +0.000 A 
ATOM     22  C   UNL     1      46.398   5.084  13.678  0.00  0.00    +0.000 A 
ENDBRANCH  16  17
ENDBRANCH  14  16
ENDBRANCH   1  14
TORSDOF 5
ENDMDL
MODEL 3
REMARK VINA RESULT:    -7.598      1.644      2.128
REMARK INTER + INTRA:         -10.451
REMARK INTER:                  -9.706
REMARK INTRA:                  -0.745
REMARK UNBOUND:                -0.633
REMARK  Name = 
REMARK  6 active torsions:
REMARK  status: ('A' for Active; 'I' for Inactive)
REMARK    1  A    between atoms: C_1  and  C_2
REMARK    2  A    between atoms: C_2  and  C_3
REMARK    3  A    between atoms: C_2  and  C_14
REMARK    4  A    between atoms: C_3  and  N_4
REMARK    5  A    between atoms: N_4  and  C_5
REMARK    6  A    between atoms: C_8  and  C_9
REMARK                            x       y       z     vdW  Elec       q    Type
REMARK                         _______ _______ _______ _____ _____    ______ ____
ROOT
ATOM      1  N   UNL     1      43.825   4.883   9.895  0.00  0.00    +0.000 N 
ATOM      2  H   UNL     1      44.119   5.833   9.673  0.00  0.00    +0.000 HD
ENDROOT
BRANCH   1   3
ATOM      3  C   UNL     1      44.645   3.936   9.266  0.00  0.00    +0.000 A 
ATOM      4  C   UNL     1      45.600   4.360   8.336  0.00  0.00    +0.000 A 
ATOM      5  C   UNL     1      46.411   3.432   7.678  0.00  0.00    +0.000 A 
ATOM      6  C   UNL     1      46.216   2.087   7.949  0.00  0.00    +0.000 A 
ATOM      7  N   UNL     1      45.260   1.615   8.794  0.00  0.00    +0.000 NA
ATOM      8  C   UNL     1      44.496   2.552   9.404  0.00  0.00    +0.000 A 
BRANCH   6   9
ATOM      9  C   UNL     1      47.090   1.055   7.307  0.00  0.00    +0.000 C 
ATOM     10  N   UNL     1      46.833  -0.237   7.680  0.00  0.00    +0.000 N 
ATOM     11  O   UNL     1      47.981   1.338   6.514  0.00  0.00    +0.000 OA
ATOM     12  H   UNL     1      46.092  -0.419   8.348  0.00  0.00    +0.000 HD
ATOM     13  H   UNL     1      47.392  -0.990   7.310  0.00  0.00    +0.000 HD
ENDBRANCH   6   9
ENDBRANCH   1   3
BRANCH   1  14
ATOM     14  C   UNL     1      43.609   4.723  11.330  0.00  0.00    +0.000 C 
BRANCH  14  16
ATOM     15  C   UNL     1      45.476   3.749  12.799  0.00  0.00    +0.000 C 
ATOM     16  C   UNL     1      44.933   4.897  12.005  0.00  0.00    +0.000 C 
BRANCH  16  17
ATOM     17  C   UNL     1      45.593   6.209  12.065  0.00  0.00    +0.000 A 
ATOM     18  C   UNL     1      46.948   6.365  11.742  0.00  0.00    +0.000 A 
ATOM     19  C   UNL     1      47.560   7.620  11.820  0.00  0.00    +0.000 A 
ATOM     20  C   UNL     1      46.823   8.735  12.212  0.00  0.00    +0.000 A 
ATOM     21  C   UNL     1      45.477   8.596  12.529  0.00  0.00    +0.000 A 
ATOM     22  C   UNL     1      44.868   7.342  12.461  0.00  0.00    +0.000 A 
ENDBRANCH  16  17
ENDBRANCH  14  16
ENDBRANCH   1  14
TORSDOF 5
ENDMDL
MODEL 4
REMARK VINA RESULT:    -7.204      3.362      5.893
REMARK INTER + INTRA:          -9.942
REMARK INTER:                  -9.055
REMARK INTRA:                  -0.888
REMARK UNBOUND:                -0.633
REMARK  Name = 
REMARK  6 active torsions:
REMARK  status: ('A' for Active; 'I' for Inactive)
REMARK    1  A    between atoms: C_1  and  C_2
REMARK    2  A    between atoms: C_2  and  C_3
REMARK    3  A    between atoms: C_2  and  C_14
REMARK    4  A    between atoms: C_3  and  N_4
REMARK    5  A    between atoms: N_4  and  C_5
REMARK    6  A    between atoms: C_8  and  C_9
REMARK                            x       y       z     vdW  Elec       q    Type
REMARK                         _______ _______ _______ _____ _____    ______ ____
ROOT
ATOM      1  N   UNL     1      43.662   5.427  12.268  0.00  0.00    +0.000 N 
ATOM      2  H   UNL     1      43.323   4.696  12.893  0.00  0.00    +0.000 HD
ENDROOT
BRANCH   1   3
ATOM      3  C   UNL     1      44.993   5.764  12.554  0.00  0.00    +0.000 A 
ATOM      4  C   UNL     1      45.675   6.650  11.714  0.00  0.00    +0.000 A 
ATOM      5  C   UNL     1      47.008   6.981  11.965  0.00  0.00    +0.000 A 
ATOM      6  C   UNL     1      47.639   6.381  13.044  0.00  0.00    +0.000 A 
ATOM      7  N   UNL     1      47.044   5.464  13.854  0.00  0.00    +0.000 NA
ATOM      8  C   UNL     1      45.753   5.172  13.568  0.00  0.00    +0.000 A 
BRANCH   6   9
ATOM      9  C   UNL     1      49.053   6.737  13.383  0.00  0.00    +0.000 C 
ATOM     10  N   UNL     1      49.810   7.172  12.328  0.00  0.00    +0.000 N 
ATOM     11  O   UNL     1      49.511   6.639  14.515  0.00  0.00    +0.000 OA
ATOM     12  H   UNL     1      49.388   7.226  11.407  0.00  0.00    +0.000 HD
ATOM     13  H   UNL     1      50.780   7.410  12.468  0.00  0.00    +0.000 HD
ENDBRANCH   6   9
ENDBRANCH   1   3
BRANCH   1  14
ATOM     14  C   UNL     1      43.342   5.118  10.878  0.00  0.00    +0.000 C 
BRANCH  14  16
ATOM     15  C   UNL     1      43.380   2.657  11.608  0.00  0.00    +0.000 C 
ATOM     16  C   UNL     1      43.775   3.710  10.619  0.00  0.00    +0.000 C 
BRANCH  16  17
ATOM     17  C   UNL     1      44.726   3.389   9.544  0.00  0.00    +0.000 A 
ATOM     18  C   UNL     1      45.302   4.389   8.750  0.00  0.00    +0.000 A 
ATOM     19  C   UNL     1      46.193   4.061   7.723  0.00  0.00    +0.000 A 
ATOM     20  C   UNL     1      46.524   2.729   7.485  0.00  0.00    +0.000 A 
ATOM     21  C   UNL     1      45.965   1.727   8.268  0.00  0.00    +0.000 A 
ATOM     22  C   UNL     1      45.069   2.053   9.287  0.00  0.00    +0.000 A 
ENDBRANCH  16  17
ENDBRANCH  14  16
ENDBRANCH   1  14
TORSDOF 5
ENDMDL
MODEL 5
REMARK VINA RESULT:    -7.202      3.162      6.732
REMARK INTER + INTRA:          -9.940
REMARK INTER:                  -9.639
REMARK INTRA:                  -0.301
REMARK UNBOUND:                -0.633
REMARK  Name = 
REMARK  6 active torsions:
REMARK  status: ('A' for Active; 'I' for Inactive)
REMARK    1  A    between atoms: C_1  and  C_2
REMARK    2  A    between atoms: C_2  and  C_3
REMARK    3  A    between atoms: C_2  and  C_14
REMARK    4  A    between atoms: C_3  and  N_4
REMARK    5  A    between atoms: N_4  and  C_5
REMARK    6  A    between atoms: C_8  and  C_9
REMARK                            x       y       z     vdW  Elec       q    Type
REMARK                         _______ _______ _______ _____ _____    ______ ____
ROOT
ATOM      1  N   UNL     1      44.868   5.480  10.631  0.00  0.00    +0.000 N 
ATOM      2  H   UNL     1      43.957   5.024  10.623  0.00  0.00    +0.000 HD
ENDROOT
BRANCH   1   3
ATOM      3  C   UNL     1      45.534   5.269  11.847  0.00  0.00    +0.000 A 
ATOM      4  C   UNL     1      46.661   6.037  12.158  0.00  0.00    +0.000 A 
ATOM      5  C   UNL     1      47.355   5.828  13.352  0.00  0.00    +0.000 A 
ATOM      6  C   UNL     1      46.915   4.819  14.194  0.00  0.00    +0.000 A 
ATOM      7  N   UNL     1      45.866   4.000  13.912  0.00  0.00    +0.000 NA
ATOM      8  C   UNL     1      45.229   4.239  12.741  0.00  0.00    +0.000 A 
BRANCH   6   9
ATOM      9  C   UNL     1      47.595   4.585  15.508  0.00  0.00    +0.000 C 
ATOM     10  N   UNL     1      47.857   5.717  16.234  0.00  0.00    +0.000 N 
ATOM     11  O   UNL     1      47.909   3.470  15.906  0.00  0.00    +0.000 OA
ATOM     12  H   UNL     1      47.587   6.619  15.857  0.00  0.00    +0.000 HD
ATOM     13  H   UNL     1      48.333   5.648  17.120  0.00  0.00    +0.000 HD
ENDBRANCH   6   9
ENDBRANCH   1   3
BRANCH   1  14
ATOM     14  C   UNL     1      45.612   5.185   9.409  0.00  0.00    +0.000 C 
BRANCH  14  16
ATOM     15  C   UNL     1      44.037   3.170   9.639  0.00  0.00    +0.000 C 
ATOM     16  C   UNL     1      45.186   3.829   8.941  0.00  0.00    +0.000 C 
BRANCH  16  17
ATOM     17  C   UNL     1      45.986   3.072   7.966  0.00  0.00    +0.000 A 
ATOM     18  C   UNL     1      46.455   3.662   6.785  0.00  0.00    +0.000 A 
ATOM     19  C   UNL     1      47.201   2.920   5.864  0.00  0.00    +0.000 A 
ATOM     20  C   UNL     1      47.494   1.582   6.118  0.00  0.00    +0.000 A 
ATOM     21  C   UNL     1      47.040   0.986   7.288  0.00  0.00    +0.000 A 
ATOM     22  C   UNL     1      46.287   1.723   8.203  0.00  0.00    +0.000 A 
ENDBRANCH  16  17
ENDBRANCH  14  16
ENDBRANCH   1  14
TORSDOF 5
ENDMDL
MODEL 6
REMARK VINA RESULT:    -6.319      3.813      6.696
REMARK INTER + INTRA:          -8.798
REMARK INTER:                  -8.485
REMARK INTRA:                  -0.313
REMARK UNBOUND:                -0.633
REMARK  Name = 
REMARK  6 active torsions:
REMARK  status: ('A' for Active; 'I' for Inactive)
REMARK    1  A    between atoms: C_1  and  C_2
REMARK    2  A    between atoms: C_2  and  C_3
REMARK    3  A    between atoms: C_2  and  C_14
REMARK    4  A    between atoms: C_3  and  N_4
REMARK    5  A    between atoms: N_4  and  C_5
REMARK    6  A    between atoms: C_8  and  C_9
REMARK                            x       y       z     vdW  Elec       q    Type
REMARK                         _______ _______ _______ _____ _____    ______ ____
ROOT
ATOM      1  N   UNL     1      46.350   5.748  11.396  0.00  0.00    +0.000 N 
ATOM      2  H   UNL     1      46.905   6.425  10.873  0.00  0.00    +0.000 HD
ENDROOT
BRANCH   1   3
ATOM      3  C   UNL     1      46.861   5.562  12.689  0.00  0.00    +0.000 A 
ATOM      4  C   UNL     1      46.292   4.592  13.520  0.00  0.00    +0.000 A 
ATOM      5  C   UNL     1      46.767   4.405  14.820  0.00  0.00    +0.000 A 
ATOM      6  C   UNL     1      47.788   5.229  15.267  0.00  0.00    +0.000 A 
ATOM      7  N   UNL     1      48.333   6.230  14.525  0.00  0.00    +0.000 NA
ATOM      8  C   UNL     1      47.836   6.375  13.274  0.00  0.00    +0.000 A 
BRANCH   6   9
ATOM      9  C   UNL     1      48.365   5.038  16.636  0.00  0.00    +0.000 C 
ATOM     10  N   UNL     1      47.472   5.180  17.665  0.00  0.00    +0.000 N 
ATOM     11  O   UNL     1      49.547   4.787  16.831  0.00  0.00    +0.000 OA
ATOM     12  H   UNL     1      46.505   5.400  17.453  0.00  0.00    +0.000 HD
ATOM     13  H   UNL     1      47.785   5.090  18.619  0.00  0.00    +0.000 HD
ENDBRANCH   6   9
ENDBRANCH   1   3
BRANCH   1  14
ATOM     14  C   UNL     1      44.925   6.041  11.283  0.00  0.00    +0.000 C 
BRANCH  14  16
ATOM     15  C   UNL     1      43.001   4.342  11.350  0.00  0.00    +0.000 C 
ATOM     16  C   UNL     1      44.262   4.830  10.707  0.00  0.00    +0.000 C 
BRANCH  16  17
ATOM     17  C   UNL     1      44.921   4.018   9.672  0.00  0.00    +0.000 A 
ATOM     18  C   UNL     1      44.922   2.618   9.727  0.00  0.00    +0.000 A 
ATOM     19  C   UNL     1      45.568   1.866   8.740  0.00  0.00    +0.000 A 
ATOM     20  C   UNL     1      46.212   2.505   7.683  0.00  0.00    +0.000 A 
ATOM     21  C   UNL     1      46.213   3.893   7.613  0.00  0.00    +0.000 A 
ATOM     22  C   UNL     1      45.577   4.645   8.602  0.00  0.00    +0.000 A 
ENDBRANCH  16  17
ENDBRANCH  14  16
ENDBRANCH   1  14
TORSDOF 5
ENDMDL
MODEL 7
REMARK VINA RESULT:    -6.104      3.655      6.416
REMARK INTER + INTRA:          -8.521
REMARK INTER:                  -8.005
REMARK INTRA:                  -0.516
REMARK UNBOUND:                -0.633
REMARK  Name = 
REMARK  6 active torsions:
REMARK  status: ('A' for Active; 'I' for Inactive)
REMARK    1  A    between atoms: C_1  and  C_2
REMARK    2  A    between atoms: C_2  and  C_3
REMARK    3  A    between atoms: C_2  and  C_14
REMARK    4  A    between atoms: C_3  and  N_4
REMARK    5  A    between atoms: N_4  and  C_5
REMARK    6  A    between atoms: C_8  and  C_9
REMARK                            x       y       z     vdW  Elec       q    Type
REMARK                         _______ _______ _______ _____ _____    ______ ____
ROOT
ATOM      1  N   UNL     1      44.844   5.425  12.131  0.00  0.00    +0.000 N 
ATOM      2  H   UNL     1      45.342   4.561  12.342  0.00  0.00    +0.000 HD
ENDROOT
BRANCH   1   3
ATOM      3  C   UNL     1      45.697   6.536  12.201  0.00  0.00    +0.000 A 
ATOM      4  C   UNL     1      45.198   7.760  12.656  0.00  0.00    +0.000 A 
ATOM      5  C   UNL     1      46.022   8.886  12.711  0.00  0.00    +0.000 A 
ATOM      6  C   UNL     1      47.331   8.760  12.271  0.00  0.00    +0.000 A 
ATOM      7  N   UNL     1      47.850   7.611  11.759  0.00  0.00    +0.000 NA
ATOM      8  C   UNL     1      47.010   6.549  11.721  0.00  0.00    +0.000 A 
BRANCH   6   9
ATOM      9  C   UNL     1      48.268   9.924  12.354  0.00  0.00    +0.000 C 
ATOM     10  N   UNL     1      48.040  10.779  13.399  0.00  0.00    +0.000 N 
ATOM     11  O   UNL     1      49.168  10.113  11.544  0.00  0.00    +0.000 OA
ATOM     12  H   UNL     1      47.275  10.586  14.036  0.00  0.00    +0.000 HD
ATOM     13  H   UNL     1      48.613  11.601  13.512  0.00  0.00    +0.000 HD
ENDBRANCH   6   9
ENDBRANCH   1   3
BRANCH   1  14
ATOM     14  C   UNL     1      44.040   5.283  10.920  0.00  0.00    +0.000 C 
BRANCH  14  16
ATOM     15  C   UNL     1      43.431   2.826  11.346  0.00  0.00    +0.000 C 
ATOM     16  C   UNL     1      44.116   3.851  10.496  0.00  0.00    +0.000 C 
BRANCH  16  17
ATOM     17  C   UNL     1      44.996   3.425   9.397  0.00  0.00    +0.000 A 
ATOM     18  C   UNL     1      45.291   2.074   9.173  0.00  0.00    +0.000 A 
ATOM     19  C   UNL     1      46.143   1.692   8.132  0.00  0.00    +0.000 A 
ATOM     20  C   UNL     1      46.702   2.657   7.297  0.00  0.00    +0.000 A 
ATOM     21  C   UNL     1      46.414   4.000   7.504  0.00  0.00    +0.000 A 
ATOM     22  C   UNL     1      45.572   4.383   8.549  0.00  0.00    +0.000 A 
ENDBRANCH  16  17
ENDBRANCH  14  16
ENDBRANCH   1  14
TORSDOF 5
ENDMDL
MODEL 8
REMARK VINA RESULT:    -5.843      3.412      5.567
REMARK INTER + INTRA:          -8.184
REMARK INTER:                  -7.568
REMARK INTRA:                  -0.616
REMARK UNBOUND:                -0.633
REMARK  Name = 
REMARK  6 active torsions:
REMARK  status: ('A' for Active; 'I' for Inactive)
REMARK    1  A    between atoms: C_1  and  C_2
REMARK    2  A    between atoms: C_2  and  C_3
REMARK    3  A    between atoms: C_2  and  C_14
REMARK    4  A    between atoms: C_3  and  N_4
REMARK    5  A    between atoms: N_4  and  C_5
REMARK    6  A    between atoms: C_8  and  C_9
REMARK                            x       y       z     vdW  Elec       q    Type
REMARK                         _______ _______ _______ _____ _____    ______ ____
ROOT
ATOM      1  N   UNL     1      47.161   7.068  13.846  0.00  0.00    +0.000 N 
ATOM      2  H   UNL     1      47.200   8.043  13.553  0.00  0.00    +0.000 HD
ENDROOT
BRANCH   1   3
ATOM      3  C   UNL     1      46.401   6.297  12.953  0.00  0.00    +0.000 A 
ATOM      4  C   UNL     1      45.791   5.123  13.404  0.00  0.00    +0.000 A 
ATOM      5  C   UNL     1      45.050   4.327  12.528  0.00  0.00    +0.000 A 
ATOM      6  C   UNL     1      44.970   4.717  11.200  0.00  0.00    +0.000 A 
ATOM      7  N   UNL     1      45.597   5.813  10.694  0.00  0.00    +0.000 NA
ATOM      8  C   UNL     1      46.307   6.550  11.582  0.00  0.00    +0.000 A 
BRANCH   6   9
ATOM      9  C   UNL     1      44.150   3.925  10.230  0.00  0.00    +0.000 C 
ATOM     10  N   UNL     1      44.079   4.449   8.967  0.00  0.00    +0.000 N 
ATOM     11  O   UNL     1      43.571   2.889  10.538  0.00  0.00    +0.000 OA
ATOM     12  H   UNL     1      44.566   5.315   8.764  0.00  0.00    +0.000 HD
ATOM     13  H   UNL     1      43.527   3.987   8.260  0.00  0.00    +0.000 HD
ENDBRANCH   6   9
ENDBRANCH   1   3
BRANCH   1  14
ATOM     14  C   UNL     1      48.491   6.568  14.185  0.00  0.00    +0.000 C 
BRANCH  14  16
ATOM     15  C   UNL     1      49.021   7.902  16.314  0.00  0.00    +0.000 C 
ATOM     16  C   UNL     1      48.619   6.609  15.675  0.00  0.00    +0.000 C 
BRANCH  16  17
ATOM     17  C   UNL     1      48.555   5.380  16.480  0.00  0.00    +0.000 A 
ATOM     18  C   UNL     1      47.431   4.543  16.455  0.00  0.00    +0.000 A 
ATOM     19  C   UNL     1      47.385   3.387  17.240  0.00  0.00    +0.000 A 
ATOM     20  C   UNL     1      48.465   3.049  18.053  0.00  0.00    +0.000 A 
ATOM     21  C   UNL     1      49.588   3.867  18.083  0.00  0.00    +0.000 A 
ATOM     22  C   UNL     1      49.631   5.026  17.307  0.00  0.00    +0.000 A 
ENDBRANCH  16  17
ENDBRANCH  14  16
ENDBRANCH   1  14
TORSDOF 5
ENDMDL
MODEL 9
REMARK VINA RESULT:    -5.628      4.050      6.684
REMARK INTER + INTRA:          -7.906
REMARK INTER:                  -7.372
REMARK INTRA:                  -0.534
REMARK UNBOUND:                -0.633
REMARK  Name = 
REMARK  6 active torsions:
REMARK  status: ('A' for Active; 'I' for Inactive)
REMARK    1  A    between atoms: C_1  and  C_2
REMARK    2  A    between atoms: C_2  and  C_3
REMARK    3  A    between atoms: C_2  and  C_14
REMARK    4  A    between atoms: C_3  and  N_4
REMARK    5  A    between atoms: N_4  and  C_5
REMARK    6  A    between atoms: C_8  and  C_9
REMARK                            x       y       z     vdW  Elec       q    Type
REMARK                         _______ _______ _______ _____ _____    ______ ____
ROOT
ATOM      1  N   UNL     1      46.302   5.592  12.177  0.00  0.00    +0.000 N 
ATOM      2  H   UNL     1      46.544   4.710  11.729  0.00  0.00    +0.000 HD
ENDROOT
BRANCH   1   3
ATOM      3  C   UNL     1      47.450   6.296  12.569  0.00  0.00    +0.000 A 
ATOM      4  C   UNL     1      48.140   7.068  11.628  0.00  0.00    +0.000 A 
ATOM      5  C   UNL     1      49.299   7.757  11.988  0.00  0.00    +0.000 A 
ATOM      6  C   UNL     1      49.760   7.626  13.289  0.00  0.00    +0.000 A 
ATOM      7  N   UNL     1      49.166   6.838  14.226  0.00  0.00    +0.000 NA
ATOM      8  C   UNL     1      48.049   6.186  13.827  0.00  0.00    +0.000 A 
BRANCH   6   9
ATOM      9  C   UNL     1      50.971   8.381  13.739  0.00  0.00    +0.000 C 
ATOM     10  N   UNL     1      51.060   9.666  13.272  0.00  0.00    +0.000 N 
ATOM     11  O   UNL     1      51.831   7.892  14.461  0.00  0.00    +0.000 OA
ATOM     12  H   UNL     1      50.328  10.022  12.667  0.00  0.00    +0.000 HD
ATOM     13  H   UNL     1      51.857  10.235  13.510  0.00  0.00    +0.000 HD
ENDBRANCH   6   9
ENDBRANCH   1   3
BRANCH   1  14
ATOM     14  C   UNL     1      45.312   6.324  11.393  0.00  0.00    +0.000 C 
BRANCH  14  16
ATOM     15  C   UNL     1      43.010   5.193  11.284  0.00  0.00    +0.000 C 
ATOM     16  C   UNL     1      44.407   5.316  10.759  0.00  0.00    +0.000 C 
BRANCH  16  17
ATOM     17  C   UNL     1      44.917   4.335   9.789  0.00  0.00    +0.000 A 
ATOM     18  C   UNL     1      45.730   4.719   8.714  0.00  0.00    +0.000 A 
ATOM     19  C   UNL     1      46.191   3.771   7.795  0.00  0.00    +0.000 A 
ATOM     20  C   UNL     1      45.854   2.428   7.946  0.00  0.00    +0.000 A 
ATOM     21  C   UNL     1      45.054   2.033   9.011  0.00  0.00    +0.000 A 
ATOM     22  C   UNL     1      44.584   2.979   9.923  0.00  0.00    +0.000 A 
ENDBRANCH  16  17
ENDBRANCH  14  16
ENDBRANCH   1  14
TORSDOF 5
ENDMDL
