MODEL 1
REMARK VINA RESULT:    -8.100      0.000      0.000
REMARK INTER + INTRA:         -11.830
REMARK INTER:                 -10.941
REMARK INTRA:                  -0.889
REMARK UNBOUND:                -0.889
REMARK  Name = 
REMARK  7 active torsions:
REMARK  status: ('A' for Active; 'I' for Inactive)
REMARK    1  A    between atoms: C_1  and  N_2
REMARK    2  A    between atoms: N_5  and  C_6
REMARK    3  A    between atoms: C_10  and  C_11
REMARK    4  A    between atoms: C_11  and  C_12
REMARK    5  A    between atoms: C_12  and  N_13
REMARK    6  A    between atoms: N_13  and  C_14
REMARK    7  A    between atoms: C_17  and  C_18
REMARK                            x       y       z     vdW  Elec       q    Type
REMARK                         _______ _______ _______ _____ _____    ______ ____
ROOT
ATOM      1  C   UNL     1      43.760   4.991  12.271  0.00  0.00    +0.000 C 
ENDROOT
BRANCH   1   6
ATOM      2  C   UNL     1      47.121   5.594  14.006  0.00  0.00    +0.000 A 
ATOM      3  C   UNL     1      47.793   6.330  13.021  0.00  0.00    +0.000 A 
ATOM      4  C   UNL     1      47.181   6.675  11.817  0.00  0.00    +0.000 A 
ATOM      5  C   UNL     1      45.875   6.272  11.559  0.00  0.00    +0.000 A 
ATOM      6  C   UNL     1      45.168   5.512  12.497  0.00  0.00    +0.000 A 
ATOM      7  C   UNL     1      45.804   5.202  13.713  0.00  0.00    +0.000 A 
BRANCH   2  12
ATOM      8  C   UNL     1      48.188   5.239  19.445  0.00  0.00    +0.000 C 
ATOM      9  N   UNL     1      48.410   5.008  18.022  0.00  0.00    +0.000 NA
ATOM     10  C   UNL     1      47.270   4.275  17.425  0.00  0.00    +0.000 C 
ATOM     11  C   UNL     1      47.472   4.025  15.913  0.00  0.00    +0.000 C 
ATOM     12  N   UNL     1      47.693   5.308  15.227  0.00  0.00    +0.000 N 
ATOM     13  C   UNL     1      48.798   6.103  15.783  0.00  0.00    +0.000 C 
ATOM     14  C   UNL     1      48.585   6.292  17.305  0.00  0.00    +0.000 C 
ENDBRANCH   2  12
ENDBRANCH   1   6
BRANCH   1  15
ATOM     15  C   UNL     1      43.450   4.661  10.811  0.00  0.00    +0.000 C 
BRANCH  15  16
ATOM     16  N   UNL     1      43.737   3.265  10.468  0.00  0.00    +0.000 N 
ATOM     17  H   UNL     1      42.891   2.711  10.349  0.00  0.00    +0.000 HD
BRANCH  16  18
ATOM     18  C   UNL     1      44.636   3.083   9.397  0.00  0.00    +0.000 A 
ATOM     19  C   UNL     1      45.108   4.141   8.609  0.00  0.00    +0.000 A 
ATOM     20  C   UNL     1      46.042   3.923   7.602  0.00  0.00    +0.000 A 
ATOM     21  C   UNL     1      46.520   2.637   7.420  0.00  0.00    +0.000 A 
ATOM     22  N   UNL     1      46.136   1.573   8.176  0.00  0.00    +0.000 NA
ATOM     23  C   UNL     1      45.220   1.836   9.148  0.00  0.00    +0.000 A 
BRANCH  21  24
ATOM     24  C   UNL     1      47.541   2.386   6.351  0.00  0.00    +0.000 C 
ATOM     25  N   UNL     1      47.409   3.159   5.228  0.00  0.00    +0.000 N 
ATOM     26  O   UNL     1      48.427   1.551   6.460  0.00  0.00    +0.000 OA
ATOM     27  H   UNL     1      46.646   3.821   5.167  0.00  0.00    +0.000 HD
ATOM     28  H   UNL     1      48.042   3.021   4.455  0.00  0.00    +0.000 HD
ENDBRANCH  21  24
ENDBRANCH  16  18
ENDBRANCH  15  16
ENDBRANCH   1  15
TORSDOF 6
ENDMDL
MODEL 2
REMARK VINA RESULT:    -7.373      1.605      2.159
REMARK INTER + INTRA:         -10.848
REMARK INTER:                 -10.236
REMARK INTRA:                  -0.613
REMARK UNBOUND:                -0.889
REMARK  Name = 
REMARK  7 active torsions:
REMARK  status: ('A' for Active; 'I' for Inactive)
REMARK    1  A    between atoms: C_1  and  N_2
REMARK    2  A    between atoms: N_5  and  C_6
REMARK    3  A    between atoms: C_10  and  C_11
REMARK    4  A    between atoms: C_11  and  C_12
REMARK    5  A    between atoms: C_12  and  N_13
REMARK    6  A    between atoms: N_13  and  C_14
REMARK    7  A    between atoms: C_17  and  C_18
REMARK                            x       y       z     vdW  Elec       q    Type
REMARK                         _______ _______ _______ _____ _____    ______ ____
ROOT
ATOM      1  C   UNL     1      43.559   6.476  11.678  0.00  0.00    +0.000 C 
ENDROOT
BRANCH   1   6
ATOM      2  C   UNL     1      46.951   7.355  13.224  0.00  0.00    +0.000 A 
ATOM      3  C   UNL     1      47.089   8.686  12.808  0.00  0.00    +0.000 A 
ATOM      4  C   UNL     1      46.098   9.330  12.070  0.00  0.00    +0.000 A 
ATOM      5  C   UNL     1      44.942   8.646  11.709  0.00  0.00    +0.000 A 
ATOM      6  C   UNL     1      44.766   7.307  12.075  0.00  0.00    +0.000 A 
ATOM      7  C   UNL     1      45.773   6.693  12.842  0.00  0.00    +0.000 A 
BRANCH   2  12
ATOM      8  C   UNL     1      50.168   5.811  17.481  0.00  0.00    +0.000 C 
ATOM      9  N   UNL     1      49.654   5.785  16.115  0.00  0.00    +0.000 NA
ATOM     10  C   UNL     1      48.209   5.465  16.105  0.00  0.00    +0.000 C 
ATOM     11  C   UNL     1      47.633   5.440  14.670  0.00  0.00    +0.000 C 
ATOM     12  N   UNL     1      47.894   6.731  14.013  0.00  0.00    +0.000 N 
ATOM     13  C   UNL     1      49.310   7.126  14.007  0.00  0.00    +0.000 C 
ATOM     14  C   UNL     1      49.862   7.093  15.454  0.00  0.00    +0.000 C 
ENDBRANCH   2  12
ENDBRANCH   1   6
BRANCH   1  15
ATOM     15  C   UNL     1      43.906   5.055  11.231  0.00  0.00    +0.000 C 
BRANCH  15  16
ATOM     16  N   UNL     1      43.800   4.872   9.781  0.00  0.00    +0.000 N 
ATOM     17  H   UNL     1      43.870   5.751   9.271  0.00  0.00    +0.000 HD
BRANCH  16  18
ATOM     18  C   UNL     1      44.647   3.884   9.237  0.00  0.00    +0.000 A 
ATOM     19  C   UNL     1      44.480   2.516   9.488  0.00  0.00    +0.000 A 
ATOM     20  C   UNL     1      45.301   1.571   8.881  0.00  0.00    +0.000 A 
ATOM     21  C   UNL     1      46.268   2.016   7.996  0.00  0.00    +0.000 A 
ATOM     22  N   UNL     1      46.455   3.325   7.677  0.00  0.00    +0.000 NA
ATOM     23  C   UNL     1      45.628   4.212   8.295  0.00  0.00    +0.000 A 
BRANCH  21  24
ATOM     24  C   UNL     1      47.150   1.012   7.319  0.00  0.00    +0.000 C 
ATOM     25  N   UNL     1      46.856  -0.298   7.591  0.00  0.00    +0.000 N 
ATOM     26  O   UNL     1      48.073   1.326   6.580  0.00  0.00    +0.000 OA
ATOM     27  H   UNL     1      46.101  -0.516   8.229  0.00  0.00    +0.000 HD
ATOM     28  H   UNL     1      47.429  -1.027   7.196  0.00  0.00    +0.000 HD
ENDBRANCH  21  24
ENDBRANCH  16  18
ENDBRANCH  15  16
ENDBRANCH   1  15
TORSDOF 6
ENDMDL
MODEL 3
REMARK VINA RESULT:    -7.156      2.592      8.391
REMARK INTER + INTRA:         -10.555
REMARK INTER:                  -9.864
REMARK INTRA:                  -0.692
REMARK UNBOUND:                -0.889
REMARK  Name = 
REMARK  7 active torsions:
REMARK  status: ('A' for Active; 'I' for Inactive)
REMARK    1  A    between atoms: C_1  and  N_2
REMARK    2  A    between atoms: N_5  and  C_6
REMARK    3  A    between atoms: C_10  and  C_11
REMARK    4  A    between atoms: C_11  and  C_12
REMARK    5  A    between atoms: C_12  and  N_13
REMARK    6  A    between atoms: N_13  and  C_14
REMARK    7  A    between atoms: C_17  and  C_18
REMARK                            x       y       z     vdW  Elec       q    Type
REMARK                         _______ _______ _______ _____ _____    ______ ____
ROOT
ATOM      1  C   UNL     1      45.350   6.551  12.744  0.00  0.00    +0.000 C 
ENDROOT
BRANCH   1   6
ATOM      2  C   UNL     1      44.758   3.554  10.435  0.00  0.00    +0.000 A 
ATOM      3  C   UNL     1      43.832   2.822  11.190  0.00  0.00    +0.000 A 
ATOM      4  C   UNL     1      43.357   3.285  12.416  0.00  0.00    +0.000 A 
ATOM      5  C   UNL     1      43.816   4.493  12.930  0.00  0.00    +0.000 A 
ATOM      6  C   UNL     1      44.762   5.249  12.229  0.00  0.00    +0.000 A 
ATOM      7  C   UNL     1      45.202   4.768  10.983  0.00  0.00    +0.000 A 
BRANCH   2  12
ATOM      8  C   UNL     1      47.859   1.956   6.112  0.00  0.00    +0.000 C 
ATOM      9  N   UNL     1      46.629   2.278   6.828  0.00  0.00    +0.000 NA
ATOM     10  C   UNL     1      46.461   1.397   8.006  0.00  0.00    +0.000 C 
ATOM     11  C   UNL     1      45.170   1.722   8.792  0.00  0.00    +0.000 C 
ATOM     12  N   UNL     1      45.181   3.139   9.190  0.00  0.00    +0.000 N 
ATOM     13  C   UNL     1      45.368   4.075   8.071  0.00  0.00    +0.000 C 
ATOM     14  C   UNL     1      46.643   3.688   7.281  0.00  0.00    +0.000 C 
ENDBRANCH   2  12
ENDBRANCH   1   6
BRANCH   1  15
ATOM     15  C   UNL     1      46.879   6.571  12.769  0.00  0.00    +0.000 C 
BRANCH  15  16
ATOM     16  N   UNL     1      47.422   7.053  14.042  0.00  0.00    +0.000 N 
ATOM     17  H   UNL     1      46.853   7.789  14.456  0.00  0.00    +0.000 HD
BRANCH  16  18
ATOM     18  C   UNL     1      47.736   6.046  14.979  0.00  0.00    +0.000 A 
ATOM     19  C   UNL     1      47.153   4.773  14.954  0.00  0.00    +0.000 A 
ATOM     20  C   UNL     1      47.538   3.790  15.861  0.00  0.00    +0.000 A 
ATOM     21  C   UNL     1      48.538   4.094  16.769  0.00  0.00    +0.000 A 
ATOM     22  N   UNL     1      49.173   5.296  16.821  0.00  0.00    +0.000 NA
ATOM     23  C   UNL     1      48.762   6.224  15.914  0.00  0.00    +0.000 A 
BRANCH  21  24
ATOM     24  C   UNL     1      48.979   3.043  17.742  0.00  0.00    +0.000 C 
ATOM     25  N   UNL     1      48.494   3.189  19.015  0.00  0.00    +0.000 N 
ATOM     26  O   UNL     1      49.720   2.120  17.435  0.00  0.00    +0.000 OA
ATOM     27  H   UNL     1      47.904   3.981  19.235  0.00  0.00    +0.000 HD
ATOM     28  H   UNL     1      48.776   2.535  19.730  0.00  0.00    +0.000 HD
ENDBRANCH  21  24
ENDBRANCH  16  18
ENDBRANCH  15  16
ENDBRANCH   1  15
TORSDOF 6
ENDMDL
MODEL 4
REMARK VINA RESULT:    -7.020      3.288      8.832
REMARK INTER + INTRA:         -10.372
REMARK INTER:                  -9.880
REMARK INTRA:                  -0.492
REMARK UNBOUND:                -0.889
REMARK  Name = 
REMARK  7 active torsions:
REMARK  status: ('A' for Active; 'I' for Inactive)
REMARK    1  A    between atoms: C_1  and  N_2
REMARK    2  A    between atoms: N_5  and  C_6
REMARK    3  A    between atoms: C_10  and  C_11
REMARK    4  A    between atoms: C_11  and  C_12
REMARK    5  A    between atoms: C_12  and  N_13
REMARK    6  A    between atoms: N_13  and  C_14
REMARK    7  A    between atoms: C_17  and  C_18
REMARK                            x       y       z     vdW  Elec       q    Type
REMARK                         _______ _______ _______ _____ _____    ______ ____
ROOT
ATOM      1  C   UNL     1      46.350   5.215  13.869  0.00  0.00    +0.000 C 
ENDROOT
BRANCH   1   6
ATOM      2  C   UNL     1      44.637   4.168  10.607  0.00  0.00    +0.000 A 
ATOM      3  C   UNL     1      43.321   4.577  10.862  0.00  0.00    +0.000 A 
ATOM      4  C   UNL     1      42.970   5.221  12.047  0.00  0.00    +0.000 A 
ATOM      5  C   UNL     1      43.931   5.455  13.024  0.00  0.00    +0.000 A 
ATOM      6  C   UNL     1      45.255   5.042  12.832  0.00  0.00    +0.000 A 
ATOM      7  C   UNL     1      45.583   4.419  11.615  0.00  0.00    +0.000 A 
BRANCH   2  12
ATOM      8  C   UNL     1      47.510   1.741   6.518  0.00  0.00    +0.000 C 
ATOM      9  N   UNL     1      46.339   2.322   7.167  0.00  0.00    +0.000 NA
ATOM     10  C   UNL     1      45.995   1.574   8.397  0.00  0.00    +0.000 C 
ATOM     11  C   UNL     1      44.762   2.174   9.113  0.00  0.00    +0.000 C 
ATOM     12  N   UNL     1      45.009   3.594   9.410  0.00  0.00    +0.000 N 
ATOM     13  C   UNL     1      45.381   4.397   8.235  0.00  0.00    +0.000 C 
ATOM     14  C   UNL     1      46.587   3.739   7.520  0.00  0.00    +0.000 C 
ENDBRANCH   2  12
ENDBRANCH   1   6
BRANCH   1  15
ATOM     15  C   UNL     1      46.989   3.900  14.319  0.00  0.00    +0.000 C 
BRANCH  15  16
ATOM     16  N   UNL     1      46.868   3.673  15.762  0.00  0.00    +0.000 N 
ATOM     17  H   UNL     1      46.263   2.885  15.983  0.00  0.00    +0.000 HD
BRANCH  16  18
ATOM     18  C   UNL     1      48.090   3.608  16.463  0.00  0.00    +0.000 A 
ATOM     19  C   UNL     1      48.783   2.409  16.677  0.00  0.00    +0.000 A 
ATOM     20  C   UNL     1      50.016   2.400  17.321  0.00  0.00    +0.000 A 
ATOM     21  C   UNL     1      50.557   3.611  17.716  0.00  0.00    +0.000 A 
ATOM     22  N   UNL     1      49.957   4.813  17.504  0.00  0.00    +0.000 NA
ATOM     23  C   UNL     1      48.752   4.771  16.870  0.00  0.00    +0.000 A 
BRANCH  21  24
ATOM     24  C   UNL     1      51.892   3.622  18.396  0.00  0.00    +0.000 C 
ATOM     25  N   UNL     1      52.438   2.387  18.628  0.00  0.00    +0.000 N 
ATOM     26  O   UNL     1      52.461   4.652  18.730  0.00  0.00    +0.000 OA
ATOM     27  H   UNL     1      51.923   1.558  18.359  0.00  0.00    +0.000 HD
ATOM     28  H   UNL     1      53.320   2.319  19.111  0.00  0.00    +0.000 HD
ENDBRANCH  21  24
ENDBRANCH  16  18
ENDBRANCH  15  16
ENDBRANCH   1  15
TORSDOF 6
ENDMDL
MODEL 5
REMARK VINA RESULT:    -6.825      2.466      3.834
REMARK INTER + INTRA:         -10.109
REMARK INTER:                  -9.546
REMARK INTRA:                  -0.563
REMARK UNBOUND:                -0.889
REMARK  Name = 
REMARK  7 active torsions:
REMARK  status: ('A' for Active; 'I' for Inactive)
REMARK    1  A    between atoms: C_1  and  N_2
REMARK    2  A    between atoms: N_5  and  C_6
REMARK    3  A    between atoms: C_10  and  C_11
REMARK    4  A    between atoms: C_11  and  C_12
REMARK    5  A    between atoms: C_12  and  N_13
REMARK    6  A    between atoms: N_13  and  C_14
REMARK    7  A    between atoms: C_17  and  C_18
REMARK                            x       y       z     vdW  Elec       q    Type
REMARK                         _______ _______ _______ _____ _____    ______ ____
ROOT
ATOM      1  C   UNL     1      45.669   4.157  12.243  0.00  0.00    +0.000 C 
ENDROOT
BRANCH   1   6
ATOM      2  C   UNL     1      48.305   6.576  13.607  0.00  0.00    +0.000 A 
ATOM      3  C   UNL     1      48.314   6.215  14.961  0.00  0.00    +0.000 A 
ATOM      4  C   UNL     1      47.517   5.181  15.449  0.00  0.00    +0.000 A 
ATOM      5  C   UNL     1      46.670   4.490  14.590  0.00  0.00    +0.000 A 
ATOM      6  C   UNL     1      46.602   4.828  13.234  0.00  0.00    +0.000 A 
ATOM      7  C   UNL     1      47.438   5.859  12.767  0.00  0.00    +0.000 A 
BRANCH   2  12
ATOM      8  C   UNL     1      52.710   9.338  11.652  0.00  0.00    +0.000 C 
ATOM      9  N   UNL     1      51.320   9.151  12.052  0.00  0.00    +0.000 NA
ATOM     10  C   UNL     1      50.683   8.080  11.253  0.00  0.00    +0.000 C 
ATOM     11  C   UNL     1      49.210   7.852  11.663  0.00  0.00    +0.000 C 
ATOM     12  N   UNL     1      49.140   7.550  13.102  0.00  0.00    +0.000 N 
ATOM     13  C   UNL     1      49.776   8.563  13.958  0.00  0.00    +0.000 C 
ATOM     14  C   UNL     1      51.233   8.797  13.487  0.00  0.00    +0.000 C 
ENDBRANCH   2  12
ENDBRANCH   1   6
BRANCH   1  15
ATOM     15  C   UNL     1      44.684   5.117  11.573  0.00  0.00    +0.000 C 
BRANCH  15  16
ATOM     16  N   UNL     1      43.976   4.510  10.443  0.00  0.00    +0.000 N 
ATOM     17  H   UNL     1      43.320   5.152  10.003  0.00  0.00    +0.000 HD
BRANCH  16  18
ATOM     18  C   UNL     1      44.799   3.870   9.493  0.00  0.00    +0.000 A 
ATOM     19  C   UNL     1      45.644   4.571   8.622  0.00  0.00    +0.000 A 
ATOM     20  C   UNL     1      46.485   3.896   7.742  0.00  0.00    +0.000 A 
ATOM     21  C   UNL     1      46.489   2.512   7.774  0.00  0.00    +0.000 A 
ATOM     22  N   UNL     1      45.725   1.772   8.621  0.00  0.00    +0.000 NA
ATOM     23  C   UNL     1      44.919   2.476   9.462  0.00  0.00    +0.000 A 
BRANCH  21  24
ATOM     24  C   UNL     1      47.401   1.768   6.845  0.00  0.00    +0.000 C 
ATOM     25  N   UNL     1      48.425   2.510   6.318  0.00  0.00    +0.000 N 
ATOM     26  O   UNL     1      47.249   0.587   6.567  0.00  0.00    +0.000 OA
ATOM     27  H   UNL     1      48.501   3.491   6.553  0.00  0.00    +0.000 HD
ATOM     28  H   UNL     1      49.058   2.082   5.660  0.00  0.00    +0.000 HD
ENDBRANCH  21  24
ENDBRANCH  16  18
ENDBRANCH  15  16
ENDBRANCH   1  15
TORSDOF 6
ENDMDL
MODEL 6
REMARK VINA RESULT:    -6.808      1.454      2.099
REMARK INTER + INTRA:         -10.086
REMARK INTER:                  -9.399
REMARK INTRA:                  -0.687
REMARK UNBOUND:                -0.889
REMARK  Name = 
REMARK  7 active torsions:
REMARK  status: ('A' for Active; 'I' for Inactive)
REMARK    1  A    between atoms: C_1  and  N_2
REMARK    2  A    between atoms: N_5  and  C_6
REMARK    3  A    between atoms: C_10  and  C_11
REMARK    4  A    between atoms: C_11  and  C_12
REMARK    5  A    between atoms: C_12  and  N_13
REMARK    6  A    between atoms: N_13  and  C_14
REMARK    7  A    between atoms: C_17  and  C_18
REMARK                            x       y       z     vdW  Elec       q    Type
REMARK                         _______ _______ _______ _____ _____    ______ ____
ROOT
ATOM      1  C   UNL     1      45.931   7.121  11.276  0.00  0.00    +0.000 C 
ENDROOT
BRANCH   1   6
ATOM      2  C   UNL     1      48.216   6.382  14.259  0.00  0.00    +0.000 A 
ATOM      3  C   UNL     1      49.383   7.050  13.865  0.00  0.00    +0.000 A 
ATOM      4  C   UNL     1      49.447   7.772  12.675  0.00  0.00    +0.000 A 
ATOM      5  C   UNL     1      48.343   7.826  11.832  0.00  0.00    +0.000 A 
ATOM      6  C   UNL     1      47.162   7.153  12.164  0.00  0.00    +0.000 A 
ATOM      7  C   UNL     1      47.119   6.455  13.385  0.00  0.00    +0.000 A 
BRANCH   2  12
ATOM      8  C   UNL     1      49.103   3.012  18.585  0.00  0.00    +0.000 C 
ATOM      9  N   UNL     1      48.426   4.053  17.818  0.00  0.00    +0.000 NA
ATOM     10  C   UNL     1      49.345   5.178  17.535  0.00  0.00    +0.000 C 
ATOM     11  C   UNL     1      48.657   6.293  16.713  0.00  0.00    +0.000 C 
ATOM     12  N   UNL     1      48.119   5.724  15.467  0.00  0.00    +0.000 N 
ATOM     13  C   UNL     1      47.214   4.583  15.670  0.00  0.00    +0.000 C 
ATOM     14  C   UNL     1      47.921   3.510  16.536  0.00  0.00    +0.000 C 
ENDBRANCH   2  12
ENDBRANCH   1   6
BRANCH   1  15
ATOM     15  C   UNL     1      45.080   5.861  11.443  0.00  0.00    +0.000 C 
BRANCH  15  16
ATOM     16  N   UNL     1      44.387   5.474  10.211  0.00  0.00    +0.000 N 
ATOM     17  H   UNL     1      44.185   6.270   9.611  0.00  0.00    +0.000 HD
BRANCH  16  18
ATOM     18  C   UNL     1      44.984   4.416   9.494  0.00  0.00    +0.000 A 
ATOM     19  C   UNL     1      45.896   4.623   8.450  0.00  0.00    +0.000 A 
ATOM     20  C   UNL     1      46.508   3.549   7.811  0.00  0.00    +0.000 A 
ATOM     21  C   UNL     1      46.216   2.270   8.255  0.00  0.00    +0.000 A 
ATOM     22  N   UNL     1      45.373   2.003   9.288  0.00  0.00    +0.000 NA
ATOM     23  C   UNL     1      44.799   3.085   9.882  0.00  0.00    +0.000 A 
BRANCH  21  24
ATOM     24  C   UNL     1      46.879   1.103   7.589  0.00  0.00    +0.000 C 
ATOM     25  N   UNL     1      47.726   1.422   6.561  0.00  0.00    +0.000 N 
ATOM     26  O   UNL     1      46.681  -0.056   7.927  0.00  0.00    +0.000 OA
ATOM     27  H   UNL     1      47.842   2.392   6.296  0.00  0.00    +0.000 HD
ATOM     28  H   UNL     1      48.180   0.684   6.047  0.00  0.00    +0.000 HD
ENDBRANCH  21  24
ENDBRANCH  16  18
ENDBRANCH  15  16
ENDBRANCH   1  15
TORSDOF 6
ENDMDL
MODEL 7
REMARK VINA RESULT:    -6.618      3.241      7.760
REMARK INTER + INTRA:          -9.828
REMARK INTER:                  -8.893
REMARK INTRA:                  -0.935
REMARK UNBOUND:                -0.889
REMARK  Name = 
REMARK  7 active torsions:
REMARK  status: ('A' for Active; 'I' for Inactive)
REMARK    1  A    between atoms: C_1  and  N_2
REMARK    2  A    between atoms: N_5  and  C_6
REMARK    3  A    between atoms: C_10  and  C_11
REMARK    4  A    between atoms: C_11  and  C_12
REMARK    5  A    between atoms: C_12  and  N_13
REMARK    6  A    between atoms: N_13  and  C_14
REMARK    7  A    between atoms: C_17  and  C_18
REMARK                            x       y       z     vdW  Elec       q    Type
REMARK                         _______ _______ _______ _____ _____    ______ ____
ROOT
ATOM      1  C   UNL     1      46.513   3.820  13.917  0.00  0.00    +0.000 C 
ENDROOT
BRANCH   1   6
ATOM      2  C   UNL     1      44.825   3.355  10.511  0.00  0.00    +0.000 A 
ATOM      3  C   UNL     1      43.504   3.697  10.826  0.00  0.00    +0.000 A 
ATOM      4  C   UNL     1      43.140   4.114  12.105  0.00  0.00    +0.000 A 
ATOM      5  C   UNL     1      44.094   4.180  13.114  0.00  0.00    +0.000 A 
ATOM      6  C   UNL     1      45.423   3.823  12.860  0.00  0.00    +0.000 A 
ATOM      7  C   UNL     1      45.764   3.432  11.552  0.00  0.00    +0.000 A 
BRANCH   2  12
ATOM      8  C   UNL     1      47.794   2.116   5.982  0.00  0.00    +0.000 C 
ATOM      9  N   UNL     1      46.585   2.326   6.772  0.00  0.00    +0.000 NA
ATOM     10  C   UNL     1      46.544   1.400   7.926  0.00  0.00    +0.000 C 
ATOM     11  C   UNL     1      45.278   1.607   8.789  0.00  0.00    +0.000 C 
ATOM     12  N   UNL     1      45.209   3.009   9.232  0.00  0.00    +0.000 N 
ATOM     13  C   UNL     1      45.268   3.988   8.137  0.00  0.00    +0.000 C 
ATOM     14  C   UNL     1      46.523   3.719   7.270  0.00  0.00    +0.000 C 
ENDBRANCH   2  12
ENDBRANCH   1   6
BRANCH   1  15
ATOM     15  C   UNL     1      46.993   5.217  14.314  0.00  0.00    +0.000 C 
BRANCH  15  16
ATOM     16  N   UNL     1      47.576   5.959  13.193  0.00  0.00    +0.000 N 
ATOM     17  H   UNL     1      47.911   5.347  12.451  0.00  0.00    +0.000 HD
BRANCH  16  18
ATOM     18  C   UNL     1      46.779   7.006  12.686  0.00  0.00    +0.000 A 
ATOM     19  C   UNL     1      45.948   6.859  11.568  0.00  0.00    +0.000 A 
ATOM     20  C   UNL     1      45.131   7.901  11.140  0.00  0.00    +0.000 A 
ATOM     21  C   UNL     1      45.136   9.078  11.869  0.00  0.00    +0.000 A 
ATOM     22  N   UNL     1      45.887   9.272  12.986  0.00  0.00    +0.000 NA
ATOM     23  C   UNL     1      46.669   8.225  13.366  0.00  0.00    +0.000 A 
BRANCH  21  24
ATOM     24  C   UNL     1      44.249  10.205  11.434  0.00  0.00    +0.000 C 
ATOM     25  N   UNL     1      43.269  10.552  12.325  0.00  0.00    +0.000 N 
ATOM     26  O   UNL     1      44.379  10.776  10.360  0.00  0.00    +0.000 OA
ATOM     27  H   UNL     1      43.179  10.037  13.191  0.00  0.00    +0.000 HD
ATOM     28  H   UNL     1      42.616  11.281  12.083  0.00  0.00    +0.000 HD
ENDBRANCH  21  24
ENDBRANCH  16  18
ENDBRANCH  15  16
ENDBRANCH   1  15
TORSDOF 6
ENDMDL
MODEL 8
REMARK VINA RESULT:    -6.274      3.719      7.809
REMARK INTER + INTRA:          -9.364
REMARK INTER:                  -8.494
REMARK INTRA:                  -0.870
REMARK UNBOUND:                -0.889
REMARK  Name = 
REMARK  7 active torsions:
REMARK  status: ('A' for Active; 'I' for Inactive)
REMARK    1  A    between atoms: C_1  and  N_2
REMARK    2  A    between atoms: N_5  and  C_6
REMARK    3  A    between atoms: C_10  and  C_11
REMARK    4  A    between atoms: C_11  and  C_12
REMARK    5  A    between atoms: C_12  and  N_13
REMARK    6  A    between atoms: N_13  and  C_14
REMARK    7  A    between atoms: C_17  and  C_18
REMARK                            x       y       z     vdW  Elec       q    Type
REMARK                         _______ _______ _______ _____ _____    ______ ____
ROOT
ATOM      1  C   UNL     1      49.241   8.670  12.119  0.00  0.00    +0.000 C 
ENDROOT
BRANCH   1   6
ATOM      2  C   UNL     1      45.509   7.809  12.095  0.00  0.00    +0.000 A 
ATOM      3  C   UNL     1      44.949   9.086  11.952  0.00  0.00    +0.000 A 
ATOM      4  C   UNL     1      45.742  10.224  11.823  0.00  0.00    +0.000 A 
ATOM      5  C   UNL     1      47.128  10.115  11.855  0.00  0.00    +0.000 A 
ATOM      6  C   UNL     1      47.739   8.867  12.024  0.00  0.00    +0.000 A 
ATOM      7  C   UNL     1      46.911   7.734  12.125  0.00  0.00    +0.000 A 
BRANCH   2  12
ATOM      8  C   UNL     1      43.461   2.705  11.314  0.00  0.00    +0.000 C 
ATOM      9  N   UNL     1      43.524   4.048  11.882  0.00  0.00    +0.000 NA
ATOM     10  C   UNL     1      44.795   4.249  12.614  0.00  0.00    +0.000 C 
ATOM     11  C   UNL     1      44.895   5.668  13.219  0.00  0.00    +0.000 C 
ATOM     12  N   UNL     1      44.735   6.670  12.153  0.00  0.00    +0.000 N 
ATOM     13  C   UNL     1      43.502   6.517  11.366  0.00  0.00    +0.000 C 
ATOM     14  C   UNL     1      43.415   5.071  10.817  0.00  0.00    +0.000 C 
ENDBRANCH   2  12
ENDBRANCH   1   6
BRANCH   1  15
ATOM     15  C   UNL     1      49.659   7.570  13.096  0.00  0.00    +0.000 C 
BRANCH  15  16
ATOM     16  N   UNL     1      49.403   7.924  14.495  0.00  0.00    +0.000 N 
ATOM     17  H   UNL     1      48.784   8.727  14.588  0.00  0.00    +0.000 HD
BRANCH  16  18
ATOM     18  C   UNL     1      48.997   6.854  15.320  0.00  0.00    +0.000 A 
ATOM     19  C   UNL     1      49.279   6.799  16.691  0.00  0.00    +0.000 A 
ATOM     20  C   UNL     1      48.805   5.754  17.479  0.00  0.00    +0.000 A 
ATOM     21  C   UNL     1      48.020   4.786  16.877  0.00  0.00    +0.000 A 
ATOM     22  N   UNL     1      47.676   4.801  15.562  0.00  0.00    +0.000 NA
ATOM     23  C   UNL     1      48.162   5.842  14.832  0.00  0.00    +0.000 A 
BRANCH  21  24
ATOM     24  C   UNL     1      47.487   3.662  17.713  0.00  0.00    +0.000 C 
ATOM     25  N   UNL     1      48.138   3.460  18.901  0.00  0.00    +0.000 N 
ATOM     26  O   UNL     1      46.543   2.965  17.368  0.00  0.00    +0.000 OA
ATOM     27  H   UNL     1      48.932   4.042  19.138  0.00  0.00    +0.000 HD
ATOM     28  H   UNL     1      47.854   2.700  19.499  0.00  0.00    +0.000 HD
ENDBRANCH  21  24
ENDBRANCH  16  18
ENDBRANCH  15  16
ENDBRANCH   1  15
TORSDOF 6
ENDMDL
MODEL 9
REMARK VINA RESULT:    -5.952      2.957      5.203
REMARK INTER + INTRA:          -8.928
REMARK INTER:                  -8.155
REMARK INTRA:                  -0.773
REMARK UNBOUND:                -0.889
REMARK  Name = 
REMARK  7 active torsions:
REMARK  status: ('A' for Active; 'I' for Inactive)
REMARK    1  A    between atoms: C_1  and  N_2
REMARK    2  A    between atoms: N_5  and  C_6
REMARK    3  A    between atoms: C_10  and  C_11
REMARK    4  A    between atoms: C_11  and  C_12
REMARK    5  A    between atoms: C_12  and  N_13
REMARK    6  A    between atoms: N_13  and  C_14
REMARK    7  A    between atoms: C_17  and  C_18
REMARK                            x       y       z     vdW  Elec       q    Type
REMARK                         _______ _______ _______ _____ _____    ______ ____
ROOT
ATOM      1  C   UNL     1      48.313   9.187  14.344  0.00  0.00    +0.000 C 
ENDROOT
BRANCH   1   6
ATOM      2  C   UNL     1      48.754   6.967  17.434  0.00  0.00    +0.000 A 
ATOM      3  C   UNL     1      48.416   7.869  18.452  0.00  0.00    +0.000 A 
ATOM      4  C   UNL     1      48.010   9.172  18.172  0.00  0.00    +0.000 A 
ATOM      5  C   UNL     1      47.950   9.616  16.855  0.00  0.00    +0.000 A 
ATOM      6  C   UNL     1      48.303   8.765  15.802  0.00  0.00    +0.000 A 
ATOM      7  C   UNL     1      48.684   7.447  16.116  0.00  0.00    +0.000 A 
BRANCH   2  12
ATOM      8  C   UNL     1      50.586   1.741  17.005  0.00  0.00    +0.000 C 
ATOM      9  N   UNL     1      50.001   2.902  17.667  0.00  0.00    +0.000 NA
ATOM     10  C   UNL     1      50.949   4.038  17.670  0.00  0.00    +0.000 C 
ATOM     11  C   UNL     1      50.352   5.288  18.356  0.00  0.00    +0.000 C 
ATOM     12  N   UNL     1      49.089   5.656  17.696  0.00  0.00    +0.000 N 
ATOM     13  C   UNL     1      48.105   4.565  17.635  0.00  0.00    +0.000 C 
ATOM     14  C   UNL     1      48.754   3.318  16.985  0.00  0.00    +0.000 C 
ENDBRANCH   2  12
ENDBRANCH   1   6
BRANCH   1  15
ATOM     15  C   UNL     1      47.831   8.100  13.382  0.00  0.00    +0.000 C 
BRANCH  15  16
ATOM     16  N   UNL     1      46.374   7.938  13.389  0.00  0.00    +0.000 N 
ATOM     17  H   UNL     1      45.890   8.749  13.010  0.00  0.00    +0.000 HD
BRANCH  16  18
ATOM     18  C   UNL     1      45.901   6.736  12.824  0.00  0.00    +0.000 A 
ATOM     19  C   UNL     1      46.221   5.473  13.341  0.00  0.00    +0.000 A 
ATOM     20  C   UNL     1      45.682   4.315  12.789  0.00  0.00    +0.000 A 
ATOM     21  C   UNL     1      44.794   4.446  11.735  0.00  0.00    +0.000 A 
ATOM     22  N   UNL     1      44.410   5.641  11.212  0.00  0.00    +0.000 NA
ATOM     23  C   UNL     1      44.964   6.745  11.785  0.00  0.00    +0.000 A 
BRANCH  21  24
ATOM     24  C   UNL     1      44.190   3.211  11.138  0.00  0.00    +0.000 C 
ATOM     25  N   UNL     1      45.000   2.527  10.271  0.00  0.00    +0.000 N 
ATOM     26  O   UNL     1      43.055   2.833  11.396  0.00  0.00    +0.000 OA
ATOM     27  H   UNL     1      45.923   2.886  10.065  0.00  0.00    +0.000 HD
ATOM     28  H   UNL     1      44.646   1.704   9.808  0.00  0.00    +0.000 HD
ENDBRANCH  21  24
ENDBRANCH  16  18
ENDBRANCH  15  16
ENDBRANCH   1  15
TORSDOF 6
ENDMDL
