MODEL 1
REMARK VINA RESULT:    -7.567      0.000      0.000
REMARK INTER + INTRA:         -12.458
REMARK INTER:                 -11.106
REMARK INTRA:                  -1.351
REMARK UNBOUND:                -1.351
REMARK  Name = 
REMARK  9 active torsions:
REMARK  status: ('A' for Active; 'I' for Inactive)
REMARK    1  A    between atoms: C_1  and  C_2
REMARK    2  A    between atoms: C_2  and  C_3
REMARK    3  A    between atoms: C_3  and  N_4
REMARK    4  A    between atoms: C_10  and  C_11
REMARK    5  A    between atoms: N_13  and  C_14
REMARK    6  A    between atoms: C_14  and  C_15
REMARK    7  A    between atoms: C_18  and  C_19
REMARK    8  A    between atoms: C_19  and  N_20
REMARK    9  A    between atoms: C_21  and  C_23
REMARK                            x       y       z     vdW  Elec       q    Type
REMARK                         _______ _______ _______ _____ _____    ______ ____
ROOT
ATOM      1  C   UNL     1      48.347   9.074  15.094  0.00  0.00    +0.000 C 
ATOM      2  O   UNL     1      49.145   9.634  14.348  0.00  0.00    +0.000 OA
ATOM      3  N   UNL     1      47.176   8.520  14.639  0.00  0.00    +0.000 N 
ATOM      4  H   UNL     1      46.457   8.293  15.316  0.00  0.00    +0.000 HD
ENDROOT
BRANCH   1  11
ATOM      5  N   UNL     1      49.459   5.450  17.834  0.00  0.00    +0.000 N 
ATOM      6  C   UNL     1      49.655   5.859  19.134  0.00  0.00    +0.000 A 
ATOM      7  N   UNL     1      49.536   7.075  19.570  0.00  0.00    +0.000 NA
ATOM      8  C   UNL     1      49.181   7.976  18.620  0.00  0.00    +0.000 A 
ATOM      9  S   UNL     1      48.910   9.613  19.012  0.00  0.00    +0.000 S 
ATOM     10  C   UNL     1      48.514   9.995  17.395  0.00  0.00    +0.000 A 
ATOM     11  C   UNL     1      48.618   8.913  16.530  0.00  0.00    +0.000 A 
ATOM     12  C   UNL     1      48.985   7.731  17.276  0.00  0.00    +0.000 A 
ATOM     13  C   UNL     1      49.151   6.362  16.830  0.00  0.00    +0.000 A 
ATOM     14  O   UNL     1      49.047   6.039  15.648  0.00  0.00    +0.000 OA
BRANCH   5  15
ATOM     15  C   UNL     1      49.626   4.052  17.458  0.00  0.00    +0.000 C 
BRANCH  15  17
ATOM     16  C   UNL     1      47.196   3.403  17.338  0.00  0.00    +0.000 C 
ATOM     17  C   UNL     1      48.521   3.170  18.043  0.00  0.00    +0.000 C 
ENDBRANCH  15  17
ENDBRANCH   5  15
ENDBRANCH   1  11
BRANCH   3  18
ATOM     18  C   UNL     1      46.721   8.695  13.283  0.00  0.00    +0.000 C 
BRANCH  18  19
ATOM     19  C   UNL     1      46.050   7.444  12.767  0.00  0.00    +0.000 A 
ATOM     20  C   UNL     1      44.975   7.519  11.871  0.00  0.00    +0.000 A 
ATOM     21  C   UNL     1      44.361   6.356  11.386  0.00  0.00    +0.000 A 
ATOM     22  C   UNL     1      44.790   5.090  11.809  0.00  0.00    +0.000 A 
ATOM     23  C   UNL     1      45.853   5.016  12.719  0.00  0.00    +0.000 A 
ATOM     24  C   UNL     1      46.468   6.179  13.201  0.00  0.00    +0.000 A 
BRANCH  22  25
ATOM     25  C   UNL     1      44.134   3.835  11.284  0.00  0.00    +0.000 C 
BRANCH  25  26
ATOM     26  N   UNL     1      44.969   3.154  10.326  0.00  0.00    +0.000 N 
ATOM     27  C   UNL     1      44.922   3.435   8.976  0.00  0.00    +0.000 C 
ATOM     28  O   UNL     1      44.169   4.298   8.527  0.00  0.00    +0.000 OA
ATOM     29  H   UNL     1      45.660   2.492  10.655  0.00  0.00    +0.000 HD
BRANCH  27  30
ATOM     30  C   UNL     1      45.820   2.646   8.135  0.00  0.00    +0.000 A 
ATOM     31  C   UNL     1      46.145   1.309   8.279  0.00  0.00    +0.000 A 
ATOM     32  C   UNL     1      47.070   0.857   7.290  0.00  0.00    +0.000 A 
ATOM     33  C   UNL     1      47.428   1.865   6.425  0.00  0.00    +0.000 A 
ATOM     34  S   UNL     1      46.645   3.336   6.798  0.00  0.00    +0.000 S 
ENDBRANCH  27  30
ENDBRANCH  25  26
ENDBRANCH  22  25
ENDBRANCH  18  19
ENDBRANCH   3  18
TORSDOF 8
ENDMDL
MODEL 2
REMARK VINA RESULT:    -7.313      4.725      8.334
REMARK INTER + INTRA:         -12.085
REMARK INTER:                 -10.947
REMARK INTRA:                  -1.138
REMARK UNBOUND:                -1.351
REMARK  Name = 
REMARK  9 active torsions:
REMARK  status: ('A' for Active; 'I' for Inactive)
REMARK    1  A    between atoms: C_1  and  C_2
REMARK    2  A    between atoms: C_2  and  C_3
REMARK    3  A    between atoms: C_3  and  N_4
REMARK    4  A    between atoms: C_10  and  C_11
REMARK    5  A    between atoms: N_13  and  C_14
REMARK    6  A    between atoms: C_14  and  C_15
REMARK    7  A    between atoms: C_18  and  C_19
REMARK    8  A    between atoms: C_19  and  N_20
REMARK    9  A    between atoms: C_21  and  C_23
REMARK                            x       y       z     vdW  Elec       q    Type
REMARK                         _______ _______ _______ _____ _____    ______ ____
ROOT
ATOM      1  C   UNL     1      44.656   6.639  11.709  0.00  0.00    +0.000 C 
ATOM      2  O   UNL     1      44.037   7.524  11.126  0.00  0.00    +0.000 OA
ATOM      3  N   UNL     1      45.621   6.910  12.648  0.00  0.00    +0.000 N 
ATOM      4  H   UNL     1      46.256   6.166  12.913  0.00  0.00    +0.000 HD
ENDROOT
BRANCH   1  11
ATOM      5  N   UNL     1      45.693   3.593   8.315  0.00  0.00    +0.000 N 
ATOM      6  C   UNL     1      45.209   2.339   8.615  0.00  0.00    +0.000 A 
ATOM      7  N   UNL     1      44.538   2.023   9.680  0.00  0.00    +0.000 NA
ATOM      8  C   UNL     1      44.321   3.058  10.530  0.00  0.00    +0.000 A 
ATOM      9  S   UNL     1      43.400   2.854  11.950  0.00  0.00    +0.000 S 
ATOM     10  C   UNL     1      43.582   4.500  12.372  0.00  0.00    +0.000 A 
ATOM     11  C   UNL     1      44.367   5.216  11.478  0.00  0.00    +0.000 A 
ATOM     12  C   UNL     1      44.769   4.355  10.389  0.00  0.00    +0.000 A 
ATOM     13  C   UNL     1      45.534   4.657   9.195  0.00  0.00    +0.000 A 
ATOM     14  O   UNL     1      46.022   5.767   8.992  0.00  0.00    +0.000 OA
BRANCH   5  15
ATOM     15  C   UNL     1      46.441   3.830   7.086  0.00  0.00    +0.000 C 
BRANCH  15  17
ATOM     16  C   UNL     1      48.152   2.077   6.499  0.00  0.00    +0.000 C 
ATOM     17  C   UNL     1      46.712   2.530   6.327  0.00  0.00    +0.000 C 
ENDBRANCH  15  17
ENDBRANCH   5  15
ENDBRANCH   1  11
BRANCH   3  18
ATOM     18  C   UNL     1      46.090   8.249  12.900  0.00  0.00    +0.000 C 
BRANCH  18  19
ATOM     19  C   UNL     1      47.515   8.425  12.429  0.00  0.00    +0.000 A 
ATOM     20  C   UNL     1      47.994   9.681  12.033  0.00  0.00    +0.000 A 
ATOM     21  C   UNL     1      49.319   9.843  11.605  0.00  0.00    +0.000 A 
ATOM     22  C   UNL     1      50.189   8.745  11.537  0.00  0.00    +0.000 A 
ATOM     23  C   UNL     1      49.704   7.486  11.916  0.00  0.00    +0.000 A 
ATOM     24  C   UNL     1      48.381   7.326  12.345  0.00  0.00    +0.000 A 
BRANCH  22  25
ATOM     25  C   UNL     1      51.619   8.918  11.083  0.00  0.00    +0.000 C 
BRANCH  25  26
ATOM     26  N   UNL     1      52.067   7.802  10.288  0.00  0.00    +0.000 N 
ATOM     27  C   UNL     1      52.811   7.969   9.138  0.00  0.00    +0.000 C 
ATOM     28  O   UNL     1      53.142   9.086   8.745  0.00  0.00    +0.000 OA
ATOM     29  H   UNL     1      51.888   6.860  10.612  0.00  0.00    +0.000 HD
BRANCH  27  30
ATOM     30  C   UNL     1      53.174   6.738   8.437  0.00  0.00    +0.000 A 
ATOM     31  C   UNL     1      52.570   6.205   7.312  0.00  0.00    +0.000 A 
ATOM     32  C   UNL     1      53.166   4.977   6.896  0.00  0.00    +0.000 A 
ATOM     33  C   UNL     1      54.205   4.607   7.719  0.00  0.00    +0.000 A 
ATOM     34  S   UNL     1      54.461   5.738   8.973  0.00  0.00    +0.000 S 
ENDBRANCH  27  30
ENDBRANCH  25  26
ENDBRANCH  22  25
ENDBRANCH  18  19
ENDBRANCH   3  18
TORSDOF 8
ENDMDL
MODEL 3
REMARK VINA RESULT:    -7.240      4.740      9.526
REMARK INTER + INTRA:         -11.978
REMARK INTER:                 -11.443
REMARK INTRA:                  -0.534
REMARK UNBOUND:                -1.351
REMARK  Name = 
REMARK  9 active torsions:
REMARK  status: ('A' for Active; 'I' for Inactive)
REMARK    1  A    between atoms: C_1  and  C_2
REMARK    2  A    between atoms: C_2  and  C_3
REMARK    3  A    between atoms: C_3  and  N_4
REMARK    4  A    between atoms: C_10  and  C_11
REMARK    5  A    between atoms: N_13  and  C_14
REMARK    6  A    between atoms: C_14  and  C_15
REMARK    7  A    between atoms: C_18  and  C_19
REMARK    8  A    between atoms: C_19  and  N_20
REMARK    9  A    between atoms: C_21  and  C_23
REMARK                            x       y       z     vdW  Elec       q    Type
REMARK                         _______ _______ _______ _____ _____    ______ ____
ROOT
ATOM      1  C   UNL     1      47.232   4.227  14.855  0.00  0.00    +0.000 C 
ATOM      2  O   UNL     1      47.529   3.074  14.553  0.00  0.00    +0.000 OA
ATOM      3  N   UNL     1      47.237   4.673  16.154  0.00  0.00    +0.000 N 
ATOM      4  H   UNL     1      46.759   5.541  16.365  0.00  0.00    +0.000 HD
ENDROOT
BRANCH   1  11
ATOM      5  N   UNL     1      44.752   4.163  10.890  0.00  0.00    +0.000 N 
ATOM      6  C   UNL     1      44.711   5.414  10.317  0.00  0.00    +0.000 A 
ATOM      7  N   UNL     1      45.288   6.479  10.783  0.00  0.00    +0.000 NA
ATOM      8  C   UNL     1      45.981   6.280  11.932  0.00  0.00    +0.000 A 
ATOM      9  S   UNL     1      46.863   7.544  12.661  0.00  0.00    +0.000 S 
ATOM     10  C   UNL     1      47.402   6.520  13.918  0.00  0.00    +0.000 A 
ATOM     11  C   UNL     1      46.897   5.228  13.833  0.00  0.00    +0.000 A 
ATOM     12  C   UNL     1      46.087   5.103  12.644  0.00  0.00    +0.000 A 
ATOM     13  C   UNL     1      45.406   3.945  12.098  0.00  0.00    +0.000 A 
ATOM     14  O   UNL     1      45.394   2.859  12.673  0.00  0.00    +0.000 OA
BRANCH   5  15
ATOM     15  C   UNL     1      44.058   3.038  10.277  0.00  0.00    +0.000 C 
BRANCH  15  17
ATOM     16  C   UNL     1      45.606   1.789   8.732  0.00  0.00    +0.000 C 
ATOM     17  C   UNL     1      44.496   2.822   8.827  0.00  0.00    +0.000 C 
ENDBRANCH  15  17
ENDBRANCH   5  15
ENDBRANCH   1  11
BRANCH   3  18
ATOM     18  C   UNL     1      47.434   3.783  17.270  0.00  0.00    +0.000 C 
BRANCH  18  19
ATOM     19  C   UNL     1      48.903   3.507  17.494  0.00  0.00    +0.000 A 
ATOM     20  C   UNL     1      49.468   2.275  17.137  0.00  0.00    +0.000 A 
ATOM     21  C   UNL     1      50.833   2.025  17.338  0.00  0.00    +0.000 A 
ATOM     22  C   UNL     1      51.659   2.993  17.927  0.00  0.00    +0.000 A 
ATOM     23  C   UNL     1      51.089   4.217  18.301  0.00  0.00    +0.000 A 
ATOM     24  C   UNL     1      49.726   4.467  18.098  0.00  0.00    +0.000 A 
BRANCH  22  25
ATOM     25  C   UNL     1      53.131   2.729  18.139  0.00  0.00    +0.000 C 
BRANCH  25  26
ATOM     26  N   UNL     1      53.534   1.464  17.577  0.00  0.00    +0.000 N 
ATOM     27  C   UNL     1      54.215   0.515  18.311  0.00  0.00    +0.000 C 
ATOM     28  O   UNL     1      54.497   0.701  19.494  0.00  0.00    +0.000 OA
ATOM     29  H   UNL     1      53.258   1.232  16.631  0.00  0.00    +0.000 HD
BRANCH  27  30
ATOM     30  C   UNL     1      54.568  -0.707  17.592  0.00  0.00    +0.000 A 
ATOM     31  C   UNL     1      54.803  -0.844  16.235  0.00  0.00    +0.000 A 
ATOM     32  C   UNL     1      55.107  -2.186  15.860  0.00  0.00    +0.000 A 
ATOM     33  C   UNL     1      55.090  -3.037  16.942  0.00  0.00    +0.000 A 
ATOM     34  S   UNL     1      54.721  -2.216  18.393  0.00  0.00    +0.000 S 
ENDBRANCH  27  30
ENDBRANCH  25  26
ENDBRANCH  22  25
ENDBRANCH  18  19
ENDBRANCH   3  18
TORSDOF 8
ENDMDL
MODEL 4
REMARK VINA RESULT:    -6.870      2.603      4.261
REMARK INTER + INTRA:         -11.434
REMARK INTER:                 -10.173
REMARK INTRA:                  -1.261
REMARK UNBOUND:                -1.351
REMARK  Name = 
REMARK  9 active torsions:
REMARK  status: ('A' for Active; 'I' for Inactive)
REMARK    1  A    between atoms: C_1  and  C_2
REMARK    2  A    between atoms: C_2  and  C_3
REMARK    3  A    between atoms: C_3  and  N_4
REMARK    4  A    between atoms: C_10  and  C_11
REMARK    5  A    between atoms: N_13  and  C_14
REMARK    6  A    between atoms: C_14  and  C_15
REMARK    7  A    between atoms: C_18  and  C_19
REMARK    8  A    between atoms: C_19  and  N_20
REMARK    9  A    between atoms: C_21  and  C_23
REMARK                            x       y       z     vdW  Elec       q    Type
REMARK                         _______ _______ _______ _____ _____    ______ ____
ROOT
ATOM      1  C   UNL     1      48.997   5.876  16.110  0.00  0.00    +0.000 C 
ATOM      2  O   UNL     1      49.480   4.917  16.706  0.00  0.00    +0.000 OA
ATOM      3  N   UNL     1      47.803   5.801  15.438  0.00  0.00    +0.000 N 
ATOM      4  H   UNL     1      47.578   6.534  14.775  0.00  0.00    +0.000 HD
ENDROOT
BRANCH   1  11
ATOM      5  N   UNL     1      50.492   8.819  12.797  0.00  0.00    +0.000 N 
ATOM      6  C   UNL     1      50.998   9.972  13.355  0.00  0.00    +0.000 A 
ATOM      7  N   UNL     1      51.077  10.224  14.626  0.00  0.00    +0.000 NA
ATOM      8  C   UNL     1      50.612   9.230  15.423  0.00  0.00    +0.000 A 
ATOM      9  S   UNL     1      50.695   9.348  17.121  0.00  0.00    +0.000 S 
ATOM     10  C   UNL     1      49.991   7.804  17.320  0.00  0.00    +0.000 A 
ATOM     11  C   UNL     1      49.647   7.194  16.120  0.00  0.00    +0.000 A 
ATOM     12  C   UNL     1      50.046   8.038  15.017  0.00  0.00    +0.000 A 
ATOM     13  C   UNL     1      49.957   7.809  13.589  0.00  0.00    +0.000 A 
ATOM     14  O   UNL     1      49.428   6.805  13.117  0.00  0.00    +0.000 OA
BRANCH   5  15
ATOM     15  C   UNL     1      50.449   8.647  11.350  0.00  0.00    +0.000 C 
BRANCH  15  17
ATOM     16  C   UNL     1      52.394   7.482  10.254  0.00  0.00    +0.000 C 
ATOM     17  C   UNL     1      51.831   8.815  10.717  0.00  0.00    +0.000 C 
ENDBRANCH  15  17
ENDBRANCH   5  15
ENDBRANCH   1  11
BRANCH   3  18
ATOM     18  C   UNL     1      47.108   4.553  15.246  0.00  0.00    +0.000 C 
BRANCH  18  19
ATOM     19  C   UNL     1      46.381   4.532  13.921  0.00  0.00    +0.000 A 
ATOM     20  C   UNL     1      46.044   3.319  13.303  0.00  0.00    +0.000 A 
ATOM     21  C   UNL     1      45.362   3.303  12.078  0.00  0.00    +0.000 A 
ATOM     22  C   UNL     1      45.026   4.499  11.429  0.00  0.00    +0.000 A 
ATOM     23  C   UNL     1      45.380   5.710  12.039  0.00  0.00    +0.000 A 
ATOM     24  C   UNL     1      46.059   5.727  13.264  0.00  0.00    +0.000 A 
BRANCH  22  25
ATOM     25  C   UNL     1      44.285   4.484  10.113  0.00  0.00    +0.000 C 
BRANCH  25  26
ATOM     26  N   UNL     1      45.149   4.125   9.017  0.00  0.00    +0.000 N 
ATOM     27  C   UNL     1      45.251   2.829   8.554  0.00  0.00    +0.000 C 
ATOM     28  O   UNL     1      44.592   1.917   9.050  0.00  0.00    +0.000 OA
ATOM     29  H   UNL     1      45.652   4.851   8.524  0.00  0.00    +0.000 HD
BRANCH  27  30
ATOM     30  C   UNL     1      46.183   2.625   7.445  0.00  0.00    +0.000 A 
ATOM     31  C   UNL     1      46.371   3.446   6.347  0.00  0.00    +0.000 A 
ATOM     32  C   UNL     1      47.350   2.939   5.442  0.00  0.00    +0.000 A 
ATOM     33  C   UNL     1      47.877   1.743   5.873  0.00  0.00    +0.000 A 
ATOM     34  S   UNL     1      47.201   1.248   7.361  0.00  0.00    +0.000 S 
ENDBRANCH  27  30
ENDBRANCH  25  26
ENDBRANCH  22  25
ENDBRANCH  18  19
ENDBRANCH   3  18
TORSDOF 8
ENDMDL
MODEL 5
REMARK VINA RESULT:    -6.400      3.225      9.423
REMARK INTER + INTRA:         -10.745
REMARK INTER:                  -9.740
REMARK INTRA:                  -1.005
REMARK UNBOUND:                -1.351
REMARK  Name = 
REMARK  9 active torsions:
REMARK  status: ('A' for Active; 'I' for Inactive)
REMARK    1  A    between atoms: C_1  and  C_2
REMARK    2  A    between atoms: C_2  and  C_3
REMARK    3  A    between atoms: C_3  and  N_4
REMARK    4  A    between atoms: C_10  and  C_11
REMARK    5  A    between atoms: N_13  and  C_14
REMARK    6  A    between atoms: C_14  and  C_15
REMARK    7  A    between atoms: C_18  and  C_19
REMARK    8  A    between atoms: C_19  and  N_20
REMARK    9  A    between atoms: C_21  and  C_23
REMARK                            x       y       z     vdW  Elec       q    Type
REMARK                         _______ _______ _______ _____ _____    ______ ____
ROOT
ATOM      1  C   UNL     1      45.474   6.934  11.686  0.00  0.00    +0.000 C 
ATOM      2  O   UNL     1      44.798   7.959  11.679  0.00  0.00    +0.000 OA
ATOM      3  N   UNL     1      46.844   6.955  11.761  0.00  0.00    +0.000 N 
ATOM      4  H   UNL     1      47.351   6.111  11.521  0.00  0.00    +0.000 HD
ENDROOT
BRANCH   1  11
ATOM      5  N   UNL     1      45.188   3.498   8.525  0.00  0.00    +0.000 N 
ATOM      6  C   UNL     1      44.515   2.412   9.039  0.00  0.00    +0.000 A 
ATOM      7  N   UNL     1      44.003   2.334  10.229  0.00  0.00    +0.000 NA
ATOM      8  C   UNL     1      44.172   3.449  10.984  0.00  0.00    +0.000 A 
ATOM      9  S   UNL     1      43.512   3.563  12.551  0.00  0.00    +0.000 S 
ATOM     10  C   UNL     1      44.114   5.149  12.751  0.00  0.00    +0.000 A 
ATOM     11  C   UNL     1      44.852   5.602  11.665  0.00  0.00    +0.000 A 
ATOM     12  C   UNL     1      44.851   4.597  10.627  0.00  0.00    +0.000 A 
ATOM     13  C   UNL     1      45.426   4.630   9.296  0.00  0.00    +0.000 A 
ATOM     14  O   UNL     1      46.090   5.582   8.892  0.00  0.00    +0.000 OA
BRANCH   5  15
ATOM     15  C   UNL     1      45.725   3.470   7.171  0.00  0.00    +0.000 C 
BRANCH  15  17
ATOM     16  C   UNL     1      47.453   2.272   5.784  0.00  0.00    +0.000 C 
ATOM     17  C   UNL     1      47.143   2.895   7.134  0.00  0.00    +0.000 C 
ENDBRANCH  15  17
ENDBRANCH   5  15
ENDBRANCH   1  11
BRANCH   3  18
ATOM     18  C   UNL     1      47.598   8.180  11.675  0.00  0.00    +0.000 C 
BRANCH  18  19
ATOM     19  C   UNL     1      48.806   8.142  12.583  0.00  0.00    +0.000 A 
ATOM     20  C   UNL     1      48.699   7.694  13.907  0.00  0.00    +0.000 A 
ATOM     21  C   UNL     1      49.824   7.651  14.743  0.00  0.00    +0.000 A 
ATOM     22  C   UNL     1      51.076   8.082  14.283  0.00  0.00    +0.000 A 
ATOM     23  C   UNL     1      51.178   8.547  12.965  0.00  0.00    +0.000 A 
ATOM     24  C   UNL     1      50.055   8.588  12.129  0.00  0.00    +0.000 A 
BRANCH  22  25
ATOM     25  C   UNL     1      52.289   8.030  15.181  0.00  0.00    +0.000 C 
BRANCH  25  26
ATOM     26  N   UNL     1      52.268   6.877  16.045  0.00  0.00    +0.000 N 
ATOM     27  C   UNL     1      53.407   6.155  16.339  0.00  0.00    +0.000 C 
ATOM     28  O   UNL     1      54.504   6.476  15.884  0.00  0.00    +0.000 OA
ATOM     29  H   UNL     1      51.404   6.620  16.506  0.00  0.00    +0.000 HD
BRANCH  27  30
ATOM     30  C   UNL     1      53.215   5.003  17.218  0.00  0.00    +0.000 A 
ATOM     31  C   UNL     1      54.195   4.189  17.758  0.00  0.00    +0.000 A 
ATOM     32  C   UNL     1      53.659   3.140  18.563  0.00  0.00    +0.000 A 
ATOM     33  C   UNL     1      52.284   3.182  18.609  0.00  0.00    +0.000 A 
ATOM     34  S   UNL     1      51.653   4.481  17.698  0.00  0.00    +0.000 S 
ENDBRANCH  27  30
ENDBRANCH  25  26
ENDBRANCH  22  25
ENDBRANCH  18  19
ENDBRANCH   3  18
TORSDOF 8
ENDMDL
MODEL 6
REMARK VINA RESULT:    -6.328      4.654      8.943
REMARK INTER + INTRA:         -10.638
REMARK INTER:                  -9.258
REMARK INTRA:                  -1.380
REMARK UNBOUND:                -1.351
REMARK  Name = 
REMARK  9 active torsions:
REMARK  status: ('A' for Active; 'I' for Inactive)
REMARK    1  A    between atoms: C_1  and  C_2
REMARK    2  A    between atoms: C_2  and  C_3
REMARK    3  A    between atoms: C_3  and  N_4
REMARK    4  A    between atoms: C_10  and  C_11
REMARK    5  A    between atoms: N_13  and  C_14
REMARK    6  A    between atoms: C_14  and  C_15
REMARK    7  A    between atoms: C_18  and  C_19
REMARK    8  A    between atoms: C_19  and  N_20
REMARK    9  A    between atoms: C_21  and  C_23
REMARK                            x       y       z     vdW  Elec       q    Type
REMARK                         _______ _______ _______ _____ _____    ______ ____
ROOT
ATOM      1  C   UNL     1      47.000   4.326  14.458  0.00  0.00    +0.000 C 
ATOM      2  O   UNL     1      47.239   3.214  13.997  0.00  0.00    +0.000 OA
ATOM      3  N   UNL     1      47.031   4.589  15.805  0.00  0.00    +0.000 N 
ATOM      4  H   UNL     1      46.596   5.442  16.138  0.00  0.00    +0.000 HD
ENDROOT
BRANCH   1  11
ATOM      5  N   UNL     1      49.069   8.447  13.675  0.00  0.00    +0.000 N 
ATOM      6  C   UNL     1      48.402   9.155  12.700  0.00  0.00    +0.000 A 
ATOM      7  N   UNL     1      47.332   8.762  12.080  0.00  0.00    +0.000 NA
ATOM      8  C   UNL     1      46.875   7.546  12.471  0.00  0.00    +0.000 A 
ATOM      9  S   UNL     1      45.443   6.890  11.820  0.00  0.00    +0.000 S 
ATOM     10  C   UNL     1      45.574   5.491  12.791  0.00  0.00    +0.000 A 
ATOM     11  C   UNL     1      46.713   5.475  13.586  0.00  0.00    +0.000 A 
ATOM     12  C   UNL     1      47.448   6.704  13.403  0.00  0.00    +0.000 A 
ATOM     13  C   UNL     1      48.656   7.175  14.053  0.00  0.00    +0.000 A 
ATOM     14  O   UNL     1      49.275   6.488  14.863  0.00  0.00    +0.000 OA
BRANCH   5  15
ATOM     15  C   UNL     1      50.269   8.988  14.301  0.00  0.00    +0.000 C 
BRANCH  15  17
ATOM     16  C   UNL     1      52.616   8.085  14.439  0.00  0.00    +0.000 C 
ATOM     17  C   UNL     1      51.532   8.621  13.519  0.00  0.00    +0.000 C 
ENDBRANCH  15  17
ENDBRANCH   5  15
ENDBRANCH   1  11
BRANCH   3  18
ATOM     18  C   UNL     1      47.187   3.545  16.786  0.00  0.00    +0.000 C 
BRANCH  18  19
ATOM     19  C   UNL     1      48.641   3.347  17.145  0.00  0.00    +0.000 A 
ATOM     20  C   UNL     1      49.382   4.374  17.745  0.00  0.00    +0.000 A 
ATOM     21  C   UNL     1      50.729   4.184  18.085  0.00  0.00    +0.000 A 
ATOM     22  C   UNL     1      51.374   2.971  17.807  0.00  0.00    +0.000 A 
ATOM     23  C   UNL     1      50.638   1.951  17.190  0.00  0.00    +0.000 A 
ATOM     24  C   UNL     1      49.291   2.140  16.853  0.00  0.00    +0.000 A 
BRANCH  22  25
ATOM     25  C   UNL     1      52.823   2.762  18.178  0.00  0.00    +0.000 C 
BRANCH  25  26
ATOM     26  N   UNL     1      53.181   1.365  18.174  0.00  0.00    +0.000 N 
ATOM     27  C   UNL     1      54.290   0.891  17.505  0.00  0.00    +0.000 C 
ATOM     28  O   UNL     1      55.039   1.648  16.890  0.00  0.00    +0.000 OA
ATOM     29  H   UNL     1      52.641   0.714  18.730  0.00  0.00    +0.000 HD
BRANCH  27  30
ATOM     30  C   UNL     1      54.507  -0.552  17.584  0.00  0.00    +0.000 A 
ATOM     31  C   UNL     1      54.307  -1.371  18.682  0.00  0.00    +0.000 A 
ATOM     32  C   UNL     1      54.635  -2.735  18.419  0.00  0.00    +0.000 A 
ATOM     33  C   UNL     1      55.082  -2.915  17.130  0.00  0.00    +0.000 A 
ATOM     34  S   UNL     1      55.092  -1.454  16.247  0.00  0.00    +0.000 S 
ENDBRANCH  27  30
ENDBRANCH  25  26
ENDBRANCH  22  25
ENDBRANCH  18  19
ENDBRANCH   3  18
TORSDOF 8
ENDMDL
MODEL 7
REMARK VINA RESULT:    -5.920      2.224      3.644
REMARK INTER + INTRA:         -10.039
REMARK INTER:                  -9.555
REMARK INTRA:                  -0.484
REMARK UNBOUND:                -1.351
REMARK  Name = 
REMARK  9 active torsions:
REMARK  status: ('A' for Active; 'I' for Inactive)
REMARK    1  A    between atoms: C_1  and  C_2
REMARK    2  A    between atoms: C_2  and  C_3
REMARK    3  A    between atoms: C_3  and  N_4
REMARK    4  A    between atoms: C_10  and  C_11
REMARK    5  A    between atoms: N_13  and  C_14
REMARK    6  A    between atoms: C_14  and  C_15
REMARK    7  A    between atoms: C_18  and  C_19
REMARK    8  A    between atoms: C_19  and  N_20
REMARK    9  A    between atoms: C_21  and  C_23
REMARK                            x       y       z     vdW  Elec       q    Type
REMARK                         _______ _______ _______ _____ _____    ______ ____
ROOT
ATOM      1  C   UNL     1      48.954   5.935  15.960  0.00  0.00    +0.000 C 
ATOM      2  O   UNL     1      49.451   4.969  16.531  0.00  0.00    +0.000 OA
ATOM      3  N   UNL     1      47.717   5.885  15.367  0.00  0.00    +0.000 N 
ATOM      4  H   UNL     1      47.467   6.619  14.714  0.00  0.00    +0.000 HD
ENDROOT
BRANCH   1  11
ATOM      5  N   UNL     1      49.450   9.476  18.976  0.00  0.00    +0.000 N 
ATOM      6  C   UNL     1      50.243  10.467  18.444  0.00  0.00    +0.000 A 
ATOM      7  N   UNL     1      50.777  10.454  17.261  0.00  0.00    +0.000 NA
ATOM      8  C   UNL     1      50.491   9.347  16.532  0.00  0.00    +0.000 A 
ATOM      9  S   UNL     1      51.047   9.178  14.929  0.00  0.00    +0.000 S 
ATOM     10  C   UNL     1      50.283   7.659  14.764  0.00  0.00    +0.000 A 
ATOM     11  C   UNL     1      49.634   7.238  15.918  0.00  0.00    +0.000 A 
ATOM     12  C   UNL     1      49.747   8.257  16.935  0.00  0.00    +0.000 A 
ATOM     13  C   UNL     1      49.189   8.305  18.272  0.00  0.00    +0.000 A 
ATOM     14  O   UNL     1      48.550   7.370  18.751  0.00  0.00    +0.000 OA
BRANCH   5  15
ATOM     15  C   UNL     1      48.906   9.597  20.323  0.00  0.00    +0.000 C 
BRANCH  15  17
ATOM     16  C   UNL     1      47.126  10.796  19.004  0.00  0.00    +0.000 C 
ATOM     17  C   UNL     1      47.742  10.588  20.378  0.00  0.00    +0.000 C 
ENDBRANCH  15  17
ENDBRANCH   5  15
ENDBRANCH   1  11
BRANCH   3  18
ATOM     18  C   UNL     1      46.981   4.653  15.230  0.00  0.00    +0.000 C 
BRANCH  18  19
ATOM     19  C   UNL     1      46.257   4.595  13.905  0.00  0.00    +0.000 A 
ATOM     20  C   UNL     1      46.035   3.371  13.259  0.00  0.00    +0.000 A 
ATOM     21  C   UNL     1      45.355   3.319  12.034  0.00  0.00    +0.000 A 
ATOM     22  C   UNL     1      44.906   4.493  11.413  0.00  0.00    +0.000 A 
ATOM     23  C   UNL     1      45.145   5.718  12.051  0.00  0.00    +0.000 A 
ATOM     24  C   UNL     1      45.823   5.769  13.276  0.00  0.00    +0.000 A 
BRANCH  22  25
ATOM     25  C   UNL     1      44.167   4.439  10.097  0.00  0.00    +0.000 C 
BRANCH  25  26
ATOM     26  N   UNL     1      45.041   4.085   9.007  0.00  0.00    +0.000 N 
ATOM     27  C   UNL     1      45.152   2.791   8.542  0.00  0.00    +0.000 C 
ATOM     28  O   UNL     1      44.492   1.875   9.032  0.00  0.00    +0.000 OA
ATOM     29  H   UNL     1      45.545   4.815   8.519  0.00  0.00    +0.000 HD
BRANCH  27  30
ATOM     30  C   UNL     1      46.092   2.593   7.441  0.00  0.00    +0.000 A 
ATOM     31  C   UNL     1      46.271   3.405   6.335  0.00  0.00    +0.000 A 
ATOM     32  C   UNL     1      47.265   2.907   5.440  0.00  0.00    +0.000 A 
ATOM     33  C   UNL     1      47.811   1.725   5.887  0.00  0.00    +0.000 A 
ATOM     34  S   UNL     1      47.137   1.234   7.377  0.00  0.00    +0.000 S 
ENDBRANCH  27  30
ENDBRANCH  25  26
ENDBRANCH  22  25
ENDBRANCH  18  19
ENDBRANCH   3  18
TORSDOF 8
ENDMDL
MODEL 8
REMARK VINA RESULT:    -5.752      3.848      9.296
REMARK INTER + INTRA:          -9.794
REMARK INTER:                  -8.242
REMARK INTRA:                  -1.551
REMARK UNBOUND:                -1.351
REMARK  Name = 
REMARK  9 active torsions:
REMARK  status: ('A' for Active; 'I' for Inactive)
REMARK    1  A    between atoms: C_1  and  C_2
REMARK    2  A    between atoms: C_2  and  C_3
REMARK    3  A    between atoms: C_3  and  N_4
REMARK    4  A    between atoms: C_10  and  C_11
REMARK    5  A    between atoms: N_13  and  C_14
REMARK    6  A    between atoms: C_14  and  C_15
REMARK    7  A    between atoms: C_18  and  C_19
REMARK    8  A    between atoms: C_19  and  N_20
REMARK    9  A    between atoms: C_21  and  C_23
REMARK                            x       y       z     vdW  Elec       q    Type
REMARK                         _______ _______ _______ _____ _____    ______ ____
ROOT
ATOM      1  C   UNL     1      46.842   4.104  14.512  0.00  0.00    +0.000 C 
ATOM      2  O   UNL     1      47.198   3.035  14.026  0.00  0.00    +0.000 OA
ATOM      3  N   UNL     1      46.898   4.356  15.861  0.00  0.00    +0.000 N 
ATOM      4  H   UNL     1      46.375   5.144  16.224  0.00  0.00    +0.000 HD
ENDROOT
BRANCH   1  11
ATOM      5  N   UNL     1      48.580   8.285  13.339  0.00  0.00    +0.000 N 
ATOM      6  C   UNL     1      47.743   8.937  12.462  0.00  0.00    +0.000 A 
ATOM      7  N   UNL     1      46.610   8.483  12.020  0.00  0.00    +0.000 NA
ATOM      8  C   UNL     1      46.273   7.260  12.501  0.00  0.00    +0.000 A 
ATOM      9  S   UNL     1      44.790   6.527  12.088  0.00  0.00    +0.000 S 
ATOM     10  C   UNL     1      45.130   5.162  13.057  0.00  0.00    +0.000 A 
ATOM     11  C   UNL     1      46.374   5.215  13.671  0.00  0.00    +0.000 A 
ATOM     12  C   UNL     1      47.018   6.469  13.352  0.00  0.00    +0.000 A 
ATOM     13  C   UNL     1      48.286   7.007  13.803  0.00  0.00    +0.000 A 
ATOM     14  O   UNL     1      49.051   6.369  14.523  0.00  0.00    +0.000 OA
BRANCH   5  15
ATOM     15  C   UNL     1      49.835   8.892  13.765  0.00  0.00    +0.000 C 
BRANCH  15  17
ATOM     16  C   UNL     1      50.802   9.116  16.080  0.00  0.00    +0.000 C 
ATOM     17  C   UNL     1      49.704   9.568  15.131  0.00  0.00    +0.000 C 
ENDBRANCH  15  17
ENDBRANCH   5  15
ENDBRANCH   1  11
BRANCH   3  18
ATOM     18  C   UNL     1      47.226   3.331  16.819  0.00  0.00    +0.000 C 
BRANCH  18  19
ATOM     19  C   UNL     1      48.703   3.337  17.140  0.00  0.00    +0.000 A 
ATOM     20  C   UNL     1      49.474   2.174  17.010  0.00  0.00    +0.000 A 
ATOM     21  C   UNL     1      50.846   2.185  17.299  0.00  0.00    +0.000 A 
ATOM     22  C   UNL     1      51.473   3.354  17.752  0.00  0.00    +0.000 A 
ATOM     23  C   UNL     1      50.698   4.512  17.900  0.00  0.00    +0.000 A 
ATOM     24  C   UNL     1      49.328   4.501  17.608  0.00  0.00    +0.000 A 
BRANCH  22  25
ATOM     25  C   UNL     1      52.952   3.370  18.058  0.00  0.00    +0.000 C 
BRANCH  25  26
ATOM     26  N   UNL     1      53.575   4.596  17.627  0.00  0.00    +0.000 N 
ATOM     27  C   UNL     1      54.279   5.408  18.491  0.00  0.00    +0.000 C 
ATOM     28  O   UNL     1      54.422   5.112  19.676  0.00  0.00    +0.000 OA
ATOM     29  H   UNL     1      53.553   4.845  16.646  0.00  0.00    +0.000 HD
BRANCH  27  30
ATOM     30  C   UNL     1      54.837   6.625  17.903  0.00  0.00    +0.000 A 
ATOM     31  C   UNL     1      55.178   6.835  16.578  0.00  0.00    +0.000 A 
ATOM     32  C   UNL     1      55.715   8.137  16.347  0.00  0.00    +0.000 A 
ATOM     33  C   UNL     1      55.774   8.879  17.505  0.00  0.00    +0.000 A 
ATOM     34  S   UNL     1      55.176   8.015  18.850  0.00  0.00    +0.000 S 
ENDBRANCH  27  30
ENDBRANCH  25  26
ENDBRANCH  22  25
ENDBRANCH  18  19
ENDBRANCH   3  18
TORSDOF 8
ENDMDL
MODEL 9
REMARK VINA RESULT:    -5.696      3.612      9.834
REMARK INTER + INTRA:          -9.711
REMARK INTER:                  -8.624
REMARK INTRA:                  -1.087
REMARK UNBOUND:                -1.351
REMARK  Name = 
REMARK  9 active torsions:
REMARK  status: ('A' for Active; 'I' for Inactive)
REMARK    1  A    between atoms: C_1  and  C_2
REMARK    2  A    between atoms: C_2  and  C_3
REMARK    3  A    between atoms: C_3  and  N_4
REMARK    4  A    between atoms: C_10  and  C_11
REMARK    5  A    between atoms: N_13  and  C_14
REMARK    6  A    between atoms: C_14  and  C_15
REMARK    7  A    between atoms: C_18  and  C_19
REMARK    8  A    between atoms: C_19  and  N_20
REMARK    9  A    between atoms: C_21  and  C_23
REMARK                            x       y       z     vdW  Elec       q    Type
REMARK                         _______ _______ _______ _____ _____    ______ ____
ROOT
ATOM      1  C   UNL     1      47.204   4.121  15.367  0.00  0.00    +0.000 C 
ATOM      2  O   UNL     1      46.489   4.225  16.359  0.00  0.00    +0.000 OA
ATOM      3  N   UNL     1      48.102   3.094  15.211  0.00  0.00    +0.000 N 
ATOM      4  H   UNL     1      48.823   3.190  14.504  0.00  0.00    +0.000 HD
ENDROOT
BRANCH   1  11
ATOM      5  N   UNL     1      45.091   4.062  11.195  0.00  0.00    +0.000 N 
ATOM      6  C   UNL     1      45.284   5.252  10.530  0.00  0.00    +0.000 A 
ATOM      7  N   UNL     1      45.969   6.262  10.971  0.00  0.00    +0.000 NA
ATOM      8  C   UNL     1      46.524   6.069  12.193  0.00  0.00    +0.000 A 
ATOM      9  S   UNL     1      47.516   7.255  12.910  0.00  0.00    +0.000 S 
ATOM     10  C   UNL     1      47.789   6.278  14.285  0.00  0.00    +0.000 A 
ATOM     11  C   UNL     1      47.109   5.068  14.246  0.00  0.00    +0.000 A 
ATOM     12  C   UNL     1      46.394   4.954  12.996  0.00  0.00    +0.000 A 
ATOM     13  C   UNL     1      45.600   3.859  12.473  0.00  0.00    +0.000 A 
ATOM     14  O   UNL     1      45.379   2.840  13.122  0.00  0.00    +0.000 OA
BRANCH   5  15
ATOM     15  C   UNL     1      44.295   2.996  10.601  0.00  0.00    +0.000 C 
BRANCH  15  17
ATOM     16  C   UNL     1      45.665   1.951   8.764  0.00  0.00    +0.000 C 
ATOM     17  C   UNL     1      44.519   2.893   9.091  0.00  0.00    +0.000 C 
ENDBRANCH  15  17
ENDBRANCH   5  15
ENDBRANCH   1  11
BRANCH   3  18
ATOM     18  C   UNL     1      48.387   2.157  16.267  0.00  0.00    +0.000 C 
BRANCH  18  19
ATOM     19  C   UNL     1      49.643   2.541  17.014  0.00  0.00    +0.000 A 
ATOM     20  C   UNL     1      50.767   1.703  17.014  0.00  0.00    +0.000 A 
ATOM     21  C   UNL     1      51.934   2.067  17.700  0.00  0.00    +0.000 A 
ATOM     22  C   UNL     1      51.995   3.265  18.425  0.00  0.00    +0.000 A 
ATOM     23  C   UNL     1      50.865   4.093  18.439  0.00  0.00    +0.000 A 
ATOM     24  C   UNL     1      49.700   3.731  17.752  0.00  0.00    +0.000 A 
BRANCH  22  25
ATOM     25  C   UNL     1      53.254   3.662  19.159  0.00  0.00    +0.000 C 
BRANCH  25  26
ATOM     26  N   UNL     1      53.567   5.056  18.970  0.00  0.00    +0.000 N 
ATOM     27  C   UNL     1      54.338   5.501  17.916  0.00  0.00    +0.000 C 
ATOM     28  O   UNL     1      54.783   4.723  17.073  0.00  0.00    +0.000 OA
ATOM     29  H   UNL     1      53.160   5.744  19.591  0.00  0.00    +0.000 HD
BRANCH  27  30
ATOM     30  C   UNL     1      54.579   6.942  17.873  0.00  0.00    +0.000 A 
ATOM     31  C   UNL     1      55.772   7.600  18.115  0.00  0.00    +0.000 A 
ATOM     32  C   UNL     1      55.652   9.018  18.005  0.00  0.00    +0.000 A 
ATOM     33  C   UNL     1      54.368   9.400  17.690  0.00  0.00    +0.000 A 
ATOM     34  S   UNL     1      53.326   8.058  17.516  0.00  0.00    +0.000 S 
ENDBRANCH  27  30
ENDBRANCH  25  26
ENDBRANCH  22  25
ENDBRANCH  18  19
ENDBRANCH   3  18
TORSDOF 8
ENDMDL
