MODEL 1
REMARK VINA RESULT:    -7.622      0.000      0.000
REMARK INTER + INTRA:         -11.777
REMARK INTER:                 -10.741
REMARK INTRA:                  -1.035
REMARK UNBOUND:                -1.035
REMARK  Name = 
REMARK  8 active torsions:
REMARK  status: ('A' for Active; 'I' for Inactive)
REMARK    1  A    between atoms: C_1  and  C_2
REMARK    2  A    between atoms: C_2  and  N_3
REMARK    3  A    between atoms: C_2  and  C_16
REMARK    4  A    between atoms: C_4  and  C_6
REMARK    5  A    between atoms: C_19  and  C_20
REMARK    6  A    between atoms: C_20  and  N_21
REMARK    7  A    between atoms: N_21  and  C_22
REMARK    8  A    between atoms: C_22  and  C_24
REMARK                            x       y       z     vdW  Elec       q    Type
REMARK                         _______ _______ _______ _____ _____    ______ ____
ROOT
ATOM      1  C   UNL     1      49.368   7.945  13.204  0.00  0.00    +0.000 C 
ATOM      2  C   UNL     1      48.651   6.755  13.855  0.00  0.00    +0.000 C 
ENDROOT
BRANCH   2   3
ATOM      3  C   UNL     1      47.305   6.517  13.179  0.00  0.00    +0.000 A 
ATOM      4  C   UNL     1      46.369   5.627  13.722  0.00  0.00    +0.000 A 
ATOM      5  C   UNL     1      45.123   5.437  13.108  0.00  0.00    +0.000 A 
ATOM      6  C   UNL     1      44.789   6.129  11.936  0.00  0.00    +0.000 A 
ATOM      7  C   UNL     1      45.718   7.024  11.396  0.00  0.00    +0.000 A 
ATOM      8  C   UNL     1      46.961   7.212  12.007  0.00  0.00    +0.000 A 
BRANCH   6   9
ATOM      9  C   UNL     1      43.457   5.923  11.263  0.00  0.00    +0.000 C 
BRANCH   9  10
ATOM     10  N   UNL     1      43.544   5.020  10.129  0.00  0.00    +0.000 N 
ATOM     11  H   UNL     1      43.267   5.374   9.218  0.00  0.00    +0.000 HD
BRANCH  10  12
ATOM     12  C   UNL     1      43.976   3.708  10.178  0.00  0.00    +0.000 C 
ATOM     13  S   UNL     1      43.524   2.593  11.347  0.00  0.00    +0.000 S 
BRANCH  12  14
ATOM     14  C   UNL     1      44.892   3.304   9.124  0.00  0.00    +0.000 A 
ATOM     15  C   UNL     1      45.486   2.097   8.780  0.00  0.00    +0.000 A 
ATOM     16  C   UNL     1      46.299   2.332   7.647  0.00  0.00    +0.000 A 
ATOM     17  C   UNL     1      46.163   3.666   7.354  0.00  0.00    +0.000 A 
ATOM     18  O   UNL     1      45.315   4.264   8.233  0.00  0.00    +0.000 OA
ENDBRANCH  12  14
ENDBRANCH  10  12
ENDBRANCH   9  10
ENDBRANCH   6   9
ENDBRANCH   2   3
BRANCH   2  19
ATOM     19  N   UNL     1      48.434   6.935  15.285  0.00  0.00    +0.000 N 
ATOM     20  C   UNL     1      49.348   6.577  16.243  0.00  0.00    +0.000 C 
ATOM     21  O   UNL     1      50.456   6.127  15.968  0.00  0.00    +0.000 OA
ATOM     22  H   UNL     1      47.462   7.013  15.571  0.00  0.00    +0.000 HD
BRANCH  20  23
ATOM     23  C   UNL     1      48.959   6.818  17.639  0.00  0.00    +0.000 A 
ATOM     24  C   UNL     1      48.754   8.119  18.078  0.00  0.00    +0.000 A 
ATOM     25  S   UNL     1      48.312   8.225  19.721  0.00  0.00    +0.000 S 
ATOM     26  C   UNL     1      48.419   6.539  19.915  0.00  0.00    +0.000 A 
ATOM     27  N   UNL     1      48.201   5.958  21.125  0.00  0.00    +0.000 NA
ATOM     28  C   UNL     1      48.347   4.675  21.135  0.00  0.00    +0.000 A 
ATOM     29  N   UNL     1      48.675   3.919  20.040  0.00  0.00    +0.000 N 
ATOM     30  C   UNL     1      48.862   4.457  18.788  0.00  0.00    +0.000 A 
ATOM     31  O   UNL     1      49.084   3.747  17.814  0.00  0.00    +0.000 OA
ATOM     32  C   UNL     1      48.748   5.900  18.732  0.00  0.00    +0.000 A 
ATOM     33  H   UNL     1      48.752   2.914  20.110  0.00  0.00    +0.000 HD
ENDBRANCH  20  23
ENDBRANCH   2  19
TORSDOF 7
ENDMDL
MODEL 2
REMARK VINA RESULT:    -7.563      2.008      8.678
REMARK INTER + INTRA:         -11.694
REMARK INTER:                 -10.076
REMARK INTRA:                  -1.618
REMARK UNBOUND:                -1.035
REMARK  Name = 
REMARK  8 active torsions:
REMARK  status: ('A' for Active; 'I' for Inactive)
REMARK    1  A    between atoms: C_1  and  C_2
REMARK    2  A    between atoms: C_2  and  N_3
REMARK    3  A    between atoms: C_2  and  C_16
REMARK    4  A    between atoms: C_4  and  C_6
REMARK    5  A    between atoms: C_19  and  C_20
REMARK    6  A    between atoms: C_20  and  N_21
REMARK    7  A    between atoms: N_21  and  C_22
REMARK    8  A    between atoms: C_22  and  C_24
REMARK                            x       y       z     vdW  Elec       q    Type
REMARK                         _______ _______ _______ _____ _____    ______ ____
ROOT
ATOM      1  C   UNL     1      49.148   7.700  11.333  0.00  0.00    +0.000 C 
ATOM      2  C   UNL     1      47.831   7.689  12.121  0.00  0.00    +0.000 C 
ENDROOT
BRANCH   2   3
ATOM      3  C   UNL     1      48.113   7.767  13.618  0.00  0.00    +0.000 A 
ATOM      4  C   UNL     1      47.830   8.929  14.348  0.00  0.00    +0.000 A 
ATOM      5  C   UNL     1      48.065   8.982  15.728  0.00  0.00    +0.000 A 
ATOM      6  C   UNL     1      48.595   7.876  16.407  0.00  0.00    +0.000 A 
ATOM      7  C   UNL     1      48.871   6.712  15.683  0.00  0.00    +0.000 A 
ATOM      8  C   UNL     1      48.637   6.660  14.306  0.00  0.00    +0.000 A 
BRANCH   6   9
ATOM      9  C   UNL     1      48.862   7.926  17.889  0.00  0.00    +0.000 C 
BRANCH   9  10
ATOM     10  N   UNL     1      47.725   7.474  18.671  0.00  0.00    +0.000 N 
ATOM     11  H   UNL     1      46.892   8.055  18.676  0.00  0.00    +0.000 HD
BRANCH  10  12
ATOM     12  C   UNL     1      47.673   6.311  19.416  0.00  0.00    +0.000 C 
ATOM     13  S   UNL     1      47.407   6.244  21.072  0.00  0.00    +0.000 S 
BRANCH  12  14
ATOM     14  C   UNL     1      47.870   5.076  18.676  0.00  0.00    +0.000 A 
ATOM     15  C   UNL     1      48.946   4.211  18.523  0.00  0.00    +0.000 A 
ATOM     16  C   UNL     1      48.534   3.169  17.660  0.00  0.00    +0.000 A 
ATOM     17  C   UNL     1      47.231   3.448  17.327  0.00  0.00    +0.000 A 
ATOM     18  O   UNL     1      46.817   4.591  17.935  0.00  0.00    +0.000 OA
ENDBRANCH  12  14
ENDBRANCH  10  12
ENDBRANCH   9  10
ENDBRANCH   6   9
ENDBRANCH   2   3
BRANCH   2  19
ATOM     19  N   UNL     1      47.021   6.507  11.856  0.00  0.00    +0.000 N 
ATOM     20  C   UNL     1      45.650   6.518  11.825  0.00  0.00    +0.000 C 
ATOM     21  O   UNL     1      44.990   7.544  11.961  0.00  0.00    +0.000 OA
ATOM     22  H   UNL     1      47.478   5.617  12.034  0.00  0.00    +0.000 HD
BRANCH  20  23
ATOM     23  C   UNL     1      44.993   5.232  11.557  0.00  0.00    +0.000 A 
ATOM     24  C   UNL     1      44.258   4.616  12.561  0.00  0.00    +0.000 A 
ATOM     25  S   UNL     1      43.566   3.131  12.089  0.00  0.00    +0.000 S 
ATOM     26  C   UNL     1      44.258   3.239  10.539  0.00  0.00    +0.000 A 
ATOM     27  N   UNL     1      44.089   2.244   9.627  0.00  0.00    +0.000 NA
ATOM     28  C   UNL     1      44.696   2.442   8.504  0.00  0.00    +0.000 A 
ATOM     29  N   UNL     1      45.441   3.552   8.205  0.00  0.00    +0.000 N 
ATOM     30  C   UNL     1      45.603   4.602   9.079  0.00  0.00    +0.000 A 
ATOM     31  O   UNL     1      46.216   5.614   8.757  0.00  0.00    +0.000 OA
ATOM     32  C   UNL     1      44.973   4.410  10.370  0.00  0.00    +0.000 A 
ATOM     33  H   UNL     1      45.872   3.657   7.298  0.00  0.00    +0.000 HD
ENDBRANCH  20  23
ENDBRANCH   2  19
TORSDOF 7
ENDMDL
MODEL 3
REMARK VINA RESULT:    -7.464      1.846      2.383
REMARK INTER + INTRA:         -11.554
REMARK INTER:                 -10.229
REMARK INTRA:                  -1.325
REMARK UNBOUND:                -1.035
REMARK  Name = 
REMARK  8 active torsions:
REMARK  status: ('A' for Active; 'I' for Inactive)
REMARK    1  A    between atoms: C_1  and  C_2
REMARK    2  A    between atoms: C_2  and  N_3
REMARK    3  A    between atoms: C_2  and  C_16
REMARK    4  A    between atoms: C_4  and  C_6
REMARK    5  A    between atoms: C_19  and  C_20
REMARK    6  A    between atoms: C_20  and  N_21
REMARK    7  A    between atoms: N_21  and  C_22
REMARK    8  A    between atoms: C_22  and  C_24
REMARK                            x       y       z     vdW  Elec       q    Type
REMARK                         _______ _______ _______ _____ _____    ______ ____
ROOT
ATOM      1  C   UNL     1      47.167   9.408  13.307  0.00  0.00    +0.000 C 
ATOM      2  C   UNL     1      47.628   7.950  13.174  0.00  0.00    +0.000 C 
ENDROOT
BRANCH   2   3
ATOM      3  C   UNL     1      46.614   7.150  12.365  0.00  0.00    +0.000 A 
ATOM      4  C   UNL     1      46.930   6.655  11.092  0.00  0.00    +0.000 A 
ATOM      5  C   UNL     1      46.001   5.896  10.369  0.00  0.00    +0.000 A 
ATOM      6  C   UNL     1      44.733   5.619  10.899  0.00  0.00    +0.000 A 
ATOM      7  C   UNL     1      44.417   6.104  12.173  0.00  0.00    +0.000 A 
ATOM      8  C   UNL     1      45.344   6.862  12.894  0.00  0.00    +0.000 A 
BRANCH   6   9
ATOM      9  C   UNL     1      43.724   4.812  10.125  0.00  0.00    +0.000 C 
BRANCH   9  10
ATOM     10  N   UNL     1      44.282   4.251   8.907  0.00  0.00    +0.000 N 
ATOM     11  H   UNL     1      44.327   4.848   8.087  0.00  0.00    +0.000 HD
BRANCH  10  12
ATOM     12  C   UNL     1      44.765   2.964   8.763  0.00  0.00    +0.000 C 
ATOM     13  S   UNL     1      44.149   1.616   9.550  0.00  0.00    +0.000 S 
BRANCH  12  14
ATOM     14  C   UNL     1      45.891   2.808   7.858  0.00  0.00    +0.000 A 
ATOM     15  C   UNL     1      46.478   3.632   6.906  0.00  0.00    +0.000 A 
ATOM     16  C   UNL     1      47.553   2.916   6.330  0.00  0.00    +0.000 A 
ATOM     17  C   UNL     1      47.571   1.694   6.955  0.00  0.00    +0.000 A 
ATOM     18  O   UNL     1      46.579   1.616   7.881  0.00  0.00    +0.000 OA
ENDBRANCH  12  14
ENDBRANCH  10  12
ENDBRANCH   9  10
ENDBRANCH   6   9
ENDBRANCH   2   3
BRANCH   2  19
ATOM     19  N   UNL     1      47.825   7.297  14.462  0.00  0.00    +0.000 N 
ATOM     20  C   UNL     1      49.055   6.933  14.948  0.00  0.00    +0.000 C 
ATOM     21  O   UNL     1      50.102   7.183  14.360  0.00  0.00    +0.000 OA
ATOM     22  H   UNL     1      47.012   6.812  14.832  0.00  0.00    +0.000 HD
BRANCH  20  23
ATOM     23  C   UNL     1      49.067   6.270  16.259  0.00  0.00    +0.000 A 
ATOM     24  C   UNL     1      49.852   6.789  17.281  0.00  0.00    +0.000 A 
ATOM     25  S   UNL     1      49.757   5.902  18.733  0.00  0.00    +0.000 S 
ATOM     26  C   UNL     1      48.696   4.770  18.037  0.00  0.00    +0.000 A 
ATOM     27  N   UNL     1      48.252   3.698  18.746  0.00  0.00    +0.000 NA
ATOM     28  C   UNL     1      47.479   2.903  18.083  0.00  0.00    +0.000 A 
ATOM     29  N   UNL     1      47.096   3.093  16.781  0.00  0.00    +0.000 N 
ATOM     30  C   UNL     1      47.485   4.184  16.039  0.00  0.00    +0.000 A 
ATOM     31  O   UNL     1      47.068   4.364  14.900  0.00  0.00    +0.000 OA
ATOM     32  C   UNL     1      48.387   5.087  16.726  0.00  0.00    +0.000 A 
ATOM     33  H   UNL     1      46.469   2.444  16.327  0.00  0.00    +0.000 HD
ENDBRANCH  20  23
ENDBRANCH   2  19
TORSDOF 7
ENDMDL
MODEL 4
REMARK VINA RESULT:    -7.423      1.637      2.534
REMARK INTER + INTRA:         -11.496
REMARK INTER:                 -10.277
REMARK INTRA:                  -1.219
REMARK UNBOUND:                -1.035
REMARK  Name = 
REMARK  8 active torsions:
REMARK  status: ('A' for Active; 'I' for Inactive)
REMARK    1  A    between atoms: C_1  and  C_2
REMARK    2  A    between atoms: C_2  and  N_3
REMARK    3  A    between atoms: C_2  and  C_16
REMARK    4  A    between atoms: C_4  and  C_6
REMARK    5  A    between atoms: C_19  and  C_20
REMARK    6  A    between atoms: C_20  and  N_21
REMARK    7  A    between atoms: N_21  and  C_22
REMARK    8  A    between atoms: C_22  and  C_24
REMARK                            x       y       z     vdW  Elec       q    Type
REMARK                         _______ _______ _______ _____ _____    ______ ____
ROOT
ATOM      1  C   UNL     1      49.416   7.732  13.257  0.00  0.00    +0.000 C 
ATOM      2  C   UNL     1      48.596   6.635  13.949  0.00  0.00    +0.000 C 
ENDROOT
BRANCH   2   3
ATOM      3  C   UNL     1      47.292   6.397  13.195  0.00  0.00    +0.000 A 
ATOM      4  C   UNL     1      46.327   5.505  13.681  0.00  0.00    +0.000 A 
ATOM      5  C   UNL     1      45.120   5.315  12.995  0.00  0.00    +0.000 A 
ATOM      6  C   UNL     1      44.853   6.009  11.807  0.00  0.00    +0.000 A 
ATOM      7  C   UNL     1      45.811   6.907  11.324  0.00  0.00    +0.000 A 
ATOM      8  C   UNL     1      47.015   7.095  12.007  0.00  0.00    +0.000 A 
BRANCH   6   9
ATOM      9  C   UNL     1      43.562   5.804  11.058  0.00  0.00    +0.000 C 
BRANCH   9  10
ATOM     10  N   UNL     1      43.713   4.892   9.937  0.00  0.00    +0.000 N 
ATOM     11  H   UNL     1      43.518   5.248   9.006  0.00  0.00    +0.000 HD
BRANCH  10  12
ATOM     12  C   UNL     1      44.105   3.570  10.024  0.00  0.00    +0.000 C 
ATOM     13  S   UNL     1      43.587   2.492  11.202  0.00  0.00    +0.000 S 
BRANCH  12  14
ATOM     14  C   UNL     1      45.037   3.118   9.005  0.00  0.00    +0.000 A 
ATOM     15  C   UNL     1      45.610   3.722   7.893  0.00  0.00    +0.000 A 
ATOM     16  C   UNL     1      46.443   2.763   7.271  0.00  0.00    +0.000 A 
ATOM     17  C   UNL     1      46.339   1.623   8.029  0.00  0.00    +0.000 A 
ATOM     18  O   UNL     1      45.499   1.823   9.079  0.00  0.00    +0.000 OA
ENDBRANCH  12  14
ENDBRANCH  10  12
ENDBRANCH   9  10
ENDBRANCH   6   9
ENDBRANCH   2   3
BRANCH   2  19
ATOM     19  N   UNL     1      48.287   6.948  15.339  0.00  0.00    +0.000 N 
ATOM     20  C   UNL     1      49.035   6.509  16.400  0.00  0.00    +0.000 C 
ATOM     21  O   UNL     1      50.068   5.861  16.262  0.00  0.00    +0.000 OA
ATOM     22  H   UNL     1      47.321   7.207  15.521  0.00  0.00    +0.000 HD
BRANCH  20  23
ATOM     23  C   UNL     1      48.570   6.908  17.736  0.00  0.00    +0.000 A 
ATOM     24  C   UNL     1      48.458   5.952  18.736  0.00  0.00    +0.000 A 
ATOM     25  S   UNL     1      47.902   6.576  20.221  0.00  0.00    +0.000 S 
ATOM     26  C   UNL     1      47.750   8.140  19.569  0.00  0.00    +0.000 A 
ATOM     27  N   UNL     1      47.269   9.168  20.319  0.00  0.00    +0.000 NA
ATOM     28  C   UNL     1      47.177  10.291  19.687  0.00  0.00    +0.000 A 
ATOM     29  N   UNL     1      47.539  10.483  18.380  0.00  0.00    +0.000 N 
ATOM     30  C   UNL     1      48.070   9.484  17.597  0.00  0.00    +0.000 A 
ATOM     31  O   UNL     1      48.452   9.704  16.452  0.00  0.00    +0.000 OA
ATOM     32  C   UNL     1      48.157   8.193  18.247  0.00  0.00    +0.000 A 
ATOM     33  H   UNL     1      47.464  11.394  17.951  0.00  0.00    +0.000 HD
ENDBRANCH  20  23
ENDBRANCH   2  19
TORSDOF 7
ENDMDL
MODEL 5
REMARK VINA RESULT:    -7.304      1.726      2.150
REMARK INTER + INTRA:         -11.328
REMARK INTER:                 -10.402
REMARK INTRA:                  -0.926
REMARK UNBOUND:                -1.035
REMARK  Name = 
REMARK  8 active torsions:
REMARK  status: ('A' for Active; 'I' for Inactive)
REMARK    1  A    between atoms: C_1  and  C_2
REMARK    2  A    between atoms: C_2  and  N_3
REMARK    3  A    between atoms: C_2  and  C_16
REMARK    4  A    between atoms: C_4  and  C_6
REMARK    5  A    between atoms: C_19  and  C_20
REMARK    6  A    between atoms: C_20  and  N_21
REMARK    7  A    between atoms: N_21  and  C_22
REMARK    8  A    between atoms: C_22  and  C_24
REMARK                            x       y       z     vdW  Elec       q    Type
REMARK                         _______ _______ _______ _____ _____    ______ ____
ROOT
ATOM      1  C   UNL     1      46.502   8.740  13.193  0.00  0.00    +0.000 C 
ATOM      2  C   UNL     1      47.258   7.414  13.355  0.00  0.00    +0.000 C 
ENDROOT
BRANCH   2   3
ATOM      3  C   UNL     1      46.404   6.256  12.850  0.00  0.00    +0.000 A 
ATOM      4  C   UNL     1      46.793   4.926  13.055  0.00  0.00    +0.000 A 
ATOM      5  C   UNL     1      45.987   3.869  12.613  0.00  0.00    +0.000 A 
ATOM      6  C   UNL     1      44.777   4.119  11.950  0.00  0.00    +0.000 A 
ATOM      7  C   UNL     1      44.382   5.446  11.751  0.00  0.00    +0.000 A 
ATOM      8  C   UNL     1      45.186   6.500  12.192  0.00  0.00    +0.000 A 
BRANCH   6   9
ATOM      9  C   UNL     1      43.909   2.989  11.461  0.00  0.00    +0.000 C 
BRANCH   9  10
ATOM     10  N   UNL     1      44.529   2.244  10.380  0.00  0.00    +0.000 N 
ATOM     11  H   UNL     1      44.749   1.266  10.542  0.00  0.00    +0.000 HD
BRANCH  10  12
ATOM     12  C   UNL     1      44.847   2.750   9.134  0.00  0.00    +0.000 C 
ATOM     13  S   UNL     1      44.178   4.135   8.462  0.00  0.00    +0.000 S 
BRANCH  12  14
ATOM     14  C   UNL     1      45.836   1.999   8.379  0.00  0.00    +0.000 A 
ATOM     15  C   UNL     1      46.881   2.363   7.539  0.00  0.00    +0.000 A 
ATOM     16  C   UNL     1      47.495   1.172   7.085  0.00  0.00    +0.000 A 
ATOM     17  C   UNL     1      46.797   0.142   7.667  0.00  0.00    +0.000 A 
ATOM     18  O   UNL     1      45.799   0.625   8.452  0.00  0.00    +0.000 OA
ENDBRANCH  12  14
ENDBRANCH  10  12
ENDBRANCH   9  10
ENDBRANCH   6   9
ENDBRANCH   2   3
BRANCH   2  19
ATOM     19  N   UNL     1      47.646   7.147  14.734  0.00  0.00    +0.000 N 
ATOM     20  C   UNL     1      48.949   7.070  15.155  0.00  0.00    +0.000 C 
ATOM     21  O   UNL     1      49.901   7.280  14.410  0.00  0.00    +0.000 OA
ATOM     22  H   UNL     1      46.942   6.683  15.302  0.00  0.00    +0.000 HD
BRANCH  20  23
ATOM     23  C   UNL     1      49.158   6.778  16.579  0.00  0.00    +0.000 A 
ATOM     24  C   UNL     1      49.719   7.746  17.401  0.00  0.00    +0.000 A 
ATOM     25  S   UNL     1      49.898   7.248  19.022  0.00  0.00    +0.000 S 
ATOM     26  C   UNL     1      49.270   5.706  18.674  0.00  0.00    +0.000 A 
ATOM     27  N   UNL     1      49.188   4.750  19.638  0.00  0.00    +0.000 NA
ATOM     28  C   UNL     1      48.723   3.617  19.227  0.00  0.00    +0.000 A 
ATOM     29  N   UNL     1      48.317   3.360  17.944  0.00  0.00    +0.000 N 
ATOM     30  C   UNL     1      48.340   4.308  16.948  0.00  0.00    +0.000 A 
ATOM     31  O   UNL     1      47.903   4.070  15.827  0.00  0.00    +0.000 OA
ATOM     32  C   UNL     1      48.892   5.587  17.349  0.00  0.00    +0.000 A 
ATOM     33  H   UNL     1      47.940   2.457  17.692  0.00  0.00    +0.000 HD
ENDBRANCH  20  23
ENDBRANCH   2  19
TORSDOF 7
ENDMDL
MODEL 6
REMARK VINA RESULT:    -7.296      2.898      8.248
REMARK INTER + INTRA:         -11.317
REMARK INTER:                  -9.849
REMARK INTRA:                  -1.467
REMARK UNBOUND:                -1.035
REMARK  Name = 
REMARK  8 active torsions:
REMARK  status: ('A' for Active; 'I' for Inactive)
REMARK    1  A    between atoms: C_1  and  C_2
REMARK    2  A    between atoms: C_2  and  N_3
REMARK    3  A    between atoms: C_2  and  C_16
REMARK    4  A    between atoms: C_4  and  C_6
REMARK    5  A    between atoms: C_19  and  C_20
REMARK    6  A    between atoms: C_20  and  N_21
REMARK    7  A    between atoms: N_21  and  C_22
REMARK    8  A    between atoms: C_22  and  C_24
REMARK                            x       y       z     vdW  Elec       q    Type
REMARK                         _______ _______ _______ _____ _____    ______ ____
ROOT
ATOM      1  C   UNL     1      49.390   8.706  11.389  0.00  0.00    +0.000 C 
ATOM      2  C   UNL     1      48.291   8.127  12.290  0.00  0.00    +0.000 C 
ENDROOT
BRANCH   2   3
ATOM      3  C   UNL     1      48.889   7.655  13.612  0.00  0.00    +0.000 A 
ATOM      4  C   UNL     1      48.185   6.785  14.455  0.00  0.00    +0.000 A 
ATOM      5  C   UNL     1      48.754   6.334  15.653  0.00  0.00    +0.000 A 
ATOM      6  C   UNL     1      50.038   6.748  16.037  0.00  0.00    +0.000 A 
ATOM      7  C   UNL     1      50.746   7.610  15.193  0.00  0.00    +0.000 A 
ATOM      8  C   UNL     1      50.178   8.060  13.999  0.00  0.00    +0.000 A 
BRANCH   6   9
ATOM      9  C   UNL     1      50.654   6.277  17.329  0.00  0.00    +0.000 C 
BRANCH   9  10
ATOM     10  N   UNL     1      51.505   5.115  17.144  0.00  0.00    +0.000 N 
ATOM     11  H   UNL     1      52.384   5.244  16.651  0.00  0.00    +0.000 HD
BRANCH  10  12
ATOM     12  C   UNL     1      51.225   3.836  17.586  0.00  0.00    +0.000 C 
ATOM     13  S   UNL     1      52.368   2.746  18.153  0.00  0.00    +0.000 S 
BRANCH  12  14
ATOM     14  C   UNL     1      49.827   3.441  17.536  0.00  0.00    +0.000 A 
ATOM     15  C   UNL     1      48.776   3.518  18.440  0.00  0.00    +0.000 A 
ATOM     16  C   UNL     1      47.638   2.955  17.817  0.00  0.00    +0.000 A 
ATOM     17  C   UNL     1      48.048   2.561  16.567  0.00  0.00    +0.000 A 
ATOM     18  O   UNL     1      49.363   2.852  16.382  0.00  0.00    +0.000 OA
ENDBRANCH  12  14
ENDBRANCH  10  12
ENDBRANCH   9  10
ENDBRANCH   6   9
ENDBRANCH   2   3
BRANCH   2  19
ATOM     19  N   UNL     1      47.577   7.016  11.673  0.00  0.00    +0.000 N 
ATOM     20  C   UNL     1      46.218   6.995  11.491  0.00  0.00    +0.000 C 
ATOM     21  O   UNL     1      45.494   7.942  11.783  0.00  0.00    +0.000 OA
ATOM     22  H   UNL     1      48.061   6.123  11.694  0.00  0.00    +0.000 HD
BRANCH  20  23
ATOM     23  C   UNL     1      45.662   5.788  10.865  0.00  0.00    +0.000 A 
ATOM     24  C   UNL     1      45.846   5.576   9.505  0.00  0.00    +0.000 A 
ATOM     25  S   UNL     1      45.137   4.135   8.935  0.00  0.00    +0.000 S 
ATOM     26  C   UNL     1      44.524   3.763  10.477  0.00  0.00    +0.000 A 
ATOM     27  N   UNL     1      43.763   2.653  10.679  0.00  0.00    +0.000 NA
ATOM     28  C   UNL     1      43.337   2.512  11.890  0.00  0.00    +0.000 A 
ATOM     29  N   UNL     1      43.618   3.370  12.921  0.00  0.00    +0.000 N 
ATOM     30  C   UNL     1      44.418   4.479  12.774  0.00  0.00    +0.000 A 
ATOM     31  O   UNL     1      44.710   5.188  13.730  0.00  0.00    +0.000 OA
ATOM     32  C   UNL     1      44.889   4.705  11.422  0.00  0.00    +0.000 A 
ATOM     33  H   UNL     1      43.272   3.189  13.852  0.00  0.00    +0.000 HD
ENDBRANCH  20  23
ENDBRANCH   2  19
TORSDOF 7
ENDMDL
MODEL 7
REMARK VINA RESULT:    -7.272      2.558      8.830
REMARK INTER + INTRA:         -11.283
REMARK INTER:                 -10.092
REMARK INTRA:                  -1.191
REMARK UNBOUND:                -1.035
REMARK  Name = 
REMARK  8 active torsions:
REMARK  status: ('A' for Active; 'I' for Inactive)
REMARK    1  A    between atoms: C_1  and  C_2
REMARK    2  A    between atoms: C_2  and  N_3
REMARK    3  A    between atoms: C_2  and  C_16
REMARK    4  A    between atoms: C_4  and  C_6
REMARK    5  A    between atoms: C_19  and  C_20
REMARK    6  A    between atoms: C_20  and  N_21
REMARK    7  A    between atoms: N_21  and  C_22
REMARK    8  A    between atoms: C_22  and  C_24
REMARK                            x       y       z     vdW  Elec       q    Type
REMARK                         _______ _______ _______ _____ _____    ______ ____
ROOT
ATOM      1  C   UNL     1      48.761   8.009  11.505  0.00  0.00    +0.000 C 
ATOM      2  C   UNL     1      47.862   7.581  12.673  0.00  0.00    +0.000 C 
ENDROOT
BRANCH   2   3
ATOM      3  C   UNL     1      48.709   7.273  13.904  0.00  0.00    +0.000 A 
ATOM      4  C   UNL     1      50.031   7.725  14.005  0.00  0.00    +0.000 A 
ATOM      5  C   UNL     1      50.792   7.461  15.151  0.00  0.00    +0.000 A 
ATOM      6  C   UNL     1      50.248   6.735  16.220  0.00  0.00    +0.000 A 
ATOM      7  C   UNL     1      48.926   6.289  16.126  0.00  0.00    +0.000 A 
ATOM      8  C   UNL     1      48.168   6.552  14.981  0.00  0.00    +0.000 A 
BRANCH   6   9
ATOM      9  C   UNL     1      51.061   6.437  17.453  0.00  0.00    +0.000 C 
BRANCH   9  10
ATOM     10  N   UNL     1      51.930   5.286  17.278  0.00  0.00    +0.000 N 
ATOM     11  H   UNL     1      52.796   5.419  16.765  0.00  0.00    +0.000 HD
BRANCH  10  12
ATOM     12  C   UNL     1      51.682   4.012  17.753  0.00  0.00    +0.000 C 
ATOM     13  S   UNL     1      52.852   2.966  18.346  0.00  0.00    +0.000 S 
BRANCH  12  14
ATOM     14  C   UNL     1      50.294   3.583  17.718  0.00  0.00    +0.000 A 
ATOM     15  C   UNL     1      49.226   3.714  18.597  0.00  0.00    +0.000 A 
ATOM     16  C   UNL     1      48.111   3.073  18.009  0.00  0.00    +0.000 A 
ATOM     17  C   UNL     1      48.549   2.582  16.804  0.00  0.00    +0.000 A 
ATOM     18  O   UNL     1      49.860   2.886  16.613  0.00  0.00    +0.000 OA
ENDBRANCH  12  14
ENDBRANCH  10  12
ENDBRANCH   9  10
ENDBRANCH   6   9
ENDBRANCH   2   3
BRANCH   2  19
ATOM     19  N   UNL     1      47.041   6.418  12.362  0.00  0.00    +0.000 N 
ATOM     20  C   UNL     1      45.759   6.500  11.882  0.00  0.00    +0.000 C 
ATOM     21  O   UNL     1      45.216   7.568  11.617  0.00  0.00    +0.000 OA
ATOM     22  H   UNL     1      47.313   5.557  12.830  0.00  0.00    +0.000 HD
BRANCH  20  23
ATOM     23  C   UNL     1      45.072   5.225  11.637  0.00  0.00    +0.000 A 
ATOM     24  C   UNL     1      44.366   4.619  12.667  0.00  0.00    +0.000 A 
ATOM     25  S   UNL     1      43.632   3.147  12.219  0.00  0.00    +0.000 S 
ATOM     26  C   UNL     1      44.267   3.246  10.644  0.00  0.00    +0.000 A 
ATOM     27  N   UNL     1      44.047   2.256   9.737  0.00  0.00    +0.000 NA
ATOM     28  C   UNL     1      44.615   2.447   8.593  0.00  0.00    +0.000 A 
ATOM     29  N   UNL     1      45.367   3.546   8.268  0.00  0.00    +0.000 N 
ATOM     30  C   UNL     1      45.578   4.591   9.137  0.00  0.00    +0.000 A 
ATOM     31  O   UNL     1      46.195   5.593   8.794  0.00  0.00    +0.000 OA
ATOM     32  C   UNL     1      44.995   4.407  10.451  0.00  0.00    +0.000 A 
ATOM     33  H   UNL     1      45.764   3.645   7.345  0.00  0.00    +0.000 HD
ENDBRANCH  20  23
ENDBRANCH   2  19
TORSDOF 7
ENDMDL
MODEL 8
REMARK VINA RESULT:    -7.250      3.223      4.230
REMARK INTER + INTRA:         -11.253
REMARK INTER:                 -10.046
REMARK INTRA:                  -1.206
REMARK UNBOUND:                -1.035
REMARK  Name = 
REMARK  8 active torsions:
REMARK  status: ('A' for Active; 'I' for Inactive)
REMARK    1  A    between atoms: C_1  and  C_2
REMARK    2  A    between atoms: C_2  and  N_3
REMARK    3  A    between atoms: C_2  and  C_16
REMARK    4  A    between atoms: C_4  and  C_6
REMARK    5  A    between atoms: C_19  and  C_20
REMARK    6  A    between atoms: C_20  and  N_21
REMARK    7  A    between atoms: N_21  and  C_22
REMARK    8  A    between atoms: C_22  and  C_24
REMARK                            x       y       z     vdW  Elec       q    Type
REMARK                         _______ _______ _______ _____ _____    ______ ____
ROOT
ATOM      1  C   UNL     1      48.417   7.034  18.506  0.00  0.00    +0.000 C 
ATOM      2  C   UNL     1      49.346   6.606  17.362  0.00  0.00    +0.000 C 
ENDROOT
BRANCH   2   3
ATOM      3  C   UNL     1      48.529   6.039  16.206  0.00  0.00    +0.000 A 
ATOM      4  C   UNL     1      48.525   6.659  14.949  0.00  0.00    +0.000 A 
ATOM      5  C   UNL     1      47.794   6.114  13.885  0.00  0.00    +0.000 A 
ATOM      6  C   UNL     1      47.047   4.940  14.055  0.00  0.00    +0.000 A 
ATOM      7  C   UNL     1      47.056   4.314  15.306  0.00  0.00    +0.000 A 
ATOM      8  C   UNL     1      47.784   4.859  16.368  0.00  0.00    +0.000 A 
BRANCH   6   9
ATOM      9  C   UNL     1      46.250   4.353  12.920  0.00  0.00    +0.000 C 
BRANCH   9  10
ATOM     10  N   UNL     1      45.263   5.282  12.399  0.00  0.00    +0.000 N 
ATOM     11  H   UNL     1      45.356   6.262  12.647  0.00  0.00    +0.000 HD
BRANCH  10  12
ATOM     12  C   UNL     1      44.197   4.949  11.585  0.00  0.00    +0.000 C 
ATOM     13  S   UNL     1      42.601   5.382  11.870  0.00  0.00    +0.000 S 
BRANCH  12  14
ATOM     14  C   UNL     1      44.522   4.163  10.407  0.00  0.00    +0.000 A 
ATOM     15  C   UNL     1      45.197   4.440   9.225  0.00  0.00    +0.000 A 
ATOM     16  C   UNL     1      45.186   3.261   8.443  0.00  0.00    +0.000 A 
ATOM     17  C   UNL     1      44.508   2.324   9.182  0.00  0.00    +0.000 A 
ATOM     18  O   UNL     1      44.106   2.851  10.369  0.00  0.00    +0.000 OA
ENDBRANCH  12  14
ENDBRANCH  10  12
ENDBRANCH   9  10
ENDBRANCH   6   9
ENDBRANCH   2   3
BRANCH   2  19
ATOM     19  N   UNL     1      50.333   5.615  17.772  0.00  0.00    +0.000 N 
ATOM     20  C   UNL     1      51.577   5.503  17.204  0.00  0.00    +0.000 C 
ATOM     21  O   UNL     1      51.983   6.272  16.338  0.00  0.00    +0.000 OA
ATOM     22  H   UNL     1      49.958   4.797  18.244  0.00  0.00    +0.000 HD
BRANCH  20  23
ATOM     23  C   UNL     1      52.440   4.438  17.730  0.00  0.00    +0.000 A 
ATOM     24  C   UNL     1      53.681   4.763  18.263  0.00  0.00    +0.000 A 
ATOM     25  S   UNL     1      54.558   3.414  18.825  0.00  0.00    +0.000 S 
ATOM     26  C   UNL     1      53.329   2.343  18.339  0.00  0.00    +0.000 A 
ATOM     27  N   UNL     1      53.470   0.999  18.495  0.00  0.00    +0.000 NA
ATOM     28  C   UNL     1      52.475   0.304  18.052  0.00  0.00    +0.000 A 
ATOM     29  N   UNL     1      51.345   0.833  17.484  0.00  0.00    +0.000 N 
ATOM     30  C   UNL     1      51.141   2.186  17.346  0.00  0.00    +0.000 A 
ATOM     31  O   UNL     1      50.089   2.632  16.900  0.00  0.00    +0.000 OA
ATOM     32  C   UNL     1      52.247   3.009  17.792  0.00  0.00    +0.000 A 
ATOM     33  H   UNL     1      50.591   0.234  17.179  0.00  0.00    +0.000 HD
ENDBRANCH  20  23
ENDBRANCH   2  19
TORSDOF 7
ENDMDL
MODEL 9
REMARK VINA RESULT:    -6.482      3.629      5.941
REMARK INTER + INTRA:         -10.169
REMARK INTER:                  -8.781
REMARK INTRA:                  -1.388
REMARK UNBOUND:                -1.035
REMARK  Name = 
REMARK  8 active torsions:
REMARK  status: ('A' for Active; 'I' for Inactive)
REMARK    1  A    between atoms: C_1  and  C_2
REMARK    2  A    between atoms: C_2  and  N_3
REMARK    3  A    between atoms: C_2  and  C_16
REMARK    4  A    between atoms: C_4  and  C_6
REMARK    5  A    between atoms: C_19  and  C_20
REMARK    6  A    between atoms: C_20  and  N_21
REMARK    7  A    between atoms: N_21  and  C_22
REMARK    8  A    between atoms: C_22  and  C_24
REMARK                            x       y       z     vdW  Elec       q    Type
REMARK                         _______ _______ _______ _____ _____    ______ ____
ROOT
ATOM      1  C   UNL     1      49.422   6.444  15.949  0.00  0.00    +0.000 C 
ATOM      2  C   UNL     1      49.351   7.516  14.854  0.00  0.00    +0.000 C 
ENDROOT
BRANCH   2   3
ATOM      3  C   UNL     1      48.166   7.249  13.931  0.00  0.00    +0.000 A 
ATOM      4  C   UNL     1      47.588   5.975  13.846  0.00  0.00    +0.000 A 
ATOM      5  C   UNL     1      46.482   5.747  13.017  0.00  0.00    +0.000 A 
ATOM      6  C   UNL     1      45.933   6.785  12.251  0.00  0.00    +0.000 A 
ATOM      7  C   UNL     1      46.503   8.059  12.341  0.00  0.00    +0.000 A 
ATOM      8  C   UNL     1      47.607   8.287  13.167  0.00  0.00    +0.000 A 
BRANCH   6   9
ATOM      9  C   UNL     1      44.751   6.547  11.349  0.00  0.00    +0.000 C 
BRANCH   9  10
ATOM     10  N   UNL     1      45.093   5.738  10.192  0.00  0.00    +0.000 N 
ATOM     11  H   UNL     1      45.607   6.183   9.437  0.00  0.00    +0.000 HD
BRANCH  10  12
ATOM     12  C   UNL     1      44.780   4.402  10.024  0.00  0.00    +0.000 C 
ATOM     13  S   UNL     1      43.709   3.540  10.985  0.00  0.00    +0.000 S 
BRANCH  12  14
ATOM     14  C   UNL     1      45.453   3.729   8.926  0.00  0.00    +0.000 A 
ATOM     15  C   UNL     1      45.676   2.394   8.612  0.00  0.00    +0.000 A 
ATOM     16  C   UNL     1      46.409   2.360   7.402  0.00  0.00    +0.000 A 
ATOM     17  C   UNL     1      46.597   3.670   7.037  0.00  0.00    +0.000 A 
ATOM     18  O   UNL     1      46.023   4.505   7.943  0.00  0.00    +0.000 OA
ENDBRANCH  12  14
ENDBRANCH  10  12
ENDBRANCH   9  10
ENDBRANCH   6   9
ENDBRANCH   2   3
BRANCH   2  19
ATOM     19  N   UNL     1      50.566   7.591  14.052  0.00  0.00    +0.000 N 
ATOM     20  C   UNL     1      51.263   8.752  13.837  0.00  0.00    +0.000 C 
ATOM     21  O   UNL     1      50.951   9.820  14.355  0.00  0.00    +0.000 OA
ATOM     22  H   UNL     1      50.690   6.838  13.381  0.00  0.00    +0.000 HD
BRANCH  20  23
ATOM     23  C   UNL     1      52.459   8.647  12.990  0.00  0.00    +0.000 A 
ATOM     24  C   UNL     1      53.683   9.084  13.478  0.00  0.00    +0.000 A 
ATOM     25  S   UNL     1      54.967   8.896  12.372  0.00  0.00    +0.000 S 
ATOM     26  C   UNL     1      53.924   8.262  11.187  0.00  0.00    +0.000 A 
ATOM     27  N   UNL     1      54.389   7.927   9.953  0.00  0.00    +0.000 NA
ATOM     28  C   UNL     1      53.482   7.489   9.143  0.00  0.00    +0.000 A 
ATOM     29  N   UNL     1      52.158   7.340   9.461  0.00  0.00    +0.000 N 
ATOM     30  C   UNL     1      51.652   7.625  10.708  0.00  0.00    +0.000 A 
ATOM     31  O   UNL     1      50.476   7.413  10.984  0.00  0.00    +0.000 OA
ATOM     32  C   UNL     1      52.622   8.158  11.643  0.00  0.00    +0.000 A 
ATOM     33  H   UNL     1      51.503   6.970   8.787  0.00  0.00    +0.000 HD
ENDBRANCH  20  23
ENDBRANCH   2  19
TORSDOF 7
ENDMDL
