MODEL 1
REMARK VINA RESULT:    -8.636      0.000      0.000
REMARK INTER + INTRA:         -13.580
REMARK INTER:                 -12.423
REMARK INTRA:                  -1.157
REMARK UNBOUND:                -1.157
REMARK  Name = 
REMARK  8 active torsions:
REMARK  status: ('A' for Active; 'I' for Inactive)
REMARK    1  A    between atoms: C_2  and  C_21
REMARK    2  A    between atoms: N_3  and  C_4
REMARK    3  A    between atoms: C_4  and  C_5
REMARK    4  A    between atoms: C_8  and  C_9
REMARK    5  A    between atoms: C_9  and  C_10
REMARK    6  A    between atoms: C_10  and  O_11
REMARK    7  A    between atoms: C_10  and  C_12
REMARK    8  A    between atoms: C_12  and  C_13
REMARK                            x       y       z     vdW  Elec       q    Type
REMARK                         _______ _______ _______ _____ _____    ______ ____
ROOT
ATOM      1  C   UNL     1      46.201   7.160  12.445  0.00  0.00    +0.000 A 
ATOM      2  C   UNL     1      46.677   6.682  11.219  0.00  0.00    +0.000 A 
ATOM      3  C   UNL     1      45.925   5.775  10.469  0.00  0.00    +0.000 A 
ATOM      4  C   UNL     1      44.682   5.325  10.929  0.00  0.00    +0.000 A 
ATOM      5  C   UNL     1      44.185   5.836  12.136  0.00  0.00    +0.000 A 
ATOM      6  C   UNL     1      44.935   6.750  12.884  0.00  0.00    +0.000 A 
ENDROOT
BRANCH   1   7
ATOM      7  C   UNL     1      47.029   8.126  13.252  0.00  0.00    +0.000 C 
BRANCH   7  10
ATOM      8  O   UNL     1      49.357   6.591  13.670  0.00  0.00    +0.000 OA
ATOM      9  C   UNL     1      48.635   6.857  14.627  0.00  0.00    +0.000 C 
ATOM     10  N   UNL     1      47.451   7.536  14.495  0.00  0.00    +0.000 N 
ATOM     11  H   UNL     1      46.987   7.882  15.326  0.00  0.00    +0.000 HD
BRANCH   9  12
ATOM     12  C   UNL     1      48.974   6.414  15.985  0.00  0.00    +0.000 A 
ATOM     13  C   UNL     1      49.750   7.225  16.803  0.00  0.00    +0.000 A 
ATOM     14  S   UNL     1      50.058   6.551  18.339  0.00  0.00    +0.000 S 
ATOM     15  C   UNL     1      49.125   5.173  17.983  0.00  0.00    +0.000 A 
ATOM     16  N   UNL     1      48.947   4.191  18.907  0.00  0.00    +0.000 NA
ATOM     17  C   UNL     1      48.182   3.227  18.520  0.00  0.00    +0.000 A 
ATOM     18  N   UNL     1      47.584   3.150  17.289  0.00  0.00    +0.000 N 
ATOM     19  C   UNL     1      47.803   4.075  16.296  0.00  0.00    +0.000 A 
ATOM     20  O   UNL     1      47.375   3.894  15.160  0.00  0.00    +0.000 OA
ATOM     21  C   UNL     1      48.613   5.210  16.698  0.00  0.00    +0.000 A 
ATOM     22  H   UNL     1      47.026   2.350  17.035  0.00  0.00    +0.000 HD
ENDBRANCH   9  12
ENDBRANCH   7  10
ENDBRANCH   1   7
BRANCH   4  23
ATOM     23  C   UNL     1      43.898   4.296  10.141  0.00  0.00    +0.000 C 
BRANCH  23  24
ATOM     24  C   UNL     1      44.417   2.855  10.344  0.00  0.00    +0.000 C 
BRANCH  24  25
ATOM     25  O   UNL     1      43.641   2.203  11.364  0.00  0.00    +0.000 OA
ATOM     26  H   UNL     1      42.710   2.216  11.094  0.00  0.00    +0.000 HD
ENDBRANCH  24  25
BRANCH  24  27
ATOM     27  C   UNL     1      44.324   2.044   9.040  0.00  0.00    +0.000 C 
BRANCH  27  28
ATOM     28  C   UNL     1      45.610   2.129   8.250  0.00  0.00    +0.000 A 
ATOM     29  C   UNL     1      45.978   3.328   7.639  0.00  0.00    +0.000 A 
ATOM     30  C   UNL     1      47.117   3.358   6.841  0.00  0.00    +0.000 A 
ATOM     31  C   UNL     1      47.861   2.198   6.678  0.00  0.00    +0.000 A 
ATOM     32  C   UNL     1      47.436   1.053   7.334  0.00  0.00    +0.000 A 
ATOM     33  N   UNL     1      46.334   0.992   8.117  0.00  0.00    +0.000 NA
ENDBRANCH  27  28
ENDBRANCH  24  27
ENDBRANCH  23  24
ENDBRANCH   4  23
TORSDOF 8
ENDMDL
MODEL 2
REMARK VINA RESULT:    -8.243      1.676      1.934
REMARK INTER + INTRA:         -13.015
REMARK INTER:                 -11.963
REMARK INTRA:                  -1.052
REMARK UNBOUND:                -1.157
REMARK  Name = 
REMARK  8 active torsions:
REMARK  status: ('A' for Active; 'I' for Inactive)
REMARK    1  A    between atoms: C_2  and  C_21
REMARK    2  A    between atoms: N_3  and  C_4
REMARK    3  A    between atoms: C_4  and  C_5
REMARK    4  A    between atoms: C_8  and  C_9
REMARK    5  A    between atoms: C_9  and  C_10
REMARK    6  A    between atoms: C_10  and  O_11
REMARK    7  A    between atoms: C_10  and  C_12
REMARK    8  A    between atoms: C_12  and  C_13
REMARK                            x       y       z     vdW  Elec       q    Type
REMARK                         _______ _______ _______ _____ _____    ______ ____
ROOT
ATOM      1  C   UNL     1      47.449   6.377  13.186  0.00  0.00    +0.000 A 
ATOM      2  C   UNL     1      46.969   6.977  12.016  0.00  0.00    +0.000 A 
ATOM      3  C   UNL     1      45.898   6.416  11.317  0.00  0.00    +0.000 A 
ATOM      4  C   UNL     1      45.283   5.243  11.772  0.00  0.00    +0.000 A 
ATOM      5  C   UNL     1      45.735   4.667  12.968  0.00  0.00    +0.000 A 
ATOM      6  C   UNL     1      46.804   5.232  13.671  0.00  0.00    +0.000 A 
ENDROOT
BRANCH   1   7
ATOM      7  C   UNL     1      48.616   6.983  13.921  0.00  0.00    +0.000 C 
BRANCH   7  10
ATOM      8  O   UNL     1      50.426   6.251  15.955  0.00  0.00    +0.000 OA
ATOM      9  C   UNL     1      49.332   6.714  16.265  0.00  0.00    +0.000 C 
ATOM     10  N   UNL     1      48.371   7.026  15.339  0.00  0.00    +0.000 N 
ATOM     11  H   UNL     1      47.564   7.565  15.630  0.00  0.00    +0.000 HD
BRANCH   9  12
ATOM     12  C   UNL     1      48.961   6.916  17.671  0.00  0.00    +0.000 A 
ATOM     13  C   UNL     1      48.637   8.189  18.124  0.00  0.00    +0.000 A 
ATOM     14  S   UNL     1      48.243   8.244  19.783  0.00  0.00    +0.000 S 
ATOM     15  C   UNL     1      48.444   6.562  19.943  0.00  0.00    +0.000 A 
ATOM     16  N   UNL     1      48.222   5.940  21.133  0.00  0.00    +0.000 NA
ATOM     17  C   UNL     1      48.368   4.659  21.101  0.00  0.00    +0.000 A 
ATOM     18  N   UNL     1      48.725   3.940  19.990  0.00  0.00    +0.000 N 
ATOM     19  C   UNL     1      49.040   4.533  18.790  0.00  0.00    +0.000 A 
ATOM     20  O   UNL     1      49.502   3.874  17.864  0.00  0.00    +0.000 OA
ATOM     21  C   UNL     1      48.839   5.970  18.756  0.00  0.00    +0.000 A 
ATOM     22  H   UNL     1      48.858   2.942  20.041  0.00  0.00    +0.000 HD
ENDBRANCH   9  12
ENDBRANCH   7  10
ENDBRANCH   1   7
BRANCH   4  23
ATOM     23  C   UNL     1      44.161   4.607  10.979  0.00  0.00    +0.000 C 
BRANCH  23  24
ATOM     24  C   UNL     1      44.597   3.322  10.240  0.00  0.00    +0.000 C 
BRANCH  24  25
ATOM     25  O   UNL     1      43.754   2.227  10.641  0.00  0.00    +0.000 OA
ATOM     26  H   UNL     1      42.895   2.326  10.201  0.00  0.00    +0.000 HD
ENDBRANCH  24  25
BRANCH  24  27
ATOM     27  C   UNL     1      44.503   3.501   8.716  0.00  0.00    +0.000 C 
BRANCH  27  28
ATOM     28  C   UNL     1      45.654   2.815   8.013  0.00  0.00    +0.000 A 
ATOM     29  C   UNL     1      46.347   3.475   6.998  0.00  0.00    +0.000 A 
ATOM     30  C   UNL     1      47.340   2.792   6.304  0.00  0.00    +0.000 A 
ATOM     31  C   UNL     1      47.620   1.476   6.642  0.00  0.00    +0.000 A 
ATOM     32  C   UNL     1      46.897   0.899   7.674  0.00  0.00    +0.000 A 
ATOM     33  N   UNL     1      45.926   1.536   8.368  0.00  0.00    +0.000 NA
ENDBRANCH  27  28
ENDBRANCH  24  27
ENDBRANCH  23  24
ENDBRANCH   4  23
TORSDOF 8
ENDMDL
MODEL 3
REMARK VINA RESULT:    -8.100      2.242      2.734
REMARK INTER + INTRA:         -12.808
REMARK INTER:                 -11.519
REMARK INTRA:                  -1.290
REMARK UNBOUND:                -1.157
REMARK  Name = 
REMARK  8 active torsions:
REMARK  status: ('A' for Active; 'I' for Inactive)
REMARK    1  A    between atoms: C_2  and  C_21
REMARK    2  A    between atoms: N_3  and  C_4
REMARK    3  A    between atoms: C_4  and  C_5
REMARK    4  A    between atoms: C_8  and  C_9
REMARK    5  A    between atoms: C_9  and  C_10
REMARK    6  A    between atoms: C_10  and  O_11
REMARK    7  A    between atoms: C_10  and  C_12
REMARK    8  A    between atoms: C_12  and  C_13
REMARK                            x       y       z     vdW  Elec       q    Type
REMARK                         _______ _______ _______ _____ _____    ______ ____
ROOT
ATOM      1  C   UNL     1      47.290   6.300  13.370  0.00  0.00    +0.000 A 
ATOM      2  C   UNL     1      46.999   6.794  12.093  0.00  0.00    +0.000 A 
ATOM      3  C   UNL     1      45.978   6.227  11.327  0.00  0.00    +0.000 A 
ATOM      4  C   UNL     1      45.225   5.155  11.820  0.00  0.00    +0.000 A 
ATOM      5  C   UNL     1      45.487   4.688  13.116  0.00  0.00    +0.000 A 
ATOM      6  C   UNL     1      46.506   5.259  13.886  0.00  0.00    +0.000 A 
ENDROOT
BRANCH   1   7
ATOM      7  C   UNL     1      48.405   6.909  14.179  0.00  0.00    +0.000 C 
BRANCH   7  10
ATOM      8  O   UNL     1      50.423   6.162  16.001  0.00  0.00    +0.000 OA
ATOM      9  C   UNL     1      49.282   6.349  16.414  0.00  0.00    +0.000 C 
ATOM     10  N   UNL     1      48.233   6.644  15.583  0.00  0.00    +0.000 N 
ATOM     11  H   UNL     1      47.360   6.961  15.987  0.00  0.00    +0.000 HD
BRANCH   9  12
ATOM     12  C   UNL     1      48.957   6.217  17.840  0.00  0.00    +0.000 A 
ATOM     13  C   UNL     1      49.261   5.039  18.511  0.00  0.00    +0.000 A 
ATOM     14  S   UNL     1      48.805   5.053  20.155  0.00  0.00    +0.000 S 
ATOM     15  C   UNL     1      48.229   6.650  20.039  0.00  0.00    +0.000 A 
ATOM     16  N   UNL     1      47.722   7.291  21.127  0.00  0.00    +0.000 NA
ATOM     17  C   UNL     1      47.364   8.511  20.908  0.00  0.00    +0.000 A 
ATOM     18  N   UNL     1      47.458   9.148  19.697  0.00  0.00    +0.000 N 
ATOM     19  C   UNL     1      47.885   8.515  18.554  0.00  0.00    +0.000 A 
ATOM     20  O   UNL     1      47.811   9.068  17.462  0.00  0.00    +0.000 OA
ATOM     21  C   UNL     1      48.352   7.155  18.757  0.00  0.00    +0.000 A 
ATOM     22  H   UNL     1      47.126  10.093  19.583  0.00  0.00    +0.000 HD
ENDBRANCH   9  12
ENDBRANCH   7  10
ENDBRANCH   1   7
BRANCH   4  23
ATOM     23  C   UNL     1      44.159   4.506  10.962  0.00  0.00    +0.000 C 
BRANCH  23  24
ATOM     24  C   UNL     1      44.680   3.287  10.170  0.00  0.00    +0.000 C 
BRANCH  24  25
ATOM     25  O   UNL     1      43.864   2.138  10.461  0.00  0.00    +0.000 OA
ATOM     26  H   UNL     1      43.484   2.251  11.346  0.00  0.00    +0.000 HD
ENDBRANCH  24  25
BRANCH  24  27
ATOM     27  C   UNL     1      44.652   3.557   8.656  0.00  0.00    +0.000 C 
BRANCH  27  28
ATOM     28  C   UNL     1      45.766   2.820   7.948  0.00  0.00    +0.000 A 
ATOM     29  C   UNL     1      46.477   3.444   6.923  0.00  0.00    +0.000 A 
ATOM     30  C   UNL     1      47.435   2.716   6.224  0.00  0.00    +0.000 A 
ATOM     31  C   UNL     1      47.662   1.392   6.568  0.00  0.00    +0.000 A 
ATOM     32  C   UNL     1      46.925   0.852   7.609  0.00  0.00    +0.000 A 
ATOM     33  N   UNL     1      45.988   1.533   8.308  0.00  0.00    +0.000 NA
ENDBRANCH  27  28
ENDBRANCH  24  27
ENDBRANCH  23  24
ENDBRANCH   4  23
TORSDOF 8
ENDMDL
MODEL 4
REMARK VINA RESULT:    -7.181      2.838      3.749
REMARK INTER + INTRA:         -11.486
REMARK INTER:                 -10.888
REMARK INTRA:                  -0.598
REMARK UNBOUND:                -1.157
REMARK  Name = 
REMARK  8 active torsions:
REMARK  status: ('A' for Active; 'I' for Inactive)
REMARK    1  A    between atoms: C_2  and  C_21
REMARK    2  A    between atoms: N_3  and  C_4
REMARK    3  A    between atoms: C_4  and  C_5
REMARK    4  A    between atoms: C_8  and  C_9
REMARK    5  A    between atoms: C_9  and  C_10
REMARK    6  A    between atoms: C_10  and  O_11
REMARK    7  A    between atoms: C_10  and  C_12
REMARK    8  A    between atoms: C_12  and  C_13
REMARK                            x       y       z     vdW  Elec       q    Type
REMARK                         _______ _______ _______ _____ _____    ______ ____
ROOT
ATOM      1  C   UNL     1      48.282   6.239  15.123  0.00  0.00    +0.000 A 
ATOM      2  C   UNL     1      47.603   5.113  15.603  0.00  0.00    +0.000 A 
ATOM      3  C   UNL     1      46.723   4.407  14.780  0.00  0.00    +0.000 A 
ATOM      4  C   UNL     1      46.503   4.811  13.457  0.00  0.00    +0.000 A 
ATOM      5  C   UNL     1      47.215   5.913  12.962  0.00  0.00    +0.000 A 
ATOM      6  C   UNL     1      48.101   6.616  13.786  0.00  0.00    +0.000 A 
ENDROOT
BRANCH   1   7
ATOM      7  C   UNL     1      49.214   7.001  16.027  0.00  0.00    +0.000 C 
BRANCH   7  10
ATOM      8  O   UNL     1      49.692   6.315  18.720  0.00  0.00    +0.000 OA
ATOM      9  C   UNL     1      50.391   5.817  17.841  0.00  0.00    +0.000 C 
ATOM     10  N   UNL     1      50.269   6.154  16.519  0.00  0.00    +0.000 N 
ATOM     11  H   UNL     1      50.741   5.590  15.822  0.00  0.00    +0.000 HD
BRANCH   9  12
ATOM     12  C   UNL     1      51.451   4.854  18.165  0.00  0.00    +0.000 A 
ATOM     13  C   UNL     1      52.581   5.276  18.854  0.00  0.00    +0.000 A 
ATOM     14  S   UNL     1      53.714   4.032  19.135  0.00  0.00    +0.000 S 
ATOM     15  C   UNL     1      52.712   2.876  18.390  0.00  0.00    +0.000 A 
ATOM     16  N   UNL     1      53.084   1.569  18.321  0.00  0.00    +0.000 NA
ATOM     17  C   UNL     1      52.212   0.795  17.771  0.00  0.00    +0.000 A 
ATOM     18  N   UNL     1      51.003   1.208  17.274  0.00  0.00    +0.000 N 
ATOM     19  C   UNL     1      50.621   2.529  17.246  0.00  0.00    +0.000 A 
ATOM     20  O   UNL     1      49.604   2.879  16.657  0.00  0.00    +0.000 OA
ATOM     21  C   UNL     1      51.544   3.436  17.903  0.00  0.00    +0.000 A 
ATOM     22  H   UNL     1      50.380   0.557  16.822  0.00  0.00    +0.000 HD
ENDBRANCH   9  12
ENDBRANCH   7  10
ENDBRANCH   1   7
BRANCH   4  23
ATOM     23  C   UNL     1      45.504   4.078  12.586  0.00  0.00    +0.000 C 
BRANCH  23  24
ATOM     24  C   UNL     1      44.049   4.546  12.811  0.00  0.00    +0.000 C 
BRANCH  24  25
ATOM     25  O   UNL     1      44.044   5.923  13.223  0.00  0.00    +0.000 OA
ATOM     26  H   UNL     1      44.860   6.340  12.905  0.00  0.00    +0.000 HD
ENDBRANCH  24  25
BRANCH  24  27
ATOM     27  C   UNL     1      43.216   4.399  11.526  0.00  0.00    +0.000 C 
BRANCH  27  28
ATOM     28  C   UNL     1      44.053   3.853  10.391  0.00  0.00    +0.000 A 
ATOM     29  C   UNL     1      44.790   4.720   9.584  0.00  0.00    +0.000 A 
ATOM     30  C   UNL     1      45.478   4.205   8.491  0.00  0.00    +0.000 A 
ATOM     31  C   UNL     1      45.419   2.843   8.234  0.00  0.00    +0.000 A 
ATOM     32  C   UNL     1      44.679   2.048   9.094  0.00  0.00    +0.000 A 
ATOM     33  N   UNL     1      43.999   2.518  10.165  0.00  0.00    +0.000 NA
ENDBRANCH  27  28
ENDBRANCH  24  27
ENDBRANCH  23  24
ENDBRANCH   4  23
TORSDOF 8
ENDMDL
MODEL 5
REMARK VINA RESULT:    -7.018      2.309      2.911
REMARK INTER + INTRA:         -11.252
REMARK INTER:                 -10.475
REMARK INTRA:                  -0.776
REMARK UNBOUND:                -1.157
REMARK  Name = 
REMARK  8 active torsions:
REMARK  status: ('A' for Active; 'I' for Inactive)
REMARK    1  A    between atoms: C_2  and  C_21
REMARK    2  A    between atoms: N_3  and  C_4
REMARK    3  A    between atoms: C_4  and  C_5
REMARK    4  A    between atoms: C_8  and  C_9
REMARK    5  A    between atoms: C_9  and  C_10
REMARK    6  A    between atoms: C_10  and  O_11
REMARK    7  A    between atoms: C_10  and  C_12
REMARK    8  A    between atoms: C_12  and  C_13
REMARK                            x       y       z     vdW  Elec       q    Type
REMARK                         _______ _______ _______ _____ _____    ______ ____
ROOT
ATOM      1  C   UNL     1      45.829   7.355  12.838  0.00  0.00    +0.000 A 
ATOM      2  C   UNL     1      46.859   6.413  12.737  0.00  0.00    +0.000 A 
ATOM      3  C   UNL     1      46.572   5.069  12.485  0.00  0.00    +0.000 A 
ATOM      4  C   UNL     1      45.249   4.638  12.328  0.00  0.00    +0.000 A 
ATOM      5  C   UNL     1      44.220   5.589  12.385  0.00  0.00    +0.000 A 
ATOM      6  C   UNL     1      44.508   6.936  12.632  0.00  0.00    +0.000 A 
ENDROOT
BRANCH   1   7
ATOM      7  C   UNL     1      46.151   8.798  13.128  0.00  0.00    +0.000 C 
BRANCH   7  10
ATOM      8  O   UNL     1      48.688  10.010  12.908  0.00  0.00    +0.000 OA
ATOM      9  C   UNL     1      48.323   9.575  13.997  0.00  0.00    +0.000 C 
ATOM     10  N   UNL     1      47.138   8.910  14.170  0.00  0.00    +0.000 N 
ATOM     11  H   UNL     1      46.806   8.732  15.110  0.00  0.00    +0.000 HD
BRANCH   9  12
ATOM     12  C   UNL     1      49.172   9.699  15.189  0.00  0.00    +0.000 A 
ATOM     13  C   UNL     1      49.421  10.952  15.733  0.00  0.00    +0.000 A 
ATOM     14  S   UNL     1      50.434  10.913  17.105  0.00  0.00    +0.000 S 
ATOM     15  C   UNL     1      50.536   9.215  17.049  0.00  0.00    +0.000 A 
ATOM     16  N   UNL     1      51.243   8.525  17.985  0.00  0.00    +0.000 NA
ATOM     17  C   UNL     1      51.198   7.243  17.849  0.00  0.00    +0.000 A 
ATOM     18  N   UNL     1      50.519   6.585  16.857  0.00  0.00    +0.000 N 
ATOM     19  C   UNL     1      49.862   7.242  15.843  0.00  0.00    +0.000 A 
ATOM     20  O   UNL     1      49.396   6.625  14.891  0.00  0.00    +0.000 OA
ATOM     21  C   UNL     1      49.834   8.686  15.979  0.00  0.00    +0.000 A 
ATOM     22  H   UNL     1      50.554   5.580  16.785  0.00  0.00    +0.000 HD
ENDBRANCH   9  12
ENDBRANCH   7  10
ENDBRANCH   1   7
BRANCH   4  23
ATOM     23  C   UNL     1      44.939   3.172  12.113  0.00  0.00    +0.000 C 
BRANCH  23  24
ATOM     24  C   UNL     1      43.997   2.923  10.914  0.00  0.00    +0.000 C 
BRANCH  24  25
ATOM     25  O   UNL     1      42.630   3.056  11.340  0.00  0.00    +0.000 OA
ATOM     26  H   UNL     1      42.390   2.265  11.847  0.00  0.00    +0.000 HD
ENDBRANCH  24  25
BRANCH  24  27
ATOM     27  C   UNL     1      44.273   3.921   9.777  0.00  0.00    +0.000 C 
BRANCH  27  28
ATOM     28  C   UNL     1      45.238   3.345   8.766  0.00  0.00    +0.000 A 
ATOM     29  C   UNL     1      45.527   1.980   8.772  0.00  0.00    +0.000 A 
ATOM     30  C   UNL     1      46.487   1.488   7.895  0.00  0.00    +0.000 A 
ATOM     31  C   UNL     1      47.129   2.365   7.032  0.00  0.00    +0.000 A 
ATOM     32  C   UNL     1      46.773   3.703   7.078  0.00  0.00    +0.000 A 
ATOM     33  N   UNL     1      45.843   4.212   7.919  0.00  0.00    +0.000 NA
ENDBRANCH  27  28
ENDBRANCH  24  27
ENDBRANCH  23  24
ENDBRANCH   4  23
TORSDOF 8
ENDMDL
MODEL 6
REMARK VINA RESULT:    -7.010      3.212      8.107
REMARK INTER + INTRA:         -11.240
REMARK INTER:                  -9.684
REMARK INTRA:                  -1.556
REMARK UNBOUND:                -1.157
REMARK  Name = 
REMARK  8 active torsions:
REMARK  status: ('A' for Active; 'I' for Inactive)
REMARK    1  A    between atoms: C_2  and  C_21
REMARK    2  A    between atoms: N_3  and  C_4
REMARK    3  A    between atoms: C_4  and  C_5
REMARK    4  A    between atoms: C_8  and  C_9
REMARK    5  A    between atoms: C_9  and  C_10
REMARK    6  A    between atoms: C_10  and  O_11
REMARK    7  A    between atoms: C_10  and  C_12
REMARK    8  A    between atoms: C_12  and  C_13
REMARK                            x       y       z     vdW  Elec       q    Type
REMARK                         _______ _______ _______ _____ _____    ______ ____
ROOT
ATOM      1  C   UNL     1      48.055   8.067  13.991  0.00  0.00    +0.000 A 
ATOM      2  C   UNL     1      48.266   9.124  14.883  0.00  0.00    +0.000 A 
ATOM      3  C   UNL     1      48.774   8.885  16.162  0.00  0.00    +0.000 A 
ATOM      4  C   UNL     1      49.083   7.584  16.576  0.00  0.00    +0.000 A 
ATOM      5  C   UNL     1      48.913   6.530  15.668  0.00  0.00    +0.000 A 
ATOM      6  C   UNL     1      48.410   6.770  14.385  0.00  0.00    +0.000 A 
ENDROOT
BRANCH   1   7
ATOM      7  C   UNL     1      47.490   8.337  12.621  0.00  0.00    +0.000 C 
BRANCH   7  10
ATOM      8  O   UNL     1      44.956   8.099  11.408  0.00  0.00    +0.000 OA
ATOM      9  C   UNL     1      45.710   7.130  11.416  0.00  0.00    +0.000 C 
ATOM     10  N   UNL     1      46.926   7.143  12.047  0.00  0.00    +0.000 N 
ATOM     11  H   UNL     1      47.578   6.388  11.874  0.00  0.00    +0.000 HD
BRANCH   9  12
ATOM     12  C   UNL     1      45.326   5.861  10.784  0.00  0.00    +0.000 A 
ATOM     13  C   UNL     1      45.712   5.596   9.477  0.00  0.00    +0.000 A 
ATOM     14  S   UNL     1      45.172   4.084   8.899  0.00  0.00    +0.000 S 
ATOM     15  C   UNL     1      44.445   3.711  10.391  0.00  0.00    +0.000 A 
ATOM     16  N   UNL     1      43.820   2.518  10.587  0.00  0.00    +0.000 NA
ATOM     17  C   UNL     1      43.353   2.349  11.777  0.00  0.00    +0.000 A 
ATOM     18  N   UNL     1      43.445   3.267  12.790  0.00  0.00    +0.000 N 
ATOM     19  C   UNL     1      43.993   4.517  12.616  0.00  0.00    +0.000 A 
ATOM     20  O   UNL     1      43.920   5.365  13.499  0.00  0.00    +0.000 OA
ATOM     21  C   UNL     1      44.583   4.738  11.308  0.00  0.00    +0.000 A 
ATOM     22  H   UNL     1      43.027   3.088  13.690  0.00  0.00    +0.000 HD
ENDBRANCH   9  12
ENDBRANCH   7  10
ENDBRANCH   1   7
BRANCH   4  23
ATOM     23  C   UNL     1      49.578   7.323  17.984  0.00  0.00    +0.000 C 
BRANCH  23  24
ATOM     24  C   UNL     1      48.433   7.184  19.011  0.00  0.00    +0.000 C 
BRANCH  24  25
ATOM     25  O   UNL     1      47.169   7.364  18.350  0.00  0.00    +0.000 OA
ATOM     26  H   UNL     1      47.263   7.078  17.428  0.00  0.00    +0.000 HD
ENDBRANCH  24  25
BRANCH  24  27
ATOM     27  C   UNL     1      48.460   5.802  19.685  0.00  0.00    +0.000 C 
BRANCH  27  28
ATOM     28  C   UNL     1      48.309   4.694  18.668  0.00  0.00    +0.000 A 
ATOM     29  C   UNL     1      49.401   3.888  18.343  0.00  0.00    +0.000 A 
ATOM     30  C   UNL     1      49.263   2.936  17.338  0.00  0.00    +0.000 A 
ATOM     31  C   UNL     1      48.045   2.809  16.688  0.00  0.00    +0.000 A 
ATOM     32  C   UNL     1      47.006   3.637  17.081  0.00  0.00    +0.000 A 
ATOM     33  N   UNL     1      47.107   4.571  18.055  0.00  0.00    +0.000 NA
ENDBRANCH  27  28
ENDBRANCH  24  27
ENDBRANCH  23  24
ENDBRANCH   4  23
TORSDOF 8
ENDMDL
MODEL 7
REMARK VINA RESULT:    -6.924      2.879      8.266
REMARK INTER + INTRA:         -11.117
REMARK INTER:                  -9.819
REMARK INTRA:                  -1.298
REMARK UNBOUND:                -1.157
REMARK  Name = 
REMARK  8 active torsions:
REMARK  status: ('A' for Active; 'I' for Inactive)
REMARK    1  A    between atoms: C_2  and  C_21
REMARK    2  A    between atoms: N_3  and  C_4
REMARK    3  A    between atoms: C_4  and  C_5
REMARK    4  A    between atoms: C_8  and  C_9
REMARK    5  A    between atoms: C_9  and  C_10
REMARK    6  A    between atoms: C_10  and  O_11
REMARK    7  A    between atoms: C_10  and  C_12
REMARK    8  A    between atoms: C_12  and  C_13
REMARK                            x       y       z     vdW  Elec       q    Type
REMARK                         _______ _______ _______ _____ _____    ______ ____
ROOT
ATOM      1  C   UNL     1      48.173   8.137  13.096  0.00  0.00    +0.000 A 
ATOM      2  C   UNL     1      47.650   8.763  14.233  0.00  0.00    +0.000 A 
ATOM      3  C   UNL     1      48.403   8.854  15.405  0.00  0.00    +0.000 A 
ATOM      4  C   UNL     1      49.697   8.322  15.466  0.00  0.00    +0.000 A 
ATOM      5  C   UNL     1      50.238   7.734  14.314  0.00  0.00    +0.000 A 
ATOM      6  C   UNL     1      49.485   7.647  13.138  0.00  0.00    +0.000 A 
ENDROOT
BRANCH   1   7
ATOM      7  C   UNL     1      47.343   8.030  11.843  0.00  0.00    +0.000 C 
BRANCH   7  10
ATOM      8  O   UNL     1      44.559   7.618  11.664  0.00  0.00    +0.000 OA
ATOM      9  C   UNL     1      45.313   6.649  11.620  0.00  0.00    +0.000 C 
ATOM     10  N   UNL     1      46.670   6.760  11.773  0.00  0.00    +0.000 N 
ATOM     11  H   UNL     1      47.256   5.963  11.553  0.00  0.00    +0.000 HD
BRANCH   9  12
ATOM     12  C   UNL     1      44.793   5.286  11.451  0.00  0.00    +0.000 A 
ATOM     13  C   UNL     1      44.059   4.696  12.472  0.00  0.00    +0.000 A 
ATOM     14  S   UNL     1      43.543   3.110  12.113  0.00  0.00    +0.000 S 
ATOM     15  C   UNL     1      44.241   3.175  10.562  0.00  0.00    +0.000 A 
ATOM     16  N   UNL     1      44.131   2.127   9.701  0.00  0.00    +0.000 NA
ATOM     17  C   UNL     1      44.667   2.328   8.546  0.00  0.00    +0.000 A 
ATOM     18  N   UNL     1      45.311   3.479   8.172  0.00  0.00    +0.000 N 
ATOM     19  C   UNL     1      45.518   4.530   9.035  0.00  0.00    +0.000 A 
ATOM     20  O   UNL     1      46.229   5.477   8.715  0.00  0.00    +0.000 OA
ATOM     21  C   UNL     1      44.887   4.377  10.333  0.00  0.00    +0.000 A 
ATOM     22  H   UNL     1      45.741   3.560   7.264  0.00  0.00    +0.000 HD
ENDBRANCH   9  12
ENDBRANCH   7  10
ENDBRANCH   1   7
BRANCH   4  23
ATOM     23  C   UNL     1      50.488   8.371  16.757  0.00  0.00    +0.000 C 
BRANCH  23  24
ATOM     24  C   UNL     1      50.168   7.195  17.707  0.00  0.00    +0.000 C 
BRANCH  24  25
ATOM     25  O   UNL     1      48.780   7.242  18.080  0.00  0.00    +0.000 OA
ATOM     26  H   UNL     1      48.267   7.538  17.312  0.00  0.00    +0.000 HD
ENDBRANCH  24  25
BRANCH  24  27
ATOM     27  C   UNL     1      50.467   5.844  17.035  0.00  0.00    +0.000 C 
BRANCH  27  28
ATOM     28  C   UNL     1      49.294   4.899  17.164  0.00  0.00    +0.000 A 
ATOM     29  C   UNL     1      49.278   3.938  18.175  0.00  0.00    +0.000 A 
ATOM     30  C   UNL     1      48.234   3.020  18.219  0.00  0.00    +0.000 A 
ATOM     31  C   UNL     1      47.234   3.085  17.260  0.00  0.00    +0.000 A 
ATOM     32  C   UNL     1      47.316   4.081  16.299  0.00  0.00    +0.000 A 
ATOM     33  N   UNL     1      48.316   4.989  16.230  0.00  0.00    +0.000 NA
ENDBRANCH  27  28
ENDBRANCH  24  27
ENDBRANCH  23  24
ENDBRANCH   4  23
TORSDOF 8
ENDMDL
MODEL 8
REMARK VINA RESULT:    -6.550      3.647      8.331
REMARK INTER + INTRA:         -10.579
REMARK INTER:                  -8.726
REMARK INTRA:                  -1.853
REMARK UNBOUND:                -1.157
REMARK  Name = 
REMARK  8 active torsions:
REMARK  status: ('A' for Active; 'I' for Inactive)
REMARK    1  A    between atoms: C_2  and  C_21
REMARK    2  A    between atoms: N_3  and  C_4
REMARK    3  A    between atoms: C_4  and  C_5
REMARK    4  A    between atoms: C_8  and  C_9
REMARK    5  A    between atoms: C_9  and  C_10
REMARK    6  A    between atoms: C_10  and  O_11
REMARK    7  A    between atoms: C_10  and  C_12
REMARK    8  A    between atoms: C_12  and  C_13
REMARK                            x       y       z     vdW  Elec       q    Type
REMARK                         _______ _______ _______ _____ _____    ______ ____
ROOT
ATOM      1  C   UNL     1      48.690   8.401  15.777  0.00  0.00    +0.000 A 
ATOM      2  C   UNL     1      48.109   8.915  16.942  0.00  0.00    +0.000 A 
ATOM      3  C   UNL     1      48.584   8.538  18.200  0.00  0.00    +0.000 A 
ATOM      4  C   UNL     1      49.652   7.640  18.321  0.00  0.00    +0.000 A 
ATOM      5  C   UNL     1      50.263   7.159  17.154  0.00  0.00    +0.000 A 
ATOM      6  C   UNL     1      49.790   7.541  15.894  0.00  0.00    +0.000 A 
ENDROOT
BRANCH   1   7
ATOM      7  C   UNL     1      48.156   8.803  14.427  0.00  0.00    +0.000 C 
BRANCH   7  10
ATOM      8  O   UNL     1      48.690   6.660  12.674  0.00  0.00    +0.000 OA
ATOM      9  C   UNL     1      47.560   6.787  13.139  0.00  0.00    +0.000 C 
ATOM     10  N   UNL     1      47.203   7.841  13.938  0.00  0.00    +0.000 N 
ATOM     11  H   UNL     1      46.321   7.805  14.435  0.00  0.00    +0.000 HD
BRANCH   9  12
ATOM     12  C   UNL     1      46.492   5.831  12.818  0.00  0.00    +0.000 A 
ATOM     13  C   UNL     1      46.655   4.486  13.123  0.00  0.00    +0.000 A 
ATOM     14  S   UNL     1      45.326   3.517  12.673  0.00  0.00    +0.000 S 
ATOM     15  C   UNL     1      44.465   4.869  12.099  0.00  0.00    +0.000 A 
ATOM     16  N   UNL     1      43.208   4.736  11.597  0.00  0.00    +0.000 NA
ATOM     17  C   UNL     1      42.656   5.846  11.240  0.00  0.00    +0.000 A 
ATOM     18  N   UNL     1      43.249   7.078  11.330  0.00  0.00    +0.000 N 
ATOM     19  C   UNL     1      44.547   7.251  11.752  0.00  0.00    +0.000 A 
ATOM     20  O   UNL     1      45.094   8.346  11.675  0.00  0.00    +0.000 OA
ATOM     21  C   UNL     1      45.195   6.039  12.218  0.00  0.00    +0.000 A 
ATOM     22  H   UNL     1      42.777   7.905  10.999  0.00  0.00    +0.000 HD
ENDBRANCH   9  12
ENDBRANCH   7  10
ENDBRANCH   1   7
BRANCH   4  23
ATOM     23  C   UNL     1      50.126   7.189  19.687  0.00  0.00    +0.000 C 
BRANCH  23  24
ATOM     24  C   UNL     1      50.304   5.658  19.789  0.00  0.00    +0.000 C 
BRANCH  24  25
ATOM     25  O   UNL     1      51.146   5.345  20.913  0.00  0.00    +0.000 OA
ATOM     26  H   UNL     1      52.071   5.414  20.630  0.00  0.00    +0.000 HD
ENDBRANCH  24  25
BRANCH  24  27
ATOM     27  C   UNL     1      48.948   4.953  19.961  0.00  0.00    +0.000 C 
BRANCH  27  28
ATOM     28  C   UNL     1      48.524   4.264  18.684  0.00  0.00    +0.000 A 
ATOM     29  C   UNL     1      49.289   3.218  18.165  0.00  0.00    +0.000 A 
ATOM     30  C   UNL     1      48.931   2.662  16.942  0.00  0.00    +0.000 A 
ATOM     31  C   UNL     1      47.822   3.156  16.271  0.00  0.00    +0.000 A 
ATOM     32  C   UNL     1      47.107   4.185  16.862  0.00  0.00    +0.000 A 
ATOM     33  N   UNL     1      47.428   4.747  18.051  0.00  0.00    +0.000 NA
ENDBRANCH  27  28
ENDBRANCH  24  27
ENDBRANCH  23  24
ENDBRANCH   4  23
TORSDOF 8
ENDMDL
MODEL 9
REMARK VINA RESULT:    -6.526      5.485      7.548
REMARK INTER + INTRA:         -10.544
REMARK INTER:                  -9.261
REMARK INTRA:                  -1.283
REMARK UNBOUND:                -1.157
REMARK  Name = 
REMARK  8 active torsions:
REMARK  status: ('A' for Active; 'I' for Inactive)
REMARK    1  A    between atoms: C_2  and  C_21
REMARK    2  A    between atoms: N_3  and  C_4
REMARK    3  A    between atoms: C_4  and  C_5
REMARK    4  A    between atoms: C_8  and  C_9
REMARK    5  A    between atoms: C_9  and  C_10
REMARK    6  A    between atoms: C_10  and  O_11
REMARK    7  A    between atoms: C_10  and  C_12
REMARK    8  A    between atoms: C_12  and  C_13
REMARK                            x       y       z     vdW  Elec       q    Type
REMARK                         _______ _______ _______ _____ _____    ______ ____
ROOT
ATOM      1  C   UNL     1      49.973   8.534  11.906  0.00  0.00    +0.000 A 
ATOM      2  C   UNL     1      49.500   7.246  12.185  0.00  0.00    +0.000 A 
ATOM      3  C   UNL     1      48.151   7.031  12.476  0.00  0.00    +0.000 A 
ATOM      4  C   UNL     1      47.245   8.098  12.493  0.00  0.00    +0.000 A 
ATOM      5  C   UNL     1      47.709   9.381  12.171  0.00  0.00    +0.000 A 
ATOM      6  C   UNL     1      49.060   9.596  11.874  0.00  0.00    +0.000 A 
ENDROOT
BRANCH   1   7
ATOM      7  C   UNL     1      51.434   8.754  11.611  0.00  0.00    +0.000 C 
BRANCH   7  10
ATOM      8  O   UNL     1      53.604   9.684  10.070  0.00  0.00    +0.000 OA
ATOM      9  C   UNL     1      52.872   8.811   9.610  0.00  0.00    +0.000 C 
ATOM     10  N   UNL     1      51.758   8.358  10.265  0.00  0.00    +0.000 N 
ATOM     11  H   UNL     1      51.295   7.522   9.930  0.00  0.00    +0.000 HD
BRANCH   9  12
ATOM     12  C   UNL     1      53.123   8.226   8.286  0.00  0.00    +0.000 A 
ATOM     13  C   UNL     1      53.105   9.037   7.159  0.00  0.00    +0.000 A 
ATOM     14  S   UNL     1      53.403   8.194   5.706  0.00  0.00    +0.000 S 
ATOM     15  C   UNL     1      53.614   6.725   6.538  0.00  0.00    +0.000 A 
ATOM     16  N   UNL     1      53.932   5.582   5.870  0.00  0.00    +0.000 NA
ATOM     17  C   UNL     1      54.107   4.553   6.628  0.00  0.00    +0.000 A 
ATOM     18  N   UNL     1      53.985   4.558   7.993  0.00  0.00    +0.000 N 
ATOM     19  C   UNL     1      53.584   5.666   8.701  0.00  0.00    +0.000 A 
ATOM     20  O   UNL     1      53.338   5.593   9.901  0.00  0.00    +0.000 OA
ATOM     21  C   UNL     1      53.428   6.867   7.902  0.00  0.00    +0.000 A 
ATOM     22  H   UNL     1      54.099   3.709   8.525  0.00  0.00    +0.000 HD
ENDBRANCH   9  12
ENDBRANCH   7  10
ENDBRANCH   1   7
BRANCH   4  23
ATOM     23  C   UNL     1      45.795   7.869  12.867  0.00  0.00    +0.000 C 
BRANCH  23  24
ATOM     24  C   UNL     1      45.270   6.484  12.429  0.00  0.00    +0.000 C 
BRANCH  24  25
ATOM     25  O   UNL     1      44.108   6.142  13.204  0.00  0.00    +0.000 OA
ATOM     26  H   UNL     1      44.319   6.268  14.142  0.00  0.00    +0.000 HD
ENDBRANCH  24  25
BRANCH  24  27
ATOM     27  C   UNL     1      44.903   6.478  10.935  0.00  0.00    +0.000 C 
BRANCH  27  28
ATOM     28  C   UNL     1      44.860   5.069  10.388  0.00  0.00    +0.000 A 
ATOM     29  C   UNL     1      45.421   4.785   9.143  0.00  0.00    +0.000 A 
ATOM     30  C   UNL     1      45.289   3.503   8.619  0.00  0.00    +0.000 A 
ATOM     31  C   UNL     1      44.609   2.540   9.349  0.00  0.00    +0.000 A 
ATOM     32  C   UNL     1      44.096   2.899  10.585  0.00  0.00    +0.000 A 
ATOM     33  N   UNL     1      44.208   4.136  11.122  0.00  0.00    +0.000 NA
ENDBRANCH  27  28
ENDBRANCH  24  27
ENDBRANCH  23  24
ENDBRANCH   4  23
TORSDOF 8
ENDMDL
