MODEL 1
REMARK VINA RESULT:    -7.959      0.000      0.000
REMARK INTER + INTRA:         -11.408
REMARK INTER:                 -10.750
REMARK INTRA:                  -0.658
REMARK UNBOUND:                -0.658
REMARK  Name = 
REMARK  7 active torsions:
REMARK  status: ('A' for Active; 'I' for Inactive)
REMARK    1  A    between atoms: C_1  and  N_2
REMARK    2  A    between atoms: N_2  and  C_3
REMARK    3  A    between atoms: C_3  and  C_4
REMARK    4  A    between atoms: C_7  and  C_8
REMARK    5  A    between atoms: C_8  and  O_9
REMARK    6  A    between atoms: O_9  and  C_10
REMARK    7  A    between atoms: C_13  and  C_14
REMARK                            x       y       z     vdW  Elec       q    Type
REMARK                         _______ _______ _______ _____ _____    ______ ____
ROOT
ATOM      1  O   UNL     1      43.428   3.485  10.369  0.00  0.00    +0.000 OA
ENDROOT
BRANCH   1   2
ATOM      2  C   UNL     1      44.400   3.120   9.479  0.00  0.00    +0.000 A 
ATOM      3  C   UNL     1      44.894   1.829   9.282  0.00  0.00    +0.000 A 
ATOM      4  C   UNL     1      45.892   1.598   8.329  0.00  0.00    +0.000 A 
ATOM      5  C   UNL     1      46.403   2.651   7.559  0.00  0.00    +0.000 A 
ATOM      6  C   UNL     1      45.914   3.944   7.758  0.00  0.00    +0.000 A 
ATOM      7  C   UNL     1      44.921   4.172   8.718  0.00  0.00    +0.000 A 
BRANCH   5   8
ATOM      8  C   UNL     1      47.486   2.348   6.586  0.00  0.00    +0.000 C 
ATOM      9  N   UNL     1      47.502   3.049   5.413  0.00  0.00    +0.000 N 
ATOM     10  O   UNL     1      48.321   1.482   6.810  0.00  0.00    +0.000 OA
ATOM     11  H   UNL     1      46.756   3.658   5.112  0.00  0.00    +0.000 HD
ATOM     12  H   UNL     1      48.201   2.778   4.733  0.00  0.00    +0.000 HD
ENDBRANCH   5   8
ENDBRANCH   1   2
BRANCH   1  13
ATOM     13  C   UNL     1      43.609   3.088  11.730  0.00  0.00    +0.000 C 
BRANCH  13  17
ATOM     14  C   UNL     1      46.719   5.431  13.504  0.00  0.00    +0.000 A 
ATOM     15  C   UNL     1      45.622   6.074  12.921  0.00  0.00    +0.000 A 
ATOM     16  C   UNL     1      44.603   5.319  12.347  0.00  0.00    +0.000 A 
ATOM     17  C   UNL     1      44.699   3.930  12.353  0.00  0.00    +0.000 A 
ATOM     18  N   UNL     1      45.759   3.286  12.903  0.00  0.00    +0.000 NA
ATOM     19  C   UNL     1      46.734   4.042  13.459  0.00  0.00    +0.000 A 
BRANCH  14  20
ATOM     20  C   UNL     1      47.849   6.205  14.131  0.00  0.00    +0.000 C 
BRANCH  20  22
ATOM     21  C   UNL     1      49.258   7.618  12.783  0.00  0.00    +0.000 C 
ATOM     22  N   UNL     1      49.014   6.262  13.249  0.00  0.00    +0.000 NA
ATOM     23  H   UNL     1      49.835   5.934  13.756  0.00  0.00    +0.000 HD
ENDBRANCH  20  22
ENDBRANCH  14  20
ENDBRANCH  13  17
ENDBRANCH   1  13
TORSDOF 6
ENDMDL
MODEL 2
REMARK VINA RESULT:    -7.424      1.497      1.949
REMARK INTER + INTRA:         -10.686
REMARK INTER:                 -10.177
REMARK INTRA:                  -0.508
REMARK UNBOUND:                -0.658
REMARK  Name = 
REMARK  7 active torsions:
REMARK  status: ('A' for Active; 'I' for Inactive)
REMARK    1  A    between atoms: C_1  and  N_2
REMARK    2  A    between atoms: N_2  and  C_3
REMARK    3  A    between atoms: C_3  and  C_4
REMARK    4  A    between atoms: C_7  and  C_8
REMARK    5  A    between atoms: C_8  and  O_9
REMARK    6  A    between atoms: O_9  and  C_10
REMARK    7  A    between atoms: C_13  and  C_14
REMARK                            x       y       z     vdW  Elec       q    Type
REMARK                         _______ _______ _______ _____ _____    ______ ____
ROOT
ATOM      1  O   UNL     1      43.517   4.055   9.967  0.00  0.00    +0.000 OA
ENDROOT
BRANCH   1   2
ATOM      2  C   UNL     1      44.510   3.469   9.231  0.00  0.00    +0.000 A 
ATOM      3  C   UNL     1      44.861   2.118   9.250  0.00  0.00    +0.000 A 
ATOM      4  C   UNL     1      45.901   1.652   8.438  0.00  0.00    +0.000 A 
ATOM      5  C   UNL     1      46.596   2.528   7.594  0.00  0.00    +0.000 A 
ATOM      6  C   UNL     1      46.249   3.881   7.576  0.00  0.00    +0.000 A 
ATOM      7  C   UNL     1      45.213   4.344   8.397  0.00  0.00    +0.000 A 
BRANCH   5   8
ATOM      8  C   UNL     1      47.712   1.980   6.779  0.00  0.00    +0.000 C 
ATOM      9  N   UNL     1      48.651   2.858   6.314  0.00  0.00    +0.000 N 
ATOM     10  O   UNL     1      47.779   0.788   6.507  0.00  0.00    +0.000 OA
ATOM     11  H   UNL     1      48.562   3.861   6.376  0.00  0.00    +0.000 HD
ATOM     12  H   UNL     1      49.361   2.478   5.700  0.00  0.00    +0.000 HD
ENDBRANCH   5   8
ENDBRANCH   1   2
BRANCH   1  13
ATOM     13  C   UNL     1      43.764   5.373  10.460  0.00  0.00    +0.000 C 
BRANCH  13  17
ATOM     14  C   UNL     1      46.527   5.133  13.718  0.00  0.00    +0.000 A 
ATOM     15  C   UNL     1      46.818   5.962  12.629  0.00  0.00    +0.000 A 
ATOM     16  C   UNL     1      45.922   6.050  11.569  0.00  0.00    +0.000 A 
ATOM     17  C   UNL     1      44.751   5.299  11.604  0.00  0.00    +0.000 A 
ATOM     18  N   UNL     1      44.452   4.481  12.644  0.00  0.00    +0.000 NA
ATOM     19  C   UNL     1      45.337   4.417  13.666  0.00  0.00    +0.000 A 
BRANCH  14  20
ATOM     20  C   UNL     1      47.469   5.001  14.886  0.00  0.00    +0.000 C 
BRANCH  20  22
ATOM     21  C   UNL     1      47.374   3.682  16.899  0.00  0.00    +0.000 C 
ATOM     22  N   UNL     1      47.440   3.651  15.447  0.00  0.00    +0.000 NA
ATOM     23  H   UNL     1      46.623   3.157  15.090  0.00  0.00    +0.000 HD
ENDBRANCH  20  22
ENDBRANCH  14  20
ENDBRANCH  13  17
ENDBRANCH   1  13
TORSDOF 6
ENDMDL
MODEL 3
REMARK VINA RESULT:    -6.810      1.955      2.689
REMARK INTER + INTRA:          -9.856
REMARK INTER:                  -9.285
REMARK INTRA:                  -0.571
REMARK UNBOUND:                -0.658
REMARK  Name = 
REMARK  7 active torsions:
REMARK  status: ('A' for Active; 'I' for Inactive)
REMARK    1  A    between atoms: C_1  and  N_2
REMARK    2  A    between atoms: N_2  and  C_3
REMARK    3  A    between atoms: C_3  and  C_4
REMARK    4  A    between atoms: C_7  and  C_8
REMARK    5  A    between atoms: C_8  and  O_9
REMARK    6  A    between atoms: O_9  and  C_10
REMARK    7  A    between atoms: C_13  and  C_14
REMARK                            x       y       z     vdW  Elec       q    Type
REMARK                         _______ _______ _______ _____ _____    ______ ____
ROOT
ATOM      1  O   UNL     1      44.028   4.971   9.979  0.00  0.00    +0.000 OA
ENDROOT
BRANCH   1   2
ATOM      2  C   UNL     1      44.801   4.071   9.299  0.00  0.00    +0.000 A 
ATOM      3  C   UNL     1      45.768   4.376   8.339  0.00  0.00    +0.000 A 
ATOM      4  C   UNL     1      46.492   3.349   7.723  0.00  0.00    +0.000 A 
ATOM      5  C   UNL     1      46.264   2.009   8.063  0.00  0.00    +0.000 A 
ATOM      6  C   UNL     1      45.294   1.702   9.020  0.00  0.00    +0.000 A 
ATOM      7  C   UNL     1      44.566   2.732   9.629  0.00  0.00    +0.000 A 
BRANCH   5   8
ATOM      8  C   UNL     1      47.041   0.962   7.351  0.00  0.00    +0.000 C 
ATOM      9  N   UNL     1      46.768  -0.345   7.645  0.00  0.00    +0.000 N 
ATOM     10  O   UNL     1      47.918   1.252   6.547  0.00  0.00    +0.000 OA
ATOM     11  H   UNL     1      46.172  -0.637   8.405  0.00  0.00    +0.000 HD
ATOM     12  H   UNL     1      47.358  -1.041   7.206  0.00  0.00    +0.000 HD
ENDBRANCH   5   8
ENDBRANCH   1   2
BRANCH   1  13
ATOM     13  C   UNL     1      44.694   6.092  10.563  0.00  0.00    +0.000 C 
BRANCH  13  17
ATOM     14  C   UNL     1      46.741   4.860  14.114  0.00  0.00    +0.000 A 
ATOM     15  C   UNL     1      45.427   4.432  13.894  0.00  0.00    +0.000 A 
ATOM     16  C   UNL     1      44.757   4.824  12.739  0.00  0.00    +0.000 A 
ATOM     17  C   UNL     1      45.404   5.648  11.823  0.00  0.00    +0.000 A 
ATOM     18  N   UNL     1      46.674   6.083  12.020  0.00  0.00    +0.000 NA
ATOM     19  C   UNL     1      47.306   5.684  13.148  0.00  0.00    +0.000 A 
BRANCH  14  20
ATOM     20  C   UNL     1      47.504   4.467  15.351  0.00  0.00    +0.000 C 
BRANCH  20  22
ATOM     21  C   UNL     1      47.304   4.154  17.731  0.00  0.00    +0.000 C 
ATOM     22  N   UNL     1      46.603   4.146  16.457  0.00  0.00    +0.000 NA
ATOM     23  H   UNL     1      45.852   4.835  16.489  0.00  0.00    +0.000 HD
ENDBRANCH  20  22
ENDBRANCH  14  20
ENDBRANCH  13  17
ENDBRANCH   1  13
TORSDOF 6
ENDMDL
MODEL 4
REMARK VINA RESULT:    -6.788      2.239      6.400
REMARK INTER + INTRA:          -9.826
REMARK INTER:                  -9.606
REMARK INTRA:                  -0.220
REMARK UNBOUND:                -0.658
REMARK  Name = 
REMARK  7 active torsions:
REMARK  status: ('A' for Active; 'I' for Inactive)
REMARK    1  A    between atoms: C_1  and  N_2
REMARK    2  A    between atoms: N_2  and  C_3
REMARK    3  A    between atoms: C_3  and  C_4
REMARK    4  A    between atoms: C_7  and  C_8
REMARK    5  A    between atoms: C_8  and  O_9
REMARK    6  A    between atoms: O_9  and  C_10
REMARK    7  A    between atoms: C_13  and  C_14
REMARK                            x       y       z     vdW  Elec       q    Type
REMARK                         _______ _______ _______ _____ _____    ______ ____
ROOT
ATOM      1  O   UNL     1      44.023   4.590  11.335  0.00  0.00    +0.000 OA
ENDROOT
BRANCH   1   2
ATOM      2  C   UNL     1      45.167   5.140  11.845  0.00  0.00    +0.000 A 
ATOM      3  C   UNL     1      45.807   6.290  11.380  0.00  0.00    +0.000 A 
ATOM      4  C   UNL     1      46.974   6.744  12.004  0.00  0.00    +0.000 A 
ATOM      5  C   UNL     1      47.510   6.060  13.102  0.00  0.00    +0.000 A 
ATOM      6  C   UNL     1      46.874   4.907  13.567  0.00  0.00    +0.000 A 
ATOM      7  C   UNL     1      45.711   4.451  12.935  0.00  0.00    +0.000 A 
BRANCH   5   8
ATOM      8  C   UNL     1      48.770   6.572  13.702  0.00  0.00    +0.000 C 
ATOM      9  N   UNL     1      49.679   7.162  12.868  0.00  0.00    +0.000 N 
ATOM     10  O   UNL     1      49.005   6.449  14.897  0.00  0.00    +0.000 OA
ATOM     11  H   UNL     1      49.608   7.151  11.862  0.00  0.00    +0.000 HD
ATOM     12  H   UNL     1      50.561   7.436  13.282  0.00  0.00    +0.000 HD
ENDBRANCH   5   8
ENDBRANCH   1   2
BRANCH   1  13
ATOM     13  C   UNL     1      43.805   4.730   9.930  0.00  0.00    +0.000 C 
BRANCH  13  17
ATOM     14  C   UNL     1      46.389   2.058   7.809  0.00  0.00    +0.000 A 
ATOM     15  C   UNL     1      45.452   1.538   8.710  0.00  0.00    +0.000 A 
ATOM     16  C   UNL     1      44.605   2.400   9.398  0.00  0.00    +0.000 A 
ATOM     17  C   UNL     1      44.711   3.772   9.188  0.00  0.00    +0.000 A 
ATOM     18  N   UNL     1      45.619   4.299   8.328  0.00  0.00    +0.000 NA
ATOM     19  C   UNL     1      46.428   3.439   7.666  0.00  0.00    +0.000 A 
BRANCH  14  20
ATOM     20  C   UNL     1      47.332   1.165   7.046  0.00  0.00    +0.000 C 
BRANCH  20  22
ATOM     21  C   UNL     1      47.808   2.373   5.017  0.00  0.00    +0.000 C 
ATOM     22  N   UNL     1      48.325   1.944   6.307  0.00  0.00    +0.000 NA
ATOM     23  H   UNL     1      48.579   2.767   6.851  0.00  0.00    +0.000 HD
ENDBRANCH  20  22
ENDBRANCH  14  20
ENDBRANCH  13  17
ENDBRANCH   1  13
TORSDOF 6
ENDMDL
MODEL 5
REMARK VINA RESULT:    -5.919      4.476      6.406
REMARK INTER + INTRA:          -8.653
REMARK INTER:                  -8.232
REMARK INTRA:                  -0.422
REMARK UNBOUND:                -0.658
REMARK  Name = 
REMARK  7 active torsions:
REMARK  status: ('A' for Active; 'I' for Inactive)
REMARK    1  A    between atoms: C_1  and  N_2
REMARK    2  A    between atoms: N_2  and  C_3
REMARK    3  A    between atoms: C_3  and  C_4
REMARK    4  A    between atoms: C_7  and  C_8
REMARK    5  A    between atoms: C_8  and  O_9
REMARK    6  A    between atoms: O_9  and  C_10
REMARK    7  A    between atoms: C_13  and  C_14
REMARK                            x       y       z     vdW  Elec       q    Type
REMARK                         _______ _______ _______ _____ _____    ______ ____
ROOT
ATOM      1  O   UNL     1      47.713   5.103  14.910  0.00  0.00    +0.000 OA
ENDROOT
BRANCH   1   2
ATOM      2  C   UNL     1      46.790   4.938  13.914  0.00  0.00    +0.000 A 
ATOM      3  C   UNL     1      46.087   5.954  13.266  0.00  0.00    +0.000 A 
ATOM      4  C   UNL     1      45.171   5.638  12.256  0.00  0.00    +0.000 A 
ATOM      5  C   UNL     1      44.953   4.307  11.879  0.00  0.00    +0.000 A 
ATOM      6  C   UNL     1      45.652   3.288  12.529  0.00  0.00    +0.000 A 
ATOM      7  C   UNL     1      46.562   3.607  13.545  0.00  0.00    +0.000 A 
BRANCH   5   8
ATOM      8  C   UNL     1      43.943   4.033  10.823  0.00  0.00    +0.000 C 
ATOM      9  N   UNL     1      44.004   4.773   9.676  0.00  0.00    +0.000 N 
ATOM     10  O   UNL     1      43.066   3.193  10.980  0.00  0.00    +0.000 OA
ATOM     11  H   UNL     1      44.602   5.577   9.557  0.00  0.00    +0.000 HD
ATOM     12  H   UNL     1      43.264   4.624   9.001  0.00  0.00    +0.000 HD
ENDBRANCH   5   8
ENDBRANCH   1   2
BRANCH   1  13
ATOM     13  C   UNL     1      47.486   4.399  16.132  0.00  0.00    +0.000 C 
BRANCH  13  17
ATOM     14  C   UNL     1      51.231   2.962  17.621  0.00  0.00    +0.000 A 
ATOM     15  C   UNL     1      50.237   2.045  17.261  0.00  0.00    +0.000 A 
ATOM     16  C   UNL     1      49.019   2.504  16.770  0.00  0.00    +0.000 A 
ATOM     17  C   UNL     1      48.804   3.875  16.657  0.00  0.00    +0.000 A 
ATOM     18  N   UNL     1      49.749   4.782  17.010  0.00  0.00    +0.000 NA
ATOM     19  C   UNL     1      50.927   4.310  17.479  0.00  0.00    +0.000 A 
BRANCH  14  20
ATOM     20  C   UNL     1      52.563   2.513  18.163  0.00  0.00    +0.000 C 
BRANCH  20  22
ATOM     21  C   UNL     1      53.592   0.472  17.403  0.00  0.00    +0.000 C 
ATOM     22  N   UNL     1      52.618   1.059  18.310  0.00  0.00    +0.000 NA
ATOM     23  H   UNL     1      52.879   0.828  19.268  0.00  0.00    +0.000 HD
ENDBRANCH  20  22
ENDBRANCH  14  20
ENDBRANCH  13  17
ENDBRANCH   1  13
TORSDOF 6
ENDMDL
MODEL 6
REMARK VINA RESULT:    -5.806      4.496      8.469
REMARK INTER + INTRA:          -8.501
REMARK INTER:                  -8.125
REMARK INTRA:                  -0.376
REMARK UNBOUND:                -0.658
REMARK  Name = 
REMARK  7 active torsions:
REMARK  status: ('A' for Active; 'I' for Inactive)
REMARK    1  A    between atoms: C_1  and  N_2
REMARK    2  A    between atoms: N_2  and  C_3
REMARK    3  A    between atoms: C_3  and  C_4
REMARK    4  A    between atoms: C_7  and  C_8
REMARK    5  A    between atoms: C_8  and  O_9
REMARK    6  A    between atoms: O_9  and  C_10
REMARK    7  A    between atoms: C_13  and  C_14
REMARK                            x       y       z     vdW  Elec       q    Type
REMARK                         _______ _______ _______ _____ _____    ______ ____
ROOT
ATOM      1  O   UNL     1      47.456   4.056  14.839  0.00  0.00    +0.000 OA
ENDROOT
BRANCH   1   2
ATOM      2  C   UNL     1      47.847   4.050  16.150  0.00  0.00    +0.000 A 
ATOM      3  C   UNL     1      47.755   2.972  17.032  0.00  0.00    +0.000 A 
ATOM      4  C   UNL     1      48.201   3.107  18.352  0.00  0.00    +0.000 A 
ATOM      5  C   UNL     1      48.748   4.315  18.802  0.00  0.00    +0.000 A 
ATOM      6  C   UNL     1      48.837   5.396  17.922  0.00  0.00    +0.000 A 
ATOM      7  C   UNL     1      48.382   5.260  16.605  0.00  0.00    +0.000 A 
BRANCH   5   8
ATOM      8  C   UNL     1      49.173   4.407  20.224  0.00  0.00    +0.000 C 
ATOM      9  N   UNL     1      50.507   4.556  20.481  0.00  0.00    +0.000 N 
ATOM     10  O   UNL     1      48.364   4.323  21.139  0.00  0.00    +0.000 OA
ATOM     11  H   UNL     1      51.227   4.475  19.780  0.00  0.00    +0.000 HD
ATOM     12  H   UNL     1      50.784   4.542  21.455  0.00  0.00    +0.000 HD
ENDBRANCH   5   8
ENDBRANCH   1   2
BRANCH   1  13
ATOM     13  C   UNL     1      46.784   5.224  14.365  0.00  0.00    +0.000 C 
BRANCH  13  17
ATOM     14  C   UNL     1      44.873   4.297  10.651  0.00  0.00    +0.000 A 
ATOM     15  C   UNL     1      45.498   5.539  10.811  0.00  0.00    +0.000 A 
ATOM     16  C   UNL     1      46.127   5.845  12.014  0.00  0.00    +0.000 A 
ATOM     17  C   UNL     1      46.113   4.912  13.046  0.00  0.00    +0.000 A 
ATOM     18  N   UNL     1      45.504   3.707  12.917  0.00  0.00    +0.000 NA
ATOM     19  C   UNL     1      44.904   3.430  11.736  0.00  0.00    +0.000 A 
BRANCH  14  20
ATOM     20  C   UNL     1      44.174   3.923   9.370  0.00  0.00    +0.000 C 
BRANCH  20  22
ATOM     21  C   UNL     1      45.854   3.440   7.713  0.00  0.00    +0.000 C 
ATOM     22  N   UNL     1      44.897   4.421   8.201  0.00  0.00    +0.000 NA
ATOM     23  H   UNL     1      44.231   4.629   7.458  0.00  0.00    +0.000 HD
ENDBRANCH  20  22
ENDBRANCH  14  20
ENDBRANCH  13  17
ENDBRANCH   1  13
TORSDOF 6
ENDMDL
MODEL 7
REMARK VINA RESULT:    -5.709      4.254      8.239
REMARK INTER + INTRA:          -8.370
REMARK INTER:                  -8.020
REMARK INTRA:                  -0.350
REMARK UNBOUND:                -0.658
REMARK  Name = 
REMARK  7 active torsions:
REMARK  status: ('A' for Active; 'I' for Inactive)
REMARK    1  A    between atoms: C_1  and  N_2
REMARK    2  A    between atoms: N_2  and  C_3
REMARK    3  A    between atoms: C_3  and  C_4
REMARK    4  A    between atoms: C_7  and  C_8
REMARK    5  A    between atoms: C_8  and  O_9
REMARK    6  A    between atoms: O_9  and  C_10
REMARK    7  A    between atoms: C_13  and  C_14
REMARK                            x       y       z     vdW  Elec       q    Type
REMARK                         _______ _______ _______ _____ _____    ______ ____
ROOT
ATOM      1  O   UNL     1      46.850   3.860  14.470  0.00  0.00    +0.000 OA
ENDROOT
BRANCH   1   2
ATOM      2  C   UNL     1      47.463   4.085  15.672  0.00  0.00    +0.000 A 
ATOM      3  C   UNL     1      47.973   5.304  16.120  0.00  0.00    +0.000 A 
ATOM      4  C   UNL     1      48.574   5.392  17.381  0.00  0.00    +0.000 A 
ATOM      5  C   UNL     1      48.665   4.266  18.209  0.00  0.00    +0.000 A 
ATOM      6  C   UNL     1      48.160   3.043  17.761  0.00  0.00    +0.000 A 
ATOM      7  C   UNL     1      47.567   2.958  16.495  0.00  0.00    +0.000 A 
BRANCH   5   8
ATOM      8  C   UNL     1      49.344   4.414  19.523  0.00  0.00    +0.000 C 
ATOM      9  N   UNL     1      48.655   4.037  20.642  0.00  0.00    +0.000 N 
ATOM     10  O   UNL     1      50.471   4.883  19.611  0.00  0.00    +0.000 OA
ATOM     11  H   UNL     1      47.676   3.793  20.643  0.00  0.00    +0.000 HD
ATOM     12  H   UNL     1      49.104   4.215  21.532  0.00  0.00    +0.000 HD
ENDBRANCH   5   8
ENDBRANCH   1   2
BRANCH   1  13
ATOM     13  C   UNL     1      45.950   4.865  14.000  0.00  0.00    +0.000 C 
BRANCH  13  17
ATOM     14  C   UNL     1      45.064   4.181   9.870  0.00  0.00    +0.000 A 
ATOM     15  C   UNL     1      44.904   3.139  10.789  0.00  0.00    +0.000 A 
ATOM     16  C   UNL     1      45.184   3.355  12.134  0.00  0.00    +0.000 A 
ATOM     17  C   UNL     1      45.632   4.607  12.544  0.00  0.00    +0.000 A 
ATOM     18  N   UNL     1      45.806   5.629  11.669  0.00  0.00    +0.000 NA
ATOM     19  C   UNL     1      45.521   5.396  10.367  0.00  0.00    +0.000 A 
BRANCH  14  20
ATOM     20  C   UNL     1      44.780   3.994   8.402  0.00  0.00    +0.000 C 
BRANCH  20  22
ATOM     21  C   UNL     1      46.589   2.780   7.375  0.00  0.00    +0.000 C 
ATOM     22  N   UNL     1      46.001   4.090   7.604  0.00  0.00    +0.000 NA
ATOM     23  H   UNL     1      45.780   4.514   6.703  0.00  0.00    +0.000 HD
ENDBRANCH  20  22
ENDBRANCH  14  20
ENDBRANCH  13  17
ENDBRANCH   1  13
TORSDOF 6
ENDMDL
MODEL 8
REMARK VINA RESULT:    -5.562      3.105      4.446
REMARK INTER + INTRA:          -8.171
REMARK INTER:                  -7.887
REMARK INTRA:                  -0.285
REMARK UNBOUND:                -0.658
REMARK  Name = 
REMARK  7 active torsions:
REMARK  status: ('A' for Active; 'I' for Inactive)
REMARK    1  A    between atoms: C_1  and  N_2
REMARK    2  A    between atoms: N_2  and  C_3
REMARK    3  A    between atoms: C_3  and  C_4
REMARK    4  A    between atoms: C_7  and  C_8
REMARK    5  A    between atoms: C_8  and  O_9
REMARK    6  A    between atoms: O_9  and  C_10
REMARK    7  A    between atoms: C_13  and  C_14
REMARK                            x       y       z     vdW  Elec       q    Type
REMARK                         _______ _______ _______ _____ _____    ______ ____
ROOT
ATOM      1  O   UNL     1      45.948   6.096  13.357  0.00  0.00    +0.000 OA
ENDROOT
BRANCH   1   2
ATOM      2  C   UNL     1      45.598   5.258  12.334  0.00  0.00    +0.000 A 
ATOM      3  C   UNL     1      45.092   3.964  12.467  0.00  0.00    +0.000 A 
ATOM      4  C   UNL     1      44.770   3.217  11.328  0.00  0.00    +0.000 A 
ATOM      5  C   UNL     1      44.943   3.756  10.047  0.00  0.00    +0.000 A 
ATOM      6  C   UNL     1      45.452   5.049   9.912  0.00  0.00    +0.000 A 
ATOM      7  C   UNL     1      45.781   5.791  11.054  0.00  0.00    +0.000 A 
BRANCH   5   8
ATOM      8  C   UNL     1      44.614   2.902   8.876  0.00  0.00    +0.000 C 
ATOM      9  N   UNL     1      44.319   3.525   7.696  0.00  0.00    +0.000 N 
ATOM     10  O   UNL     1      44.579   1.681   8.965  0.00  0.00    +0.000 OA
ATOM     11  H   UNL     1      44.182   4.521   7.605  0.00  0.00    +0.000 HD
ATOM     12  H   UNL     1      44.026   2.931   6.931  0.00  0.00    +0.000 HD
ENDBRANCH   5   8
ENDBRANCH   1   2
BRANCH   1  13
ATOM     13  C   UNL     1      47.344   6.317  13.568  0.00  0.00    +0.000 C 
BRANCH  13  17
ATOM     14  C   UNL     1      48.603   4.308  17.131  0.00  0.00    +0.000 A 
ATOM     15  C   UNL     1      47.548   3.779  16.379  0.00  0.00    +0.000 A 
ATOM     16  C   UNL     1      47.137   4.422  15.216  0.00  0.00    +0.000 A 
ATOM     17  C   UNL     1      47.777   5.595  14.825  0.00  0.00    +0.000 A 
ATOM     18  N   UNL     1      48.795   6.132  15.543  0.00  0.00    +0.000 NA
ATOM     19  C   UNL     1      49.180   5.484  16.667  0.00  0.00    +0.000 A 
BRANCH  14  20
ATOM     20  C   UNL     1      49.079   3.650  18.399  0.00  0.00    +0.000 C 
BRANCH  20  22
ATOM     21  C   UNL     1      50.672   2.164  17.371  0.00  0.00    +0.000 C 
ATOM     22  N   UNL     1      50.487   3.263  18.306  0.00  0.00    +0.000 NA
ATOM     23  H   UNL     1      51.034   4.062  17.988  0.00  0.00    +0.000 HD
ENDBRANCH  20  22
ENDBRANCH  14  20
ENDBRANCH  13  17
ENDBRANCH   1  13
TORSDOF 6
ENDMDL
MODEL 9
REMARK VINA RESULT:    -5.462      4.824      6.813
REMARK INTER + INTRA:          -8.036
REMARK INTER:                  -7.659
REMARK INTRA:                  -0.376
REMARK UNBOUND:                -0.658
REMARK  Name = 
REMARK  7 active torsions:
REMARK  status: ('A' for Active; 'I' for Inactive)
REMARK    1  A    between atoms: C_1  and  N_2
REMARK    2  A    between atoms: N_2  and  C_3
REMARK    3  A    between atoms: C_3  and  C_4
REMARK    4  A    between atoms: C_7  and  C_8
REMARK    5  A    between atoms: C_8  and  O_9
REMARK    6  A    between atoms: O_9  and  C_10
REMARK    7  A    between atoms: C_13  and  C_14
REMARK                            x       y       z     vdW  Elec       q    Type
REMARK                         _______ _______ _______ _____ _____    ______ ____
ROOT
ATOM      1  O   UNL     1      47.344   3.887  14.475  0.00  0.00    +0.000 OA
ENDROOT
BRANCH   1   2
ATOM      2  C   UNL     1      46.754   4.896  13.763  0.00  0.00    +0.000 A 
ATOM      3  C   UNL     1      47.405   5.986  13.185  0.00  0.00    +0.000 A 
ATOM      4  C   UNL     1      46.673   6.946  12.477  0.00  0.00    +0.000 A 
ATOM      5  C   UNL     1      45.285   6.823  12.334  0.00  0.00    +0.000 A 
ATOM      6  C   UNL     1      44.630   5.735  12.915  0.00  0.00    +0.000 A 
ATOM      7  C   UNL     1      45.366   4.781  13.630  0.00  0.00    +0.000 A 
BRANCH   5   8
ATOM      8  C   UNL     1      44.558   7.891  11.599  0.00  0.00    +0.000 C 
ATOM      9  N   UNL     1      43.341   7.579  11.061  0.00  0.00    +0.000 N 
ATOM     10  O   UNL     1      45.039   9.008  11.453  0.00  0.00    +0.000 OA
ATOM     11  H   UNL     1      42.970   6.642  11.016  0.00  0.00    +0.000 HD
ATOM     12  H   UNL     1      42.896   8.296  10.502  0.00  0.00    +0.000 HD
ENDBRANCH   5   8
ENDBRANCH   1   2
BRANCH   1  13
ATOM     13  C   UNL     1      47.219   3.935  15.897  0.00  0.00    +0.000 C 
BRANCH  13  17
ATOM     14  C   UNL     1      51.059   3.296  17.674  0.00  0.00    +0.000 A 
ATOM     15  C   UNL     1      50.256   2.194  17.358  0.00  0.00    +0.000 A 
ATOM     16  C   UNL     1      49.008   2.394  16.774  0.00  0.00    +0.000 A 
ATOM     17  C   UNL     1      48.573   3.692  16.525  0.00  0.00    +0.000 A 
ATOM     18  N   UNL     1      49.330   4.775  16.833  0.00  0.00    +0.000 NA
ATOM     19  C   UNL     1      50.541   4.555  17.394  0.00  0.00    +0.000 A 
BRANCH  14  20
ATOM     20  C   UNL     1      52.413   3.130  18.312  0.00  0.00    +0.000 C 
BRANCH  20  22
ATOM     21  C   UNL     1      53.909   1.363  17.649  0.00  0.00    +0.000 C 
ATOM     22  N   UNL     1      52.762   1.719  18.469  0.00  0.00    +0.000 NA
ATOM     23  H   UNL     1      52.985   1.535  19.446  0.00  0.00    +0.000 HD
ENDBRANCH  20  22
ENDBRANCH  14  20
ENDBRANCH  13  17
ENDBRANCH   1  13
TORSDOF 6
ENDMDL
