MODEL 1
REMARK VINA RESULT:    -8.837      0.000      0.000
REMARK INTER + INTRA:         -12.311
REMARK INTER:                 -11.420
REMARK INTRA:                  -0.891
REMARK UNBOUND:                -0.891
REMARK  Name = 
REMARK  5 active torsions:
REMARK  status: ('A' for Active; 'I' for Inactive)
REMARK    1  A    between atoms: C_2  and  C_4
REMARK    2  A    between atoms: C_7  and  N_8
REMARK    3  A    between atoms: N_8  and  C_9
REMARK    4  A    between atoms: C_9  and  C_10
REMARK    5  A    between atoms: C_14  and  C_15
REMARK                            x       y       z     vdW  Elec       q    Type
REMARK                         _______ _______ _______ _____ _____    ______ ____
ROOT
ATOM      1  C   UNL     1      43.603   4.835  11.310  0.00  0.00    +0.000 C 
ENDROOT
BRANCH   1   2
ATOM      2  C   UNL     1      44.921   5.034  12.036  0.00  0.00    +0.000 A 
ATOM      3  C   UNL     1      45.423   4.048  12.880  0.00  0.00    +0.000 A 
ATOM      4  C   UNL     1      46.622   4.282  13.543  0.00  0.00    +0.000 A 
ATOM      5  C   UNL     1      47.290   5.486  13.339  0.00  0.00    +0.000 A 
ATOM      6  C   UNL     1      46.749   6.429  12.467  0.00  0.00    +0.000 A 
ATOM      7  N   UNL     1      45.570   6.209  11.829  0.00  0.00    +0.000 NA
BRANCH   6   8
ATOM      8  C   UNL     1      47.403   7.719  12.164  0.00  0.00    +0.000 A 
ATOM      9  C   UNL     1      46.708   8.941  12.245  0.00  0.00    +0.000 A 
ATOM     10  C   UNL     1      47.338  10.159  11.973  0.00  0.00    +0.000 A 
ATOM     11  C   UNL     1      48.684  10.181  11.617  0.00  0.00    +0.000 A 
ATOM     12  C   UNL     1      49.393   8.985  11.534  0.00  0.00    +0.000 A 
ATOM     13 CL   UNL     1      51.057   9.011  11.100  0.00  0.00    +0.000 Cl
ATOM     14  C   UNL     1      48.763   7.769  11.806  0.00  0.00    +0.000 A 
ENDBRANCH   6   8
ENDBRANCH   1   2
BRANCH   1  15
ATOM     15  N   UNL     1      43.776   4.931   9.862  0.00  0.00    +0.000 N 
ATOM     16  H   UNL     1      42.904   5.135   9.376  0.00  0.00    +0.000 HD
BRANCH  15  20
ATOM     17  C   UNL     1      46.321   2.223   7.852  0.00  0.00    +0.000 A 
ATOM     18  C   UNL     1      45.359   1.730   8.736  0.00  0.00    +0.000 A 
ATOM     19  C   UNL     1      44.493   2.612   9.399  0.00  0.00    +0.000 A 
ATOM     20  C   UNL     1      44.546   3.993   9.172  0.00  0.00    +0.000 A 
ATOM     21  C   UNL     1      45.517   4.469   8.280  0.00  0.00    +0.000 A 
ATOM     22  C   UNL     1      46.400   3.599   7.630  0.00  0.00    +0.000 A 
BRANCH  17  24
ATOM     23  N   UNL     1      48.383   1.929   6.579  0.00  0.00    +0.000 N 
ATOM     24  C   UNL     1      47.306   1.337   7.179  0.00  0.00    +0.000 C 
ATOM     25  O   UNL     1      47.181   0.119   7.180  0.00  0.00    +0.000 OA
ATOM     26  H   UNL     1      49.090   1.303   6.217  0.00  0.00    +0.000 HD
ATOM     27  H   UNL     1      48.653   2.883   6.771  0.00  0.00    +0.000 HD
ENDBRANCH  17  24
ENDBRANCH  15  20
ENDBRANCH   1  15
TORSDOF 5
ENDMDL
MODEL 2
REMARK VINA RESULT:    -8.836      1.259      1.592
REMARK INTER + INTRA:         -12.310
REMARK INTER:                 -11.385
REMARK INTRA:                  -0.925
REMARK UNBOUND:                -0.891
REMARK  Name = 
REMARK  5 active torsions:
REMARK  status: ('A' for Active; 'I' for Inactive)
REMARK    1  A    between atoms: C_2  and  C_4
REMARK    2  A    between atoms: C_7  and  N_8
REMARK    3  A    between atoms: N_8  and  C_9
REMARK    4  A    between atoms: C_9  and  C_10
REMARK    5  A    between atoms: C_14  and  C_15
REMARK                            x       y       z     vdW  Elec       q    Type
REMARK                         _______ _______ _______ _____ _____    ______ ____
ROOT
ATOM      1  C   UNL     1      43.605   4.586  11.466  0.00  0.00    +0.000 C 
ENDROOT
BRANCH   1   2
ATOM      2  C   UNL     1      44.924   4.900  12.149  0.00  0.00    +0.000 A 
ATOM      3  C   UNL     1      45.550   3.953  12.954  0.00  0.00    +0.000 A 
ATOM      4  C   UNL     1      46.744   4.291  13.579  0.00  0.00    +0.000 A 
ATOM      5  C   UNL     1      47.286   5.559  13.376  0.00  0.00    +0.000 A 
ATOM      6  C   UNL     1      46.623   6.459  12.543  0.00  0.00    +0.000 A 
ATOM      7  N   UNL     1      45.448   6.136  11.943  0.00  0.00    +0.000 NA
BRANCH   6   8
ATOM      8  C   UNL     1      47.138   7.811  12.244  0.00  0.00    +0.000 A 
ATOM      9  C   UNL     1      48.505   8.047  11.999  0.00  0.00    +0.000 A 
ATOM     10  C   UNL     1      48.984   9.326  11.699  0.00  0.00    +0.000 A 
ATOM     11  C   UNL     1      48.100  10.400  11.633  0.00  0.00    +0.000 A 
ATOM     12  C   UNL     1      46.744  10.190  11.868  0.00  0.00    +0.000 A 
ATOM     13 CL   UNL     1      45.650  11.516  11.781  0.00  0.00    +0.000 Cl
ATOM     14  C   UNL     1      46.267   8.913  12.167  0.00  0.00    +0.000 A 
ENDBRANCH   6   8
ENDBRANCH   1   2
BRANCH   1  15
ATOM     15  N   UNL     1      43.709   4.743  10.017  0.00  0.00    +0.000 N 
ATOM     16  H   UNL     1      42.806   4.912   9.576  0.00  0.00    +0.000 HD
BRANCH  15  20
ATOM     17  C   UNL     1      46.313   2.258   7.805  0.00  0.00    +0.000 A 
ATOM     18  C   UNL     1      45.410   1.678   8.699  0.00  0.00    +0.000 A 
ATOM     19  C   UNL     1      44.526   2.485   9.429  0.00  0.00    +0.000 A 
ATOM     20  C   UNL     1      44.500   3.876   9.261  0.00  0.00    +0.000 A 
ATOM     21  C   UNL     1      45.412   4.439   8.357  0.00  0.00    +0.000 A 
ATOM     22  C   UNL     1      46.314   3.644   7.640  0.00  0.00    +0.000 A 
BRANCH  17  24
ATOM     23  N   UNL     1      48.426   2.102   6.593  0.00  0.00    +0.000 N 
ATOM     24  C   UNL     1      47.316   1.453   7.060  0.00  0.00    +0.000 C 
ATOM     25  O   UNL     1      47.177   0.249   6.890  0.00  0.00    +0.000 OA
ATOM     26  H   UNL     1      49.141   1.518   6.180  0.00  0.00    +0.000 HD
ATOM     27  H   UNL     1      48.699   3.016   6.924  0.00  0.00    +0.000 HD
ENDBRANCH  17  24
ENDBRANCH  15  20
ENDBRANCH   1  15
TORSDOF 5
ENDMDL
MODEL 3
REMARK VINA RESULT:    -7.870      1.821      2.405
REMARK INTER + INTRA:         -11.062
REMARK INTER:                 -10.375
REMARK INTRA:                  -0.687
REMARK UNBOUND:                -0.891
REMARK  Name = 
REMARK  5 active torsions:
REMARK  status: ('A' for Active; 'I' for Inactive)
REMARK    1  A    between atoms: C_2  and  C_4
REMARK    2  A    between atoms: C_7  and  N_8
REMARK    3  A    between atoms: N_8  and  C_9
REMARK    4  A    between atoms: C_9  and  C_10
REMARK    5  A    between atoms: C_14  and  C_15
REMARK                            x       y       z     vdW  Elec       q    Type
REMARK                         _______ _______ _______ _____ _____    ______ ____
ROOT
ATOM      1  C   UNL     1      44.336   3.778  11.785  0.00  0.00    +0.000 C 
ENDROOT
BRANCH   1   2
ATOM      2  C   UNL     1      44.671   5.258  11.797  0.00  0.00    +0.000 A 
ATOM      3  C   UNL     1      43.716   6.206  11.442  0.00  0.00    +0.000 A 
ATOM      4  C   UNL     1      44.073   7.549  11.444  0.00  0.00    +0.000 A 
ATOM      5  C   UNL     1      45.368   7.910  11.809  0.00  0.00    +0.000 A 
ATOM      6  C   UNL     1      46.276   6.918  12.175  0.00  0.00    +0.000 A 
ATOM      7  N   UNL     1      45.934   5.603  12.159  0.00  0.00    +0.000 NA
BRANCH   6   8
ATOM      8  C   UNL     1      47.658   7.208  12.608  0.00  0.00    +0.000 A 
ATOM      9  C   UNL     1      48.590   7.826  11.752  0.00  0.00    +0.000 A 
ATOM     10  C   UNL     1      49.892   8.114  12.174  0.00  0.00    +0.000 A 
ATOM     11  C   UNL     1      50.289   7.792  13.469  0.00  0.00    +0.000 A 
ATOM     12  C   UNL     1      49.384   7.184  14.335  0.00  0.00    +0.000 A 
ATOM     13 CL   UNL     1      49.871   6.791  15.937  0.00  0.00    +0.000 Cl
ATOM     14  C   UNL     1      48.084   6.897  13.913  0.00  0.00    +0.000 A 
ENDBRANCH   6   8
ENDBRANCH   1   2
BRANCH   1  15
ATOM     15  N   UNL     1      43.796   3.368  10.490  0.00  0.00    +0.000 N 
ATOM     16  H   UNL     1      43.036   2.695  10.578  0.00  0.00    +0.000 HD
BRANCH  15  20
ATOM     17  C   UNL     1      46.546   2.581   7.381  0.00  0.00    +0.000 A 
ATOM     18  C   UNL     1      46.028   1.516   8.121  0.00  0.00    +0.000 A 
ATOM     19  C   UNL     1      45.100   1.756   9.146  0.00  0.00    +0.000 A 
ATOM     20  C   UNL     1      44.648   3.051   9.431  0.00  0.00    +0.000 A 
ATOM     21  C   UNL     1      45.178   4.106   8.676  0.00  0.00    +0.000 A 
ATOM     22  C   UNL     1      46.121   3.879   7.666  0.00  0.00    +0.000 A 
BRANCH  17  24
ATOM     23  N   UNL     1      47.381   2.994   5.124  0.00  0.00    +0.000 N 
ATOM     24  C   UNL     1      47.582   2.386   6.334  0.00  0.00    +0.000 C 
ATOM     25  O   UNL     1      48.595   1.732   6.544  0.00  0.00    +0.000 OA
ATOM     26  H   UNL     1      48.144   2.932   4.464  0.00  0.00    +0.000 HD
ATOM     27  H   UNL     1      46.706   3.734   4.997  0.00  0.00    +0.000 HD
ENDBRANCH  17  24
ENDBRANCH  15  20
ENDBRANCH   1  15
TORSDOF 5
ENDMDL
MODEL 4
REMARK VINA RESULT:    -7.729      3.598      6.872
REMARK INTER + INTRA:         -10.879
REMARK INTER:                 -10.098
REMARK INTRA:                  -0.782
REMARK UNBOUND:                -0.891
REMARK  Name = 
REMARK  5 active torsions:
REMARK  status: ('A' for Active; 'I' for Inactive)
REMARK    1  A    between atoms: C_2  and  C_4
REMARK    2  A    between atoms: C_7  and  N_8
REMARK    3  A    between atoms: N_8  and  C_9
REMARK    4  A    between atoms: C_9  and  C_10
REMARK    5  A    between atoms: C_14  and  C_15
REMARK                            x       y       z     vdW  Elec       q    Type
REMARK                         _______ _______ _______ _____ _____    ______ ____
ROOT
ATOM      1  C   UNL     1      44.166   7.089  11.647  0.00  0.00    +0.000 C 
ENDROOT
BRANCH   1   2
ATOM      2  C   UNL     1      44.025   5.593  11.428  0.00  0.00    +0.000 A 
ATOM      3  C   UNL     1      43.245   4.820  12.283  0.00  0.00    +0.000 A 
ATOM      4  C   UNL     1      43.164   3.452  12.060  0.00  0.00    +0.000 A 
ATOM      5  C   UNL     1      43.854   2.893  10.986  0.00  0.00    +0.000 A 
ATOM      6  C   UNL     1      44.604   3.720  10.152  0.00  0.00    +0.000 A 
ATOM      7  N   UNL     1      44.697   5.057  10.377  0.00  0.00    +0.000 NA
BRANCH   6   8
ATOM      8  C   UNL     1      45.340   3.223   8.971  0.00  0.00    +0.000 A 
ATOM      9  C   UNL     1      45.779   4.088   7.951  0.00  0.00    +0.000 A 
ATOM     10  C   UNL     1      46.490   3.613   6.845  0.00  0.00    +0.000 A 
ATOM     11  C   UNL     1      46.781   2.256   6.737  0.00  0.00    +0.000 A 
ATOM     12  C   UNL     1      46.360   1.381   7.735  0.00  0.00    +0.000 A 
ATOM     13 CL   UNL     1      46.724  -0.296   7.606  0.00  0.00    +0.000 Cl
ATOM     14  C   UNL     1      45.650   1.856   8.840  0.00  0.00    +0.000 A 
ENDBRANCH   6   8
ENDBRANCH   1   2
BRANCH   1  15
ATOM     15  N   UNL     1      45.057   7.378  12.768  0.00  0.00    +0.000 N 
ATOM     16  H   UNL     1      44.613   7.954  13.482  0.00  0.00    +0.000 HD
BRANCH  15  20
ATOM     17  C   UNL     1      49.083   8.337  11.918  0.00  0.00    +0.000 A 
ATOM     18  C   UNL     1      48.117   9.345  11.878  0.00  0.00    +0.000 A 
ATOM     19  C   UNL     1      46.778   9.050  12.175  0.00  0.00    +0.000 A 
ATOM     20  C   UNL     1      46.382   7.759  12.546  0.00  0.00    +0.000 A 
ATOM     21  C   UNL     1      47.366   6.761  12.583  0.00  0.00    +0.000 A 
ATOM     22  C   UNL     1      48.701   7.041  12.267  0.00  0.00    +0.000 A 
BRANCH  17  24
ATOM     23  N   UNL     1      51.314   7.495  11.396  0.00  0.00    +0.000 N 
ATOM     24  C   UNL     1      50.500   8.584  11.545  0.00  0.00    +0.000 C 
ATOM     25  O   UNL     1      50.926   9.715  11.350  0.00  0.00    +0.000 OA
ATOM     26  H   UNL     1      52.243   7.680  11.044  0.00  0.00    +0.000 HD
ATOM     27  H   UNL     1      50.951   6.558  11.297  0.00  0.00    +0.000 HD
ENDBRANCH  17  24
ENDBRANCH  15  20
ENDBRANCH   1  15
TORSDOF 5
ENDMDL
MODEL 5
REMARK VINA RESULT:    -7.618      3.895      7.413
REMARK INTER + INTRA:         -10.735
REMARK INTER:                 -10.145
REMARK INTRA:                  -0.590
REMARK UNBOUND:                -0.891
REMARK  Name = 
REMARK  5 active torsions:
REMARK  status: ('A' for Active; 'I' for Inactive)
REMARK    1  A    between atoms: C_2  and  C_4
REMARK    2  A    between atoms: C_7  and  N_8
REMARK    3  A    between atoms: N_8  and  C_9
REMARK    4  A    between atoms: C_9  and  C_10
REMARK    5  A    between atoms: C_14  and  C_15
REMARK                            x       y       z     vdW  Elec       q    Type
REMARK                         _______ _______ _______ _____ _____    ______ ____
ROOT
ATOM      1  C   UNL     1      45.853   7.091  11.763  0.00  0.00    +0.000 C 
ENDROOT
BRANCH   1   2
ATOM      2  C   UNL     1      45.070   5.910  11.219  0.00  0.00    +0.000 A 
ATOM      3  C   UNL     1      43.823   5.583  11.743  0.00  0.00    +0.000 A 
ATOM      4  C   UNL     1      43.151   4.479  11.231  0.00  0.00    +0.000 A 
ATOM      5  C   UNL     1      43.737   3.739  10.207  0.00  0.00    +0.000 A 
ATOM      6  C   UNL     1      44.980   4.125   9.709  0.00  0.00    +0.000 A 
ATOM      7  N   UNL     1      45.645   5.195  10.218  0.00  0.00    +0.000 NA
BRANCH   6   8
ATOM      8  C   UNL     1      45.661   3.422   8.603  0.00  0.00    +0.000 A 
ATOM      9  C   UNL     1      46.185   4.114   7.495  0.00  0.00    +0.000 A 
ATOM     10  C   UNL     1      46.844   3.444   6.459  0.00  0.00    +0.000 A 
ATOM     11  C   UNL     1      46.996   2.061   6.513  0.00  0.00    +0.000 A 
ATOM     12  C   UNL     1      46.489   1.356   7.601  0.00  0.00    +0.000 A 
ATOM     13 CL   UNL     1      46.681  -0.353   7.672  0.00  0.00    +0.000 Cl
ATOM     14  C   UNL     1      45.832   2.025   8.634  0.00  0.00    +0.000 A 
ENDBRANCH   6   8
ENDBRANCH   1   2
BRANCH   1  15
ATOM     15  N   UNL     1      47.194   6.689  12.182  0.00  0.00    +0.000 N 
ATOM     16  H   UNL     1      47.667   6.118  11.484  0.00  0.00    +0.000 HD
BRANCH  15  20
ATOM     17  C   UNL     1      47.968   5.048  15.997  0.00  0.00    +0.000 A 
ATOM     18  C   UNL     1      48.558   6.264  15.643  0.00  0.00    +0.000 A 
ATOM     19  C   UNL     1      48.299   6.833  14.388  0.00  0.00    +0.000 A 
ATOM     20  C   UNL     1      47.427   6.223  13.477  0.00  0.00    +0.000 A 
ATOM     21  C   UNL     1      46.842   5.005  13.852  0.00  0.00    +0.000 A 
ATOM     22  C   UNL     1      47.112   4.418  15.094  0.00  0.00    +0.000 A 
BRANCH  17  24
ATOM     23  N   UNL     1      47.234   3.726  17.914  0.00  0.00    +0.000 N 
ATOM     24  C   UNL     1      48.265   4.370  17.286  0.00  0.00    +0.000 C 
ATOM     25  O   UNL     1      49.392   4.360  17.763  0.00  0.00    +0.000 OA
ATOM     26  H   UNL     1      47.480   3.188  18.734  0.00  0.00    +0.000 HD
ATOM     27  H   UNL     1      46.371   3.496  17.441  0.00  0.00    +0.000 HD
ENDBRANCH  17  24
ENDBRANCH  15  20
ENDBRANCH   1  15
TORSDOF 5
ENDMDL
MODEL 6
REMARK VINA RESULT:    -7.387      2.519      3.972
REMARK INTER + INTRA:         -10.437
REMARK INTER:                  -9.825
REMARK INTRA:                  -0.612
REMARK UNBOUND:                -0.891
REMARK  Name = 
REMARK  5 active torsions:
REMARK  status: ('A' for Active; 'I' for Inactive)
REMARK    1  A    between atoms: C_2  and  C_4
REMARK    2  A    between atoms: C_7  and  N_8
REMARK    3  A    between atoms: N_8  and  C_9
REMARK    4  A    between atoms: C_9  and  C_10
REMARK    5  A    between atoms: C_14  and  C_15
REMARK                            x       y       z     vdW  Elec       q    Type
REMARK                         _______ _______ _______ _____ _____    ______ ____
ROOT
ATOM      1  C   UNL     1      44.692   5.941  11.333  0.00  0.00    +0.000 C 
ENDROOT
BRANCH   1   2
ATOM      2  C   UNL     1      46.045   6.231  11.958  0.00  0.00    +0.000 A 
ATOM      3  C   UNL     1      46.976   7.027  11.299  0.00  0.00    +0.000 A 
ATOM      4  C   UNL     1      48.211   7.247  11.897  0.00  0.00    +0.000 A 
ATOM      5  C   UNL     1      48.479   6.675  13.138  0.00  0.00    +0.000 A 
ATOM      6  C   UNL     1      47.500   5.902  13.760  0.00  0.00    +0.000 A 
ATOM      7  N   UNL     1      46.298   5.673  13.171  0.00  0.00    +0.000 NA
BRANCH   6   8
ATOM      8  C   UNL     1      47.682   5.284  15.090  0.00  0.00    +0.000 A 
ATOM      9  C   UNL     1      47.172   4.007  15.391  0.00  0.00    +0.000 A 
ATOM     10  C   UNL     1      47.363   3.421  16.647  0.00  0.00    +0.000 A 
ATOM     11  C   UNL     1      48.075   4.103  17.630  0.00  0.00    +0.000 A 
ATOM     12  C   UNL     1      48.592   5.365  17.354  0.00  0.00    +0.000 A 
ATOM     13 CL   UNL     1      49.478   6.206  18.566  0.00  0.00    +0.000 Cl
ATOM     14  C   UNL     1      48.402   5.950  16.100  0.00  0.00    +0.000 A 
ENDBRANCH   6   8
ENDBRANCH   1   2
BRANCH   1  15
ATOM     15  N   UNL     1      44.506   4.508  11.115  0.00  0.00    +0.000 N 
ATOM     16  H   UNL     1      44.694   3.957  11.950  0.00  0.00    +0.000 HD
BRANCH  15  20
ATOM     17  C   UNL     1      46.235   2.775   7.671  0.00  0.00    +0.000 A 
ATOM     18  C   UNL     1      45.665   1.946   8.641  0.00  0.00    +0.000 A 
ATOM     19  C   UNL     1      45.071   2.504   9.783  0.00  0.00    +0.000 A 
ATOM     20  C   UNL     1      45.003   3.892   9.965  0.00  0.00    +0.000 A 
ATOM     21  C   UNL     1      45.578   4.706   8.979  0.00  0.00    +0.000 A 
ATOM     22  C   UNL     1      46.194   4.158   7.848  0.00  0.00    +0.000 A 
BRANCH  17  24
ATOM     23  N   UNL     1      47.043   3.041   5.383  0.00  0.00    +0.000 N 
ATOM     24  C   UNL     1      46.937   2.230   6.480  0.00  0.00    +0.000 C 
ATOM     25  O   UNL     1      47.430   1.110   6.480  0.00  0.00    +0.000 OA
ATOM     26  H   UNL     1      47.611   2.690   4.625  0.00  0.00    +0.000 HD
ATOM     27  H   UNL     1      46.883   4.037   5.429  0.00  0.00    +0.000 HD
ENDBRANCH  17  24
ENDBRANCH  15  20
ENDBRANCH   1  15
TORSDOF 5
ENDMDL
MODEL 7
REMARK VINA RESULT:    -7.314      4.812      8.141
REMARK INTER + INTRA:         -10.343
REMARK INTER:                  -9.873
REMARK INTRA:                  -0.470
REMARK UNBOUND:                -0.891
REMARK  Name = 
REMARK  5 active torsions:
REMARK  status: ('A' for Active; 'I' for Inactive)
REMARK    1  A    between atoms: C_2  and  C_4
REMARK    2  A    between atoms: C_7  and  N_8
REMARK    3  A    between atoms: N_8  and  C_9
REMARK    4  A    between atoms: C_9  and  C_10
REMARK    5  A    between atoms: C_14  and  C_15
REMARK                            x       y       z     vdW  Elec       q    Type
REMARK                         _______ _______ _______ _____ _____    ______ ____
ROOT
ATOM      1  C   UNL     1      46.147   5.296  13.733  0.00  0.00    +0.000 C 
ENDROOT
BRANCH   1   2
ATOM      2  C   UNL     1      45.148   4.893  12.664  0.00  0.00    +0.000 A 
ATOM      3  C   UNL     1      43.780   5.024  12.884  0.00  0.00    +0.000 A 
ATOM      4  C   UNL     1      42.901   4.620  11.886  0.00  0.00    +0.000 A 
ATOM      5  C   UNL     1      43.409   4.107  10.695  0.00  0.00    +0.000 A 
ATOM      6  C   UNL     1      44.790   4.017  10.524  0.00  0.00    +0.000 A 
ATOM      7  N   UNL     1      45.651   4.397  11.504  0.00  0.00    +0.000 NA
BRANCH   6   8
ATOM      8  C   UNL     1      45.419   3.518   9.285  0.00  0.00    +0.000 A 
ATOM      9  C   UNL     1      45.819   4.389   8.253  0.00  0.00    +0.000 A 
ATOM     10  C   UNL     1      46.429   3.911   7.088  0.00  0.00    +0.000 A 
ATOM     11  C   UNL     1      46.657   2.546   6.933  0.00  0.00    +0.000 A 
ATOM     12  C   UNL     1      46.274   1.667   7.942  0.00  0.00    +0.000 A 
ATOM     13 CL   UNL     1      46.561  -0.020   7.755  0.00  0.00    +0.000 Cl
ATOM     14  C   UNL     1      45.665   2.144   9.104  0.00  0.00    +0.000 A 
ENDBRANCH   6   8
ENDBRANCH   1   2
BRANCH   1  15
ATOM     15  N   UNL     1      46.421   4.188  14.646  0.00  0.00    +0.000 N 
ATOM     16  H   UNL     1      45.585   3.655  14.878  0.00  0.00    +0.000 HD
BRANCH  15  20
ATOM     17  C   UNL     1      48.991   4.485  17.987  0.00  0.00    +0.000 A 
ATOM     18  C   UNL     1      49.079   5.438  16.969  0.00  0.00    +0.000 A 
ATOM     19  C   UNL     1      48.223   5.366  15.861  0.00  0.00    +0.000 A 
ATOM     20  C   UNL     1      47.244   4.368  15.759  0.00  0.00    +0.000 A 
ATOM     21  C   UNL     1      47.170   3.423  16.792  0.00  0.00    +0.000 A 
ATOM     22  C   UNL     1      48.035   3.473  17.891  0.00  0.00    +0.000 A 
BRANCH  17  24
ATOM     23  N   UNL     1      51.169   3.952  18.953  0.00  0.00    +0.000 N 
ATOM     24  C   UNL     1      49.920   4.477  19.146  0.00  0.00    +0.000 C 
ATOM     25  O   UNL     1      49.600   4.947  20.231  0.00  0.00    +0.000 OA
ATOM     26  H   UNL     1      51.816   4.050  19.723  0.00  0.00    +0.000 HD
ATOM     27  H   UNL     1      51.552   3.795  18.032  0.00  0.00    +0.000 HD
ENDBRANCH  17  24
ENDBRANCH  15  20
ENDBRANCH   1  15
TORSDOF 5
ENDMDL
MODEL 8
REMARK VINA RESULT:    -6.661      5.301      7.089
REMARK INTER + INTRA:          -9.498
REMARK INTER:                  -8.995
REMARK INTRA:                  -0.504
REMARK UNBOUND:                -0.891
REMARK  Name = 
REMARK  5 active torsions:
REMARK  status: ('A' for Active; 'I' for Inactive)
REMARK    1  A    between atoms: C_2  and  C_4
REMARK    2  A    between atoms: C_7  and  N_8
REMARK    3  A    between atoms: N_8  and  C_9
REMARK    4  A    between atoms: C_9  and  C_10
REMARK    5  A    between atoms: C_14  and  C_15
REMARK                            x       y       z     vdW  Elec       q    Type
REMARK                         _______ _______ _______ _____ _____    ______ ____
ROOT
ATOM      1  C   UNL     1      47.132   4.048  15.556  0.00  0.00    +0.000 C 
ENDROOT
BRANCH   1   2
ATOM      2  C   UNL     1      48.111   4.381  16.667  0.00  0.00    +0.000 A 
ATOM      3  C   UNL     1      47.853   5.424  17.552  0.00  0.00    +0.000 A 
ATOM      4  C   UNL     1      48.788   5.709  18.539  0.00  0.00    +0.000 A 
ATOM      5  C   UNL     1      49.948   4.943  18.622  0.00  0.00    +0.000 A 
ATOM      6  C   UNL     1      50.143   3.899  17.720  0.00  0.00    +0.000 A 
ATOM      7  N   UNL     1      49.238   3.627  16.745  0.00  0.00    +0.000 NA
BRANCH   6   8
ATOM      8  C   UNL     1      51.325   3.013  17.753  0.00  0.00    +0.000 A 
ATOM      9  C   UNL     1      51.245   1.654  17.392  0.00  0.00    +0.000 A 
ATOM     10  C   UNL     1      52.371   0.825  17.410  0.00  0.00    +0.000 A 
ATOM     11  C   UNL     1      53.608   1.342  17.787  0.00  0.00    +0.000 A 
ATOM     12  C   UNL     1      53.712   2.684  18.144  0.00  0.00    +0.000 A 
ATOM     13 CL   UNL     1      55.241   3.325  18.605  0.00  0.00    +0.000 Cl
ATOM     14  C   UNL     1      52.588   3.511  18.126  0.00  0.00    +0.000 A 
ENDBRANCH   6   8
ENDBRANCH   1   2
BRANCH   1  15
ATOM     15  N   UNL     1      46.801   5.233  14.768  0.00  0.00    +0.000 N 
ATOM     16  H   UNL     1      46.290   5.931  15.307  0.00  0.00    +0.000 HD
BRANCH  15  20
ATOM     17  C   UNL     1      45.518   4.914  10.755  0.00  0.00    +0.000 A 
ATOM     18  C   UNL     1      45.237   3.876  11.648  0.00  0.00    +0.000 A 
ATOM     19  C   UNL     1      45.640   3.972  12.988  0.00  0.00    +0.000 A 
ATOM     20  C   UNL     1      46.297   5.111  13.472  0.00  0.00    +0.000 A 
ATOM     21  C   UNL     1      46.567   6.142  12.562  0.00  0.00    +0.000 A 
ATOM     22  C   UNL     1      46.190   6.046  11.217  0.00  0.00    +0.000 A 
BRANCH  17  24
ATOM     23  N   UNL     1      43.908   4.429   8.985  0.00  0.00    +0.000 N 
ATOM     24  C   UNL     1      45.175   4.830   9.312  0.00  0.00    +0.000 C 
ATOM     25  O   UNL     1      45.980   5.133   8.441  0.00  0.00    +0.000 OA
ATOM     26  H   UNL     1      43.667   4.478   8.005  0.00  0.00    +0.000 HD
ATOM     27  H   UNL     1      43.154   4.419   9.657  0.00  0.00    +0.000 HD
ENDBRANCH  17  24
ENDBRANCH  15  20
ENDBRANCH   1  15
TORSDOF 5
ENDMDL
MODEL 9
REMARK VINA RESULT:    -6.486      4.906      7.884
REMARK INTER + INTRA:          -9.273
REMARK INTER:                  -8.534
REMARK INTRA:                  -0.739
REMARK UNBOUND:                -0.891
REMARK  Name = 
REMARK  5 active torsions:
REMARK  status: ('A' for Active; 'I' for Inactive)
REMARK    1  A    between atoms: C_2  and  C_4
REMARK    2  A    between atoms: C_7  and  N_8
REMARK    3  A    between atoms: N_8  and  C_9
REMARK    4  A    between atoms: C_9  and  C_10
REMARK    5  A    between atoms: C_14  and  C_15
REMARK                            x       y       z     vdW  Elec       q    Type
REMARK                         _______ _______ _______ _____ _____    ______ ____
ROOT
ATOM      1  C   UNL     1      48.783   7.480  15.815  0.00  0.00    +0.000 C 
ENDROOT
BRANCH   1   2
ATOM      2  C   UNL     1      48.547   7.366  14.320  0.00  0.00    +0.000 A 
ATOM      3  C   UNL     1      49.445   7.924  13.415  0.00  0.00    +0.000 A 
ATOM      4  C   UNL     1      49.177   7.817  12.056  0.00  0.00    +0.000 A 
ATOM      5  C   UNL     1      48.028   7.150  11.637  0.00  0.00    +0.000 A 
ATOM      6  C   UNL     1      47.175   6.595  12.589  0.00  0.00    +0.000 A 
ATOM      7  N   UNL     1      47.427   6.711  13.919  0.00  0.00    +0.000 NA
BRANCH   6   8
ATOM      8  C   UNL     1      45.953   5.842  12.238  0.00  0.00    +0.000 A 
ATOM      9  C   UNL     1      44.982   5.512  13.203  0.00  0.00    +0.000 A 
ATOM     10  C   UNL     1      43.820   4.814  12.861  0.00  0.00    +0.000 A 
ATOM     11  C   UNL     1      43.602   4.432  11.539  0.00  0.00    +0.000 A 
ATOM     12  C   UNL     1      44.547   4.751  10.568  0.00  0.00    +0.000 A 
ATOM     13 CL   UNL     1      44.277   4.285   8.933  0.00  0.00    +0.000 Cl
ATOM     14  C   UNL     1      45.707   5.448  10.910  0.00  0.00    +0.000 A 
ENDBRANCH   6   8
ENDBRANCH   1   2
BRANCH   1  15
ATOM     15  N   UNL     1      48.264   6.312  16.524  0.00  0.00    +0.000 N 
ATOM     16  H   UNL     1      47.597   6.560  17.252  0.00  0.00    +0.000 HD
BRANCH  15  20
ATOM     17  C   UNL     1      50.779   3.077  17.552  0.00  0.00    +0.000 A 
ATOM     18  C   UNL     1      51.315   4.365  17.485  0.00  0.00    +0.000 A 
ATOM     19  C   UNL     1      50.492   5.454  17.162  0.00  0.00    +0.000 A 
ATOM     20  C   UNL     1      49.120   5.288  16.933  0.00  0.00    +0.000 A 
ATOM     21  C   UNL     1      48.600   3.988  17.008  0.00  0.00    +0.000 A 
ATOM     22  C   UNL     1      49.418   2.892  17.308  0.00  0.00    +0.000 A 
BRANCH  17  24
ATOM     23  N   UNL     1      52.748   2.061  18.576  0.00  0.00    +0.000 N 
ATOM     24  C   UNL     1      51.621   1.883  17.822  0.00  0.00    +0.000 C 
ATOM     25  O   UNL     1      51.312   0.771  17.412  0.00  0.00    +0.000 OA
ATOM     26  H   UNL     1      53.249   1.221  18.831  0.00  0.00    +0.000 HD
ATOM     27  H   UNL     1      52.900   2.888  19.136  0.00  0.00    +0.000 HD
ENDBRANCH  17  24
ENDBRANCH  15  20
ENDBRANCH   1  15
TORSDOF 5
ENDMDL
