MODEL 1
REMARK VINA RESULT:    -9.193      0.000      0.000
REMARK INTER + INTRA:         -13.242
REMARK INTER:                 -12.417
REMARK INTRA:                  -0.825
REMARK UNBOUND:                -0.825
REMARK  Name = 
REMARK  9 active torsions:
REMARK  status: ('A' for Active; 'I' for Inactive)
REMARK    1  A    between atoms: C_1  and  C_2
REMARK    2  A    between atoms: N_5  and  C_6
REMARK    3  A    between atoms: C_8  and  C_9
REMARK    4  A    between atoms: C_9  and  C_10
REMARK    5  A    between atoms: C_9  and  C_11
REMARK    6  A    between atoms: C_9  and  C_12
REMARK    7  A    between atoms: C_12  and  N_13
REMARK    8  A    between atoms: N_13  and  C_14
REMARK    9  A    between atoms: C_17  and  C_18
REMARK                            x       y       z     vdW  Elec       q    Type
REMARK                         _______ _______ _______ _____ _____    ______ ____
ROOT
ATOM      1  C   UNL     1      44.130   4.683  12.259  0.00  0.00    +0.000 C 
ATOM      2  C   UNL     1      44.109   3.131  12.315  0.00  0.00    +0.000 C 
ATOM      3  C   UNL     1      43.022   5.235  13.188  0.00  0.00    +0.000 C 
ENDROOT
BRANCH   1   6
ATOM      4  C   UNL     1      47.234   5.264  14.499  0.00  0.00    +0.000 A 
ATOM      5  C   UNL     1      46.012   4.791  13.988  0.00  0.00    +0.000 A 
ATOM      6  C   UNL     1      45.507   5.187  12.733  0.00  0.00    +0.000 A 
ATOM      7  C   UNL     1      46.299   6.057  11.968  0.00  0.00    +0.000 A 
ATOM      8  C   UNL     1      47.515   6.535  12.441  0.00  0.00    +0.000 A 
ATOM      9  C   UNL     1      47.963   6.146  13.688  0.00  0.00    +0.000 A 
ATOM     10  F   UNL     1      49.153   6.623  14.085  0.00  0.00    +0.000 F 
BRANCH   4  15
ATOM     11  C   UNL     1      50.988   3.147  17.808  0.00  0.00    +0.000 C 
ATOM     12  C   UNL     1      49.620   3.767  17.536  0.00  0.00    +0.000 C 
ATOM     13  C   UNL     1      49.781   5.179  16.952  0.00  0.00    +0.000 C 
ATOM     14  C   UNL     1      48.434   5.791  16.592  0.00  0.00    +0.000 C 
ATOM     15  N   UNL     1      47.661   4.878  15.758  0.00  0.00    +0.000 N 
ATOM     16  C   UNL     1      47.449   3.521  16.249  0.00  0.00    +0.000 C 
ATOM     17  C   UNL     1      48.796   2.884  16.587  0.00  0.00    +0.000 C 
ENDBRANCH   4  15
ENDBRANCH   1   6
BRANCH   1  18
ATOM     18  C   UNL     1      43.806   5.099  10.793  0.00  0.00    +0.000 C 
BRANCH  18  19
ATOM     19  N   UNL     1      43.632   3.956   9.888  0.00  0.00    +0.000 N 
ATOM     20  H   UNL     1      42.696   3.785   9.517  0.00  0.00    +0.000 HD
BRANCH  19  21
ATOM     21  C   UNL     1      44.692   3.545   9.083  0.00  0.00    +0.000 A 
ATOM     22  C   UNL     1      45.458   4.517   8.428  0.00  0.00    +0.000 A 
ATOM     23  C   UNL     1      46.493   4.157   7.554  0.00  0.00    +0.000 A 
ATOM     24  C   UNL     1      46.765   2.808   7.300  0.00  0.00    +0.000 A 
ATOM     25  C   UNL     1      45.998   1.830   7.931  0.00  0.00    +0.000 A 
ATOM     26  C   UNL     1      44.975   2.201   8.795  0.00  0.00    +0.000 A 
ATOM     27  F   UNL     1      44.276   1.213   9.375  0.00  0.00    +0.000 F 
BRANCH  24  28
ATOM     28  C   UNL     1      47.843   2.339   6.377  0.00  0.00    +0.000 C 
ATOM     29  N   UNL     1      47.985   2.983   5.173  0.00  0.00    +0.000 N 
ATOM     30  O   UNL     1      48.577   1.422   6.670  0.00  0.00    +0.000 OA
ATOM     31  H   UNL     1      47.430   3.754   4.847  0.00  0.00    +0.000 HD
ATOM     32  H   UNL     1      48.724   2.644   4.573  0.00  0.00    +0.000 HD
ENDBRANCH  24  28
ENDBRANCH  19  21
ENDBRANCH  18  19
ENDBRANCH   1  18
TORSDOF 6
ENDMDL
MODEL 2
REMARK VINA RESULT:    -8.891      1.122      1.624
REMARK INTER + INTRA:         -12.835
REMARK INTER:                 -11.942
REMARK INTRA:                  -0.893
REMARK UNBOUND:                -0.825
REMARK  Name = 
REMARK  9 active torsions:
REMARK  status: ('A' for Active; 'I' for Inactive)
REMARK    1  A    between atoms: C_1  and  C_2
REMARK    2  A    between atoms: N_5  and  C_6
REMARK    3  A    between atoms: C_8  and  C_9
REMARK    4  A    between atoms: C_9  and  C_10
REMARK    5  A    between atoms: C_9  and  C_11
REMARK    6  A    between atoms: C_9  and  C_12
REMARK    7  A    between atoms: C_12  and  N_13
REMARK    8  A    between atoms: N_13  and  C_14
REMARK    9  A    between atoms: C_17  and  C_18
REMARK                            x       y       z     vdW  Elec       q    Type
REMARK                         _______ _______ _______ _____ _____    ______ ____
ROOT
ATOM      1  C   UNL     1      43.686   4.963  12.233  0.00  0.00    +0.000 C 
ATOM      2  C   UNL     1      43.119   4.534  13.614  0.00  0.00    +0.000 C 
ATOM      3  C   UNL     1      42.805   6.098  11.658  0.00  0.00    +0.000 C 
ENDROOT
BRANCH   1   6
ATOM      4  C   UNL     1      47.163   5.590  13.816  0.00  0.00    +0.000 A 
ATOM      5  C   UNL     1      45.863   5.115  13.568  0.00  0.00    +0.000 A 
ATOM      6  C   UNL     1      45.131   5.464  12.414  0.00  0.00    +0.000 A 
ATOM      7  C   UNL     1      45.771   6.288  11.475  0.00  0.00    +0.000 A 
ATOM      8  C   UNL     1      47.057   6.766  11.686  0.00  0.00    +0.000 A 
ATOM      9  C   UNL     1      47.732   6.424  12.842  0.00  0.00    +0.000 A 
ATOM     10  F   UNL     1      48.979   6.899  12.985  0.00  0.00    +0.000 F 
BRANCH   4  15
ATOM     11  C   UNL     1      47.481   5.522  19.239  0.00  0.00    +0.000 C 
ATOM     12  C   UNL     1      48.020   5.197  17.849  0.00  0.00    +0.000 C 
ATOM     13  C   UNL     1      47.043   4.280  17.099  0.00  0.00    +0.000 C 
ATOM     14  C   UNL     1      47.514   4.005  15.677  0.00  0.00    +0.000 C 
ATOM     15  N   UNL     1      47.819   5.252  14.987  0.00  0.00    +0.000 N 
ATOM     16  C   UNL     1      48.753   6.173  15.626  0.00  0.00    +0.000 C 
ATOM     17  C   UNL     1      48.277   6.481  17.045  0.00  0.00    +0.000 C 
ENDBRANCH   4  15
ENDBRANCH   1   6
BRANCH   1  18
ATOM     18  C   UNL     1      43.589   3.728  11.288  0.00  0.00    +0.000 C 
BRANCH  18  19
ATOM     19  N   UNL     1      43.644   4.080   9.863  0.00  0.00    +0.000 N 
ATOM     20  H   UNL     1      43.245   4.977   9.583  0.00  0.00    +0.000 HD
BRANCH  19  21
ATOM     21  C   UNL     1      44.687   3.601   9.074  0.00  0.00    +0.000 A 
ATOM     22  C   UNL     1      45.453   4.516   8.340  0.00  0.00    +0.000 A 
ATOM     23  C   UNL     1      46.470   4.083   7.479  0.00  0.00    +0.000 A 
ATOM     24  C   UNL     1      46.725   2.716   7.318  0.00  0.00    +0.000 A 
ATOM     25  C   UNL     1      45.957   1.794   8.028  0.00  0.00    +0.000 A 
ATOM     26  C   UNL     1      44.951   2.237   8.878  0.00  0.00    +0.000 A 
ATOM     27  F   UNL     1      44.251   1.300   9.537  0.00  0.00    +0.000 F 
BRANCH  24  28
ATOM     28  C   UNL     1      47.784   2.171   6.415  0.00  0.00    +0.000 C 
ATOM     29  N   UNL     1      48.127   2.906   5.308  0.00  0.00    +0.000 N 
ATOM     30  O   UNL     1      48.331   1.115   6.641  0.00  0.00    +0.000 OA
ATOM     31  H   UNL     1      47.735   3.792   5.043  0.00  0.00    +0.000 HD
ATOM     32  H   UNL     1      48.848   2.512   4.719  0.00  0.00    +0.000 HD
ENDBRANCH  24  28
ENDBRANCH  19  21
ENDBRANCH  18  19
ENDBRANCH   1  18
TORSDOF 6
ENDMDL
MODEL 3
REMARK VINA RESULT:    -8.795      1.981      3.581
REMARK INTER + INTRA:         -12.705
REMARK INTER:                 -11.434
REMARK INTRA:                  -1.270
REMARK UNBOUND:                -0.825
REMARK  Name = 
REMARK  9 active torsions:
REMARK  status: ('A' for Active; 'I' for Inactive)
REMARK    1  A    between atoms: C_1  and  C_2
REMARK    2  A    between atoms: N_5  and  C_6
REMARK    3  A    between atoms: C_8  and  C_9
REMARK    4  A    between atoms: C_9  and  C_10
REMARK    5  A    between atoms: C_9  and  C_11
REMARK    6  A    between atoms: C_9  and  C_12
REMARK    7  A    between atoms: C_12  and  N_13
REMARK    8  A    between atoms: N_13  and  C_14
REMARK    9  A    between atoms: C_17  and  C_18
REMARK                            x       y       z     vdW  Elec       q    Type
REMARK                         _______ _______ _______ _____ _____    ______ ____
ROOT
ATOM      1  C   UNL     1      44.205   4.767  12.352  0.00  0.00    +0.000 C 
ATOM      2  C   UNL     1      44.209   3.214  12.389  0.00  0.00    +0.000 C 
ATOM      3  C   UNL     1      42.983   5.286  13.148  0.00  0.00    +0.000 C 
ENDROOT
BRANCH   1   6
ATOM      4  C   UNL     1      47.356   6.929  12.970  0.00  0.00    +0.000 A 
ATOM      5  C   UNL     1      46.138   6.437  12.468  0.00  0.00    +0.000 A 
ATOM      6  C   UNL     1      45.505   5.291  12.990  0.00  0.00    +0.000 A 
ATOM      7  C   UNL     1      46.119   4.663  14.085  0.00  0.00    +0.000 A 
ATOM      8  C   UNL     1      47.317   5.128  14.610  0.00  0.00    +0.000 A 
ATOM      9  C   UNL     1      47.923   6.238  14.052  0.00  0.00    +0.000 A 
ATOM     10  F   UNL     1      49.068   6.655  14.612  0.00  0.00    +0.000 F 
BRANCH   4  15
ATOM     11  C   UNL     1      51.327  10.633  12.782  0.00  0.00    +0.000 C 
ATOM     12  C   UNL     1      50.039  10.002  12.257  0.00  0.00    +0.000 C 
ATOM     13  C   UNL     1      50.290   8.546  11.838  0.00  0.00    +0.000 C 
ATOM     14  C   UNL     1      49.005   7.865  11.388  0.00  0.00    +0.000 C 
ATOM     15  N   UNL     1      47.958   8.031  12.389  0.00  0.00    +0.000 N 
ATOM     16  C   UNL     1      47.647   9.386  12.830  0.00  0.00    +0.000 C 
ATOM     17  C   UNL     1      48.924  10.073  13.312  0.00  0.00    +0.000 C 
ENDBRANCH   4  15
ENDBRANCH   1   6
BRANCH   1  18
ATOM     18  C   UNL     1      44.048   5.195  10.862  0.00  0.00    +0.000 C 
BRANCH  18  19
ATOM     19  N   UNL     1      43.780   4.069   9.958  0.00  0.00    +0.000 N 
ATOM     20  H   UNL     1      42.824   3.953   9.618  0.00  0.00    +0.000 HD
BRANCH  19  21
ATOM     21  C   UNL     1      44.788   3.606   9.116  0.00  0.00    +0.000 A 
ATOM     22  C   UNL     1      45.571   4.537   8.423  0.00  0.00    +0.000 A 
ATOM     23  C   UNL     1      46.553   4.125   7.513  0.00  0.00    +0.000 A 
ATOM     24  C   UNL     1      46.754   2.763   7.259  0.00  0.00    +0.000 A 
ATOM     25  C   UNL     1      45.969   1.825   7.928  0.00  0.00    +0.000 A 
ATOM     26  C   UNL     1      44.998   2.248   8.828  0.00  0.00    +0.000 A 
ATOM     27  F   UNL     1      44.279   1.296   9.443  0.00  0.00    +0.000 F 
BRANCH  24  28
ATOM     28  C   UNL     1      47.773   2.240   6.299  0.00  0.00    +0.000 C 
ATOM     29  N   UNL     1      48.029   2.975   5.169  0.00  0.00    +0.000 N 
ATOM     30  O   UNL     1      48.362   1.201   6.500  0.00  0.00    +0.000 OA
ATOM     31  H   UNL     1      47.597   3.847   4.921  0.00  0.00    +0.000 HD
ATOM     32  H   UNL     1      48.725   2.596   4.541  0.00  0.00    +0.000 HD
ENDBRANCH  24  28
ENDBRANCH  19  21
ENDBRANCH  18  19
ENDBRANCH   1  18
TORSDOF 6
ENDMDL
MODEL 4
REMARK VINA RESULT:    -8.243      2.425      3.188
REMARK INTER + INTRA:         -11.959
REMARK INTER:                 -10.888
REMARK INTRA:                  -1.070
REMARK UNBOUND:                -0.825
REMARK  Name = 
REMARK  9 active torsions:
REMARK  status: ('A' for Active; 'I' for Inactive)
REMARK    1  A    between atoms: C_1  and  C_2
REMARK    2  A    between atoms: N_5  and  C_6
REMARK    3  A    between atoms: C_8  and  C_9
REMARK    4  A    between atoms: C_9  and  C_10
REMARK    5  A    between atoms: C_9  and  C_11
REMARK    6  A    between atoms: C_9  and  C_12
REMARK    7  A    between atoms: C_12  and  N_13
REMARK    8  A    between atoms: N_13  and  C_14
REMARK    9  A    between atoms: C_17  and  C_18
REMARK                            x       y       z     vdW  Elec       q    Type
REMARK                         _______ _______ _______ _____ _____    ______ ____
ROOT
ATOM      1  C   UNL     1      44.340   5.289  11.973  0.00  0.00    +0.000 C 
ATOM      2  C   UNL     1      45.223   4.037  12.228  0.00  0.00    +0.000 C 
ATOM      3  C   UNL     1      43.199   5.323  13.019  0.00  0.00    +0.000 C 
ENDROOT
BRANCH   1   6
ATOM      4  C   UNL     1      47.423   7.560  12.544  0.00  0.00    +0.000 A 
ATOM      5  C   UNL     1      46.591   6.442  12.354  0.00  0.00    +0.000 A 
ATOM      6  C   UNL     1      45.208   6.555  12.107  0.00  0.00    +0.000 A 
ATOM      7  C   UNL     1      44.678   7.851  12.010  0.00  0.00    +0.000 A 
ATOM      8  C   UNL     1      45.474   8.975  12.183  0.00  0.00    +0.000 A 
ATOM      9  C   UNL     1      46.821   8.823  12.453  0.00  0.00    +0.000 A 
ATOM     10  F   UNL     1      47.546   9.944  12.591  0.00  0.00    +0.000 F 
BRANCH   4  15
ATOM     11  C   UNL     1      52.246   9.537  14.076  0.00  0.00    +0.000 C 
ATOM     12  C   UNL     1      51.329   8.399  13.637  0.00  0.00    +0.000 C 
ATOM     13  C   UNL     1      50.189   8.212  14.649  0.00  0.00    +0.000 C 
ATOM     14  C   UNL     1      49.210   7.138  14.196  0.00  0.00    +0.000 C 
ATOM     15  N   UNL     1      48.767   7.390  12.830  0.00  0.00    +0.000 N 
ATOM     16  C   UNL     1      49.789   7.564  11.804  0.00  0.00    +0.000 C 
ATOM     17  C   UNL     1      50.763   8.660  12.233  0.00  0.00    +0.000 C 
ENDBRANCH   4  15
ENDBRANCH   1   6
BRANCH   1  18
ATOM     18  C   UNL     1      43.712   5.134  10.555  0.00  0.00    +0.000 C 
BRANCH  18  19
ATOM     19  N   UNL     1      43.768   3.760  10.041  0.00  0.00    +0.000 N 
ATOM     20  H   UNL     1      42.885   3.256   9.942  0.00  0.00    +0.000 HD
BRANCH  19  21
ATOM     21  C   UNL     1      44.782   3.394   9.159  0.00  0.00    +0.000 A 
ATOM     22  C   UNL     1      45.520   4.400   8.523  0.00  0.00    +0.000 A 
ATOM     23  C   UNL     1      46.505   4.089   7.577  0.00  0.00    +0.000 A 
ATOM     24  C   UNL     1      46.755   2.757   7.229  0.00  0.00    +0.000 A 
ATOM     25  C   UNL     1      46.015   1.745   7.841  0.00  0.00    +0.000 A 
ATOM     26  C   UNL     1      45.040   2.069   8.777  0.00  0.00    +0.000 A 
ATOM     27  F   UNL     1      44.366   1.050   9.334  0.00  0.00    +0.000 F 
BRANCH  24  28
ATOM     28  C   UNL     1      47.781   2.340   6.225  0.00  0.00    +0.000 C 
ATOM     29  N   UNL     1      47.815   3.005   5.025  0.00  0.00    +0.000 N 
ATOM     30  O   UNL     1      48.564   1.444   6.450  0.00  0.00    +0.000 OA
ATOM     31  H   UNL     1      47.212   3.761   4.753  0.00  0.00    +0.000 HD
ATOM     32  H   UNL     1      48.520   2.701   4.369  0.00  0.00    +0.000 HD
ENDBRANCH  24  28
ENDBRANCH  19  21
ENDBRANCH  18  19
ENDBRANCH   1  18
TORSDOF 6
ENDMDL
MODEL 5
REMARK VINA RESULT:    -8.141      3.104      8.421
REMARK INTER + INTRA:         -11.821
REMARK INTER:                 -10.751
REMARK INTRA:                  -1.070
REMARK UNBOUND:                -0.825
REMARK  Name = 
REMARK  9 active torsions:
REMARK  status: ('A' for Active; 'I' for Inactive)
REMARK    1  A    between atoms: C_1  and  C_2
REMARK    2  A    between atoms: N_5  and  C_6
REMARK    3  A    between atoms: C_8  and  C_9
REMARK    4  A    between atoms: C_9  and  C_10
REMARK    5  A    between atoms: C_9  and  C_11
REMARK    6  A    between atoms: C_9  and  C_12
REMARK    7  A    between atoms: C_12  and  N_13
REMARK    8  A    between atoms: N_13  and  C_14
REMARK    9  A    between atoms: C_17  and  C_18
REMARK                            x       y       z     vdW  Elec       q    Type
REMARK                         _______ _______ _______ _____ _____    ______ ____
ROOT
ATOM      1  C   UNL     1      46.194   7.003  12.215  0.00  0.00    +0.000 C 
ATOM      2  C   UNL     1      47.451   6.991  11.303  0.00  0.00    +0.000 C 
ATOM      3  C   UNL     1      45.323   8.231  11.857  0.00  0.00    +0.000 C 
ENDROOT
BRANCH   1   6
ATOM      4  C   UNL     1      44.734   3.872  10.466  0.00  0.00    +0.000 A 
ATOM      5  C   UNL     1      45.487   5.024  10.756  0.00  0.00    +0.000 A 
ATOM      6  C   UNL     1      45.391   5.709  11.985  0.00  0.00    +0.000 A 
ATOM      7  C   UNL     1      44.531   5.169  12.954  0.00  0.00    +0.000 A 
ATOM      8  C   UNL     1      43.780   4.027  12.702  0.00  0.00    +0.000 A 
ATOM      9  C   UNL     1      43.880   3.401  11.474  0.00  0.00    +0.000 A 
ATOM     10  F   UNL     1      43.148   2.291  11.294  0.00  0.00    +0.000 F 
BRANCH   4  15
ATOM     11  C   UNL     1      47.692   1.897   6.359  0.00  0.00    +0.000 C 
ATOM     12  C   UNL     1      46.363   2.213   7.039  0.00  0.00    +0.000 C 
ATOM     13  C   UNL     1      46.253   1.460   8.373  0.00  0.00    +0.000 C 
ATOM     14  C   UNL     1      44.973   1.820   9.114  0.00  0.00    +0.000 C 
ATOM     15  N   UNL     1      44.833   3.266   9.226  0.00  0.00    +0.000 N 
ATOM     16  C   UNL     1      44.908   4.054   8.001  0.00  0.00    +0.000 C 
ATOM     17  C   UNL     1      46.204   3.725   7.260  0.00  0.00    +0.000 C 
ENDBRANCH   4  15
ENDBRANCH   1   6
BRANCH   1  18
ATOM     18  C   UNL     1      46.689   7.153  13.685  0.00  0.00    +0.000 C 
BRANCH  18  19
ATOM     19  N   UNL     1      47.899   6.372  13.975  0.00  0.00    +0.000 N 
ATOM     20  H   UNL     1      48.740   6.586  13.437  0.00  0.00    +0.000 HD
BRANCH  19  21
ATOM     21  C   UNL     1      48.106   5.872  15.258  0.00  0.00    +0.000 A 
ATOM     22  C   UNL     1      48.977   6.555  16.117  0.00  0.00    +0.000 A 
ATOM     23  C   UNL     1      49.272   6.059  17.394  0.00  0.00    +0.000 A 
ATOM     24  C   UNL     1      48.717   4.851  17.828  0.00  0.00    +0.000 A 
ATOM     25  C   UNL     1      47.863   4.150  16.977  0.00  0.00    +0.000 A 
ATOM     26  C   UNL     1      47.579   4.653  15.713  0.00  0.00    +0.000 A 
ATOM     27  F   UNL     1      46.746   3.936  14.943  0.00  0.00    +0.000 F 
BRANCH  24  28
ATOM     28  C   UNL     1      48.986   4.249  19.170  0.00  0.00    +0.000 C 
ATOM     29  N   UNL     1      48.313   3.100  19.506  0.00  0.00    +0.000 N 
ATOM     30  O   UNL     1      49.771   4.747  19.945  0.00  0.00    +0.000 OA
ATOM     31  H   UNL     1      47.651   2.614  18.929  0.00  0.00    +0.000 HD
ATOM     32  H   UNL     1      48.519   2.717  20.418  0.00  0.00    +0.000 HD
ENDBRANCH  24  28
ENDBRANCH  19  21
ENDBRANCH  18  19
ENDBRANCH   1  18
TORSDOF 6
ENDMDL
MODEL 6
REMARK VINA RESULT:    -7.755      3.184      4.814
REMARK INTER + INTRA:         -11.300
REMARK INTER:                  -9.705
REMARK INTRA:                  -1.595
REMARK UNBOUND:                -0.825
REMARK  Name = 
REMARK  9 active torsions:
REMARK  status: ('A' for Active; 'I' for Inactive)
REMARK    1  A    between atoms: C_1  and  C_2
REMARK    2  A    between atoms: N_5  and  C_6
REMARK    3  A    between atoms: C_8  and  C_9
REMARK    4  A    between atoms: C_9  and  C_10
REMARK    5  A    between atoms: C_9  and  C_11
REMARK    6  A    between atoms: C_9  and  C_12
REMARK    7  A    between atoms: C_12  and  N_13
REMARK    8  A    between atoms: N_13  and  C_14
REMARK    9  A    between atoms: C_17  and  C_18
REMARK                            x       y       z     vdW  Elec       q    Type
REMARK                         _______ _______ _______ _____ _____    ______ ____
ROOT
ATOM      1  C   UNL     1      48.533   8.110  13.214  0.00  0.00    +0.000 C 
ATOM      2  C   UNL     1      49.478   9.219  12.676  0.00  0.00    +0.000 C 
ATOM      3  C   UNL     1      49.036   6.733  12.715  0.00  0.00    +0.000 C 
ENDROOT
BRANCH   1   6
ATOM      4  C   UNL     1      48.785   6.923  16.890  0.00  0.00    +0.000 A 
ATOM      5  C   UNL     1      48.820   6.969  15.485  0.00  0.00    +0.000 A 
ATOM      6  C   UNL     1      48.541   8.142  14.754  0.00  0.00    +0.000 A 
ATOM      7  C   UNL     1      48.263   9.305  15.489  0.00  0.00    +0.000 A 
ATOM      8  C   UNL     1      48.229   9.294  16.877  0.00  0.00    +0.000 A 
ATOM      9  C   UNL     1      48.479   8.118  17.558  0.00  0.00    +0.000 A 
ATOM     10  F   UNL     1      48.453   8.171  18.899  0.00  0.00    +0.000 F 
BRANCH   4  15
ATOM     11  C   UNL     1      50.572   1.793  16.977  0.00  0.00    +0.000 C 
ATOM     12  C   UNL     1      49.956   3.022  17.640  0.00  0.00    +0.000 C 
ATOM     13  C   UNL     1      50.935   4.203  17.588  0.00  0.00    +0.000 C 
ATOM     14  C   UNL     1      50.317   5.468  18.168  0.00  0.00    +0.000 C 
ATOM     15  N   UNL     1      49.021   5.733  17.557  0.00  0.00    +0.000 N 
ATOM     16  C   UNL     1      48.026   4.666  17.579  0.00  0.00    +0.000 C 
ATOM     17  C   UNL     1      48.624   3.398  16.972  0.00  0.00    +0.000 C 
ENDBRANCH   4  15
ENDBRANCH   1   6
BRANCH   1  18
ATOM     18  C   UNL     1      47.119   8.372  12.612  0.00  0.00    +0.000 C 
BRANCH  18  19
ATOM     19  N   UNL     1      46.053   7.613  13.278  0.00  0.00    +0.000 N 
ATOM     20  H   UNL     1      45.377   8.138  13.835  0.00  0.00    +0.000 HD
BRANCH  19  21
ATOM     21  C   UNL     1      45.588   6.431  12.707  0.00  0.00    +0.000 A 
ATOM     22  C   UNL     1      44.835   6.501  11.528  0.00  0.00    +0.000 A 
ATOM     23  C   UNL     1      44.287   5.349  10.949  0.00  0.00    +0.000 A 
ATOM     24  C   UNL     1      44.462   4.100  11.556  0.00  0.00    +0.000 A 
ATOM     25  C   UNL     1      45.195   4.018  12.740  0.00  0.00    +0.000 A 
ATOM     26  C   UNL     1      45.732   5.169  13.304  0.00  0.00    +0.000 A 
ATOM     27  F   UNL     1      46.431   5.024  14.441  0.00  0.00    +0.000 F 
BRANCH  24  28
ATOM     28  C   UNL     1      43.905   2.826  11.010  0.00  0.00    +0.000 C 
ATOM     29  N   UNL     1      44.513   2.278   9.908  0.00  0.00    +0.000 N 
ATOM     30  O   UNL     1      42.948   2.282  11.513  0.00  0.00    +0.000 OA
ATOM     31  H   UNL     1      45.312   2.652   9.428  0.00  0.00    +0.000 HD
ATOM     32  H   UNL     1      44.115   1.416   9.564  0.00  0.00    +0.000 HD
ENDBRANCH  24  28
ENDBRANCH  19  21
ENDBRANCH  18  19
ENDBRANCH   1  18
TORSDOF 6
ENDMDL
MODEL 7
REMARK VINA RESULT:    -6.801      3.661      7.911
REMARK INTER + INTRA:         -10.012
REMARK INTER:                  -8.775
REMARK INTRA:                  -1.237
REMARK UNBOUND:                -0.825
REMARK  Name = 
REMARK  9 active torsions:
REMARK  status: ('A' for Active; 'I' for Inactive)
REMARK    1  A    between atoms: C_1  and  C_2
REMARK    2  A    between atoms: N_5  and  C_6
REMARK    3  A    between atoms: C_8  and  C_9
REMARK    4  A    between atoms: C_9  and  C_10
REMARK    5  A    between atoms: C_9  and  C_11
REMARK    6  A    between atoms: C_9  and  C_12
REMARK    7  A    between atoms: C_12  and  N_13
REMARK    8  A    between atoms: N_13  and  C_14
REMARK    9  A    between atoms: C_17  and  C_18
REMARK                            x       y       z     vdW  Elec       q    Type
REMARK                         _______ _______ _______ _____ _____    ______ ____
ROOT
ATOM      1  C   UNL     1      48.331   9.291  12.673  0.00  0.00    +0.000 C 
ATOM      2  C   UNL     1      49.175   8.213  11.940  0.00  0.00    +0.000 C 
ATOM      3  C   UNL     1      48.876  10.693  12.306  0.00  0.00    +0.000 C 
ENDROOT
BRANCH   1   6
ATOM      4  C   UNL     1      44.876   7.743  11.862  0.00  0.00    +0.000 A 
ATOM      5  C   UNL     1      46.197   7.929  12.307  0.00  0.00    +0.000 A 
ATOM      6  C   UNL     1      46.861   9.170  12.228  0.00  0.00    +0.000 A 
ATOM      7  C   UNL     1      46.132  10.255  11.716  0.00  0.00    +0.000 A 
ATOM      8  C   UNL     1      44.823  10.107  11.277  0.00  0.00    +0.000 A 
ATOM      9  C   UNL     1      44.216   8.868  11.344  0.00  0.00    +0.000 A 
ATOM     10  F   UNL     1      42.944   8.787  10.924  0.00  0.00    +0.000 F 
BRANCH   4  15
ATOM     11  C   UNL     1      44.590   2.543  10.313  0.00  0.00    +0.000 C 
ATOM     12  C   UNL     1      44.107   3.741  11.127  0.00  0.00    +0.000 C 
ATOM     13  C   UNL     1      45.218   4.229  12.068  0.00  0.00    +0.000 C 
ATOM     14  C   UNL     1      44.794   5.475  12.835  0.00  0.00    +0.000 C 
ATOM     15  N   UNL     1      44.288   6.492  11.921  0.00  0.00    +0.000 N 
ATOM     16  C   UNL     1      43.218   6.112  11.004  0.00  0.00    +0.000 C 
ATOM     17  C   UNL     1      43.643   4.880  10.207  0.00  0.00    +0.000 C 
ENDBRANCH   4  15
ENDBRANCH   1   6
BRANCH   1  18
ATOM     18  C   UNL     1      48.519   9.067  14.203  0.00  0.00    +0.000 C 
BRANCH  18  19
ATOM     19  N   UNL     1      49.344   7.895  14.523  0.00  0.00    +0.000 N 
ATOM     20  H   UNL     1      50.353   8.032  14.591  0.00  0.00    +0.000 HD
BRANCH  19  21
ATOM     21  C   UNL     1      48.813   6.870  15.303  0.00  0.00    +0.000 A 
ATOM     22  C   UNL     1      49.049   6.879  16.683  0.00  0.00    +0.000 A 
ATOM     23  C   UNL     1      48.595   5.838  17.503  0.00  0.00    +0.000 A 
ATOM     24  C   UNL     1      47.914   4.748  16.949  0.00  0.00    +0.000 A 
ATOM     25  C   UNL     1      47.687   4.717  15.574  0.00  0.00    +0.000 A 
ATOM     26  C   UNL     1      48.144   5.757  14.772  0.00  0.00    +0.000 A 
ATOM     27  F   UNL     1      47.890   5.670  13.457  0.00  0.00    +0.000 F 
BRANCH  24  28
ATOM     28  C   UNL     1      47.404   3.594  17.751  0.00  0.00    +0.000 C 
ATOM     29  N   UNL     1      48.030   3.309  18.938  0.00  0.00    +0.000 N 
ATOM     30  O   UNL     1      46.469   2.923  17.376  0.00  0.00    +0.000 OA
ATOM     31  H   UNL     1      48.806   3.811  19.331  0.00  0.00    +0.000 HD
ATOM     32  H   UNL     1      47.661   2.525  19.457  0.00  0.00    +0.000 HD
ENDBRANCH  24  28
ENDBRANCH  19  21
ENDBRANCH  18  19
ENDBRANCH   1  18
TORSDOF 6
ENDMDL
MODEL 8
REMARK VINA RESULT:    -6.694      3.902      8.724
REMARK INTER + INTRA:          -9.867
REMARK INTER:                  -8.799
REMARK INTRA:                  -1.069
REMARK UNBOUND:                -0.825
REMARK  Name = 
REMARK  9 active torsions:
REMARK  status: ('A' for Active; 'I' for Inactive)
REMARK    1  A    between atoms: C_1  and  C_2
REMARK    2  A    between atoms: N_5  and  C_6
REMARK    3  A    between atoms: C_8  and  C_9
REMARK    4  A    between atoms: C_9  and  C_10
REMARK    5  A    between atoms: C_9  and  C_11
REMARK    6  A    between atoms: C_9  and  C_12
REMARK    7  A    between atoms: C_12  and  N_13
REMARK    8  A    between atoms: N_13  and  C_14
REMARK    9  A    between atoms: C_17  and  C_18
REMARK                            x       y       z     vdW  Elec       q    Type
REMARK                         _______ _______ _______ _____ _____    ______ ____
ROOT
ATOM      1  C   UNL     1      49.803   7.081  16.490  0.00  0.00    +0.000 C 
ATOM      2  C   UNL     1      50.450   8.460  16.792  0.00  0.00    +0.000 C 
ATOM      3  C   UNL     1      48.635   6.844  17.478  0.00  0.00    +0.000 C 
ENDROOT
BRANCH   1   6
ATOM      4  C   UNL     1      47.481   6.464  13.454  0.00  0.00    +0.000 A 
ATOM      5  C   UNL     1      47.995   6.547  14.759  0.00  0.00    +0.000 A 
ATOM      6  C   UNL     1      49.270   7.079  15.044  0.00  0.00    +0.000 A 
ATOM      7  C   UNL     1      50.013   7.575  13.962  0.00  0.00    +0.000 A 
ATOM      8  C   UNL     1      49.530   7.516  12.662  0.00  0.00    +0.000 A 
ATOM      9  C   UNL     1      48.287   6.962  12.419  0.00  0.00    +0.000 A 
ATOM     10  F   UNL     1      47.862   6.949  11.147  0.00  0.00    +0.000 F 
BRANCH   4  15
ATOM     11  C   UNL     1      43.897   4.029  10.176  0.00  0.00    +0.000 C 
ATOM     12  C   UNL     1      44.324   4.602  11.524  0.00  0.00    +0.000 C 
ATOM     13  C   UNL     1      45.551   3.849  12.059  0.00  0.00    +0.000 C 
ATOM     14  C   UNL     1      46.052   4.452  13.364  0.00  0.00    +0.000 C 
ATOM     15  N   UNL     1      46.242   5.890  13.226  0.00  0.00    +0.000 N 
ATOM     16  C   UNL     1      45.117   6.682  12.739  0.00  0.00    +0.000 C 
ATOM     17  C   UNL     1      44.622   6.105  11.413  0.00  0.00    +0.000 C 
ENDBRANCH   4  15
ENDBRANCH   1   6
BRANCH   1  18
ATOM     18  C   UNL     1      50.891   5.993  16.734  0.00  0.00    +0.000 C 
BRANCH  18  19
ATOM     19  N   UNL     1      50.493   4.982  17.721  0.00  0.00    +0.000 N 
ATOM     20  H   UNL     1      49.510   4.953  17.997  0.00  0.00    +0.000 HD
BRANCH  19  21
ATOM     21  C   UNL     1      51.182   3.773  17.788  0.00  0.00    +0.000 A 
ATOM     22  C   UNL     1      52.509   3.776  18.237  0.00  0.00    +0.000 A 
ATOM     23  C   UNL     1      53.269   2.599  18.260  0.00  0.00    +0.000 A 
ATOM     24  C   UNL     1      52.719   1.395  17.808  0.00  0.00    +0.000 A 
ATOM     25  C   UNL     1      51.405   1.380  17.341  0.00  0.00    +0.000 A 
ATOM     26  C   UNL     1      50.663   2.555  17.324  0.00  0.00    +0.000 A 
ATOM     27  F   UNL     1      49.403   2.475  16.868  0.00  0.00    +0.000 F 
BRANCH  24  28
ATOM     28  C   UNL     1      53.462   0.098  17.792  0.00  0.00    +0.000 C 
ATOM     29  N   UNL     1      53.089  -0.870  18.691  0.00  0.00    +0.000 N 
ATOM     30  O   UNL     1      54.368  -0.106  17.015  0.00  0.00    +0.000 OA
ATOM     31  H   UNL     1      52.349  -0.793  19.366  0.00  0.00    +0.000 HD
ATOM     32  H   UNL     1      53.609  -1.735  18.653  0.00  0.00    +0.000 HD
ENDBRANCH  24  28
ENDBRANCH  19  21
ENDBRANCH  18  19
ENDBRANCH   1  18
TORSDOF 6
ENDMDL
MODEL 9
REMARK VINA RESULT:    -6.576      3.565      5.771
REMARK INTER + INTRA:          -9.707
REMARK INTER:                  -8.351
REMARK INTRA:                  -1.357
REMARK UNBOUND:                -0.825
REMARK  Name = 
REMARK  9 active torsions:
REMARK  status: ('A' for Active; 'I' for Inactive)
REMARK    1  A    between atoms: C_1  and  C_2
REMARK    2  A    between atoms: N_5  and  C_6
REMARK    3  A    between atoms: C_8  and  C_9
REMARK    4  A    between atoms: C_9  and  C_10
REMARK    5  A    between atoms: C_9  and  C_11
REMARK    6  A    between atoms: C_9  and  C_12
REMARK    7  A    between atoms: C_12  and  N_13
REMARK    8  A    between atoms: N_13  and  C_14
REMARK    9  A    between atoms: C_17  and  C_18
REMARK                            x       y       z     vdW  Elec       q    Type
REMARK                         _______ _______ _______ _____ _____    ______ ____
ROOT
ATOM      1  C   UNL     1      49.846   8.789  13.277  0.00  0.00    +0.000 C 
ATOM      2  C   UNL     1      49.686  10.283  13.670  0.00  0.00    +0.000 C 
ATOM      3  C   UNL     1      50.505   8.704  11.878  0.00  0.00    +0.000 C 
ENDROOT
BRANCH   1   6
ATOM      4  C   UNL     1      50.918   6.601  16.286  0.00  0.00    +0.000 A 
ATOM      5  C   UNL     1      50.164   7.225  15.276  0.00  0.00    +0.000 A 
ATOM      6  C   UNL     1      50.738   8.085  14.317  0.00  0.00    +0.000 A 
ATOM      7  C   UNL     1      52.128   8.272  14.375  0.00  0.00    +0.000 A 
ATOM      8  C   UNL     1      52.902   7.664  15.354  0.00  0.00    +0.000 A 
ATOM      9  C   UNL     1      52.299   6.850  16.294  0.00  0.00    +0.000 A 
ATOM     10  F   UNL     1      53.097   6.272  17.204  0.00  0.00    +0.000 F 
BRANCH   4  15
ATOM     11  C   UNL     1      47.252   2.833  17.660  0.00  0.00    +0.000 C 
ATOM     12  C   UNL     1      48.373   3.815  17.992  0.00  0.00    +0.000 C 
ATOM     13  C   UNL     1      49.655   3.437  17.236  0.00  0.00    +0.000 C 
ATOM     14  C   UNL     1      50.768   4.447  17.484  0.00  0.00    +0.000 C 
ATOM     15  N   UNL     1      50.296   5.803  17.230  0.00  0.00    +0.000 N 
ATOM     16  C   UNL     1      49.092   6.246  17.924  0.00  0.00    +0.000 C 
ATOM     17  C   UNL     1      47.957   5.256  17.660  0.00  0.00    +0.000 C 
ENDBRANCH   4  15
ENDBRANCH   1   6
BRANCH   1  18
ATOM     18  C   UNL     1      48.417   8.175  13.192  0.00  0.00    +0.000 C 
BRANCH  18  19
ATOM     19  N   UNL     1      48.330   7.024  12.284  0.00  0.00    +0.000 N 
ATOM     20  H   UNL     1      49.202   6.560  12.025  0.00  0.00    +0.000 HD
BRANCH  19  21
ATOM     21  C   UNL     1      47.191   6.223  12.293  0.00  0.00    +0.000 A 
ATOM     22  C   UNL     1      46.335   6.253  11.184  0.00  0.00    +0.000 A 
ATOM     23  C   UNL     1      45.142   5.519  11.169  0.00  0.00    +0.000 A 
ATOM     24  C   UNL     1      44.769   4.754  12.280  0.00  0.00    +0.000 A 
ATOM     25  C   UNL     1      45.602   4.729  13.398  0.00  0.00    +0.000 A 
ATOM     26  C   UNL     1      46.782   5.463  13.399  0.00  0.00    +0.000 A 
ATOM     27  F   UNL     1      47.544   5.393  14.503  0.00  0.00    +0.000 F 
BRANCH  24  28
ATOM     28  C   UNL     1      43.511   3.949  12.349  0.00  0.00    +0.000 C 
ATOM     29  N   UNL     1      42.354   4.523  11.886  0.00  0.00    +0.000 N 
ATOM     30  O   UNL     1      43.499   2.824  12.796  0.00  0.00    +0.000 OA
ATOM     31  H   UNL     1      42.267   5.444  11.494  0.00  0.00    +0.000 HD
ATOM     32  H   UNL     1      41.522   3.953  11.944  0.00  0.00    +0.000 HD
ENDBRANCH  24  28
ENDBRANCH  19  21
ENDBRANCH  18  19
ENDBRANCH   1  18
TORSDOF 6
ENDMDL
