MODEL 1
REMARK VINA RESULT:    -8.441      0.000      0.000
REMARK INTER + INTRA:         -11.823
REMARK INTER:                 -10.908
REMARK INTRA:                  -0.915
REMARK UNBOUND:                -0.915
REMARK  Name = 
REMARK  5 active torsions:
REMARK  status: ('A' for Active; 'I' for Inactive)
REMARK    1  A    between atoms: C_2  and  C_3
REMARK    2  A    between atoms: C_6  and  N_7
REMARK    3  A    between atoms: N_7  and  C_8
REMARK    4  A    between atoms: C_8  and  C_9
REMARK    5  A    between atoms: C_13  and  C_14
REMARK                            x       y       z     vdW  Elec       q    Type
REMARK                         _______ _______ _______ _____ _____    ______ ____
ROOT
ATOM      1  C   UNL     1      43.886   4.976  11.146  0.00  0.00    +0.000 C 
ATOM      2  C   UNL     1      42.623   5.056  11.995  0.00  0.00    +0.000 C 
ATOM      3  C   UNL     1      42.981   6.186  11.087  0.00  0.00    +0.000 C 
ENDROOT
BRANCH   1   4
ATOM      4  C   UNL     1      45.246   5.096  11.813  0.00  0.00    +0.000 A 
ATOM      5  C   UNL     1      45.651   4.245  12.851  0.00  0.00    +0.000 A 
ATOM      6  C   UNL     1      46.804   4.509  13.589  0.00  0.00    +0.000 A 
ATOM      7  C   UNL     1      47.567   5.645  13.310  0.00  0.00    +0.000 A 
ATOM      8  C   UNL     1      47.211   6.523  12.274  0.00  0.00    +0.000 A 
ATOM      9  C   UNL     1      46.073   6.197  11.517  0.00  0.00    +0.000 A 
BRANCH   8  10
ATOM     10  C   UNL     1      47.922   7.802  12.053  0.00  0.00    +0.000 A 
ATOM     11  C   UNL     1      49.258   7.805  11.605  0.00  0.00    +0.000 A 
ATOM     12  C   UNL     1      49.976   8.996  11.450  0.00  0.00    +0.000 A 
ATOM     13  C   UNL     1      49.378  10.216  11.751  0.00  0.00    +0.000 A 
ATOM     14  C   UNL     1      48.062  10.243  12.201  0.00  0.00    +0.000 A 
ATOM     15  C   UNL     1      47.349   9.051  12.344  0.00  0.00    +0.000 A 
ATOM     16  F   UNL     1      46.085   9.135  12.789  0.00  0.00    +0.000 F 
ENDBRANCH   8  10
ENDBRANCH   1   4
BRANCH   1  17
ATOM     17  N   UNL     1      43.838   3.858  10.183  0.00  0.00    +0.000 N 
ATOM     18  H   UNL     1      43.386   3.029  10.569  0.00  0.00    +0.000 HD
BRANCH  17  22
ATOM     19  C   UNL     1      46.668   2.605   7.469  0.00  0.00    +0.000 A 
ATOM     20  N   UNL     1      46.405   3.927   7.485  0.00  0.00    +0.000 NA
ATOM     21  C   UNL     1      45.500   4.340   8.406  0.00  0.00    +0.000 A 
ATOM     22  C   UNL     1      44.870   3.506   9.304  0.00  0.00    +0.000 A 
ATOM     23  C   UNL     1      45.237   2.168   9.175  0.00  0.00    +0.000 A 
ATOM     24  N   UNL     1      46.127   1.690   8.294  0.00  0.00    +0.000 NA
BRANCH  19  26
ATOM     25  N   UNL     1      48.316   1.736   5.652  0.00  0.00    +0.000 NA
ATOM     26  C   UNL     1      47.580   2.125   6.468  0.00  0.00    +0.000 C 
ENDBRANCH  19  26
ENDBRANCH  17  22
ENDBRANCH   1  17
TORSDOF 5
ENDMDL
MODEL 2
REMARK VINA RESULT:    -8.065      3.453      6.924
REMARK INTER + INTRA:         -11.337
REMARK INTER:                 -10.413
REMARK INTRA:                  -0.924
REMARK UNBOUND:                -0.915
REMARK  Name = 
REMARK  5 active torsions:
REMARK  status: ('A' for Active; 'I' for Inactive)
REMARK    1  A    between atoms: C_2  and  C_3
REMARK    2  A    between atoms: C_6  and  N_7
REMARK    3  A    between atoms: N_7  and  C_8
REMARK    4  A    between atoms: C_8  and  C_9
REMARK    5  A    between atoms: C_13  and  C_14
REMARK                            x       y       z     vdW  Elec       q    Type
REMARK                         _______ _______ _______ _____ _____    ______ ____
ROOT
ATOM      1  C   UNL     1      46.098   7.368  12.135  0.00  0.00    +0.000 C 
ATOM      2  C   UNL     1      46.349   8.808  11.707  0.00  0.00    +0.000 C 
ATOM      3  C   UNL     1      45.496   8.526  12.899  0.00  0.00    +0.000 C 
ENDROOT
BRANCH   1   4
ATOM      4  C   UNL     1      45.193   6.483  11.293  0.00  0.00    +0.000 A 
ATOM      5  C   UNL     1      43.842   6.277  11.607  0.00  0.00    +0.000 A 
ATOM      6  C   UNL     1      43.094   5.298  10.954  0.00  0.00    +0.000 A 
ATOM      7  C   UNL     1      43.693   4.495   9.981  0.00  0.00    +0.000 A 
ATOM      8  C   UNL     1      45.039   4.668   9.622  0.00  0.00    +0.000 A 
ATOM      9  C   UNL     1      45.747   5.698  10.263  0.00  0.00    +0.000 A 
BRANCH   8  10
ATOM     10  C   UNL     1      45.729   3.740   8.699  0.00  0.00    +0.000 A 
ATOM     11  C   UNL     1      46.442   4.237   7.591  0.00  0.00    +0.000 A 
ATOM     12  C   UNL     1      47.049   3.381   6.666  0.00  0.00    +0.000 A 
ATOM     13  C   UNL     1      46.946   2.001   6.820  0.00  0.00    +0.000 A 
ATOM     14  C   UNL     1      46.242   1.482   7.901  0.00  0.00    +0.000 A 
ATOM     15  C   UNL     1      45.648   2.342   8.825  0.00  0.00    +0.000 A 
ATOM     16  F   UNL     1      44.975   1.787   9.846  0.00  0.00    +0.000 F 
ENDBRANCH   8  10
ENDBRANCH   1   4
BRANCH   1  17
ATOM     17  N   UNL     1      47.344   6.677  12.523  0.00  0.00    +0.000 N 
ATOM     18  H   UNL     1      47.887   6.369  11.716  0.00  0.00    +0.000 HD
BRANCH  17  22
ATOM     19  C   UNL     1      47.607   4.267  15.849  0.00  0.00    +0.000 A 
ATOM     20  N   UNL     1      46.866   3.792  14.829  0.00  0.00    +0.000 NA
ATOM     21  C   UNL     1      46.814   4.571  13.721  0.00  0.00    +0.000 A 
ATOM     22  C   UNL     1      47.469   5.776  13.587  0.00  0.00    +0.000 A 
ATOM     23  C   UNL     1      48.195   6.145  14.718  0.00  0.00    +0.000 A 
ATOM     24  N   UNL     1      48.297   5.423  15.843  0.00  0.00    +0.000 NA
BRANCH  19  26
ATOM     25  N   UNL     1      47.665   2.860  18.038  0.00  0.00    +0.000 NA
ATOM     26  C   UNL     1      47.639   3.493  17.059  0.00  0.00    +0.000 C 
ENDBRANCH  19  26
ENDBRANCH  17  22
ENDBRANCH   1  17
TORSDOF 5
ENDMDL
MODEL 3
REMARK VINA RESULT:    -7.415      2.098      3.884
REMARK INTER + INTRA:         -10.497
REMARK INTER:                 -10.019
REMARK INTRA:                  -0.478
REMARK UNBOUND:                -0.915
REMARK  Name = 
REMARK  5 active torsions:
REMARK  status: ('A' for Active; 'I' for Inactive)
REMARK    1  A    between atoms: C_2  and  C_3
REMARK    2  A    between atoms: C_6  and  N_7
REMARK    3  A    between atoms: N_7  and  C_8
REMARK    4  A    between atoms: C_8  and  C_9
REMARK    5  A    between atoms: C_13  and  C_14
REMARK                            x       y       z     vdW  Elec       q    Type
REMARK                         _______ _______ _______ _____ _____    ______ ____
ROOT
ATOM      1  C   UNL     1      44.107   5.031  11.826  0.00  0.00    +0.000 C 
ATOM      2  C   UNL     1      42.818   5.113  12.634  0.00  0.00    +0.000 C 
ATOM      3  C   UNL     1      42.986   5.958  11.414  0.00  0.00    +0.000 C 
ENDROOT
BRANCH   1   4
ATOM      4  C   UNL     1      45.387   5.619  12.396  0.00  0.00    +0.000 A 
ATOM      5  C   UNL     1      46.211   6.480  11.656  0.00  0.00    +0.000 A 
ATOM      6  C   UNL     1      47.479   6.831  12.115  0.00  0.00    +0.000 A 
ATOM      7  C   UNL     1      47.954   6.311  13.321  0.00  0.00    +0.000 A 
ATOM      8  C   UNL     1      47.166   5.453  14.104  0.00  0.00    +0.000 A 
ATOM      9  C   UNL     1      45.873   5.163  13.636  0.00  0.00    +0.000 A 
BRANCH   8  10
ATOM     10  C   UNL     1      47.700   4.781  15.310  0.00  0.00    +0.000 A 
ATOM     11  C   UNL     1      47.546   3.391  15.476  0.00  0.00    +0.000 A 
ATOM     12  C   UNL     1      47.982   2.739  16.635  0.00  0.00    +0.000 A 
ATOM     13  C   UNL     1      48.575   3.466  17.663  0.00  0.00    +0.000 A 
ATOM     14  C   UNL     1      48.734   4.841  17.529  0.00  0.00    +0.000 A 
ATOM     15  C   UNL     1      48.305   5.483  16.366  0.00  0.00    +0.000 A 
ATOM     16  F   UNL     1      48.477   6.812  16.293  0.00  0.00    +0.000 F 
ENDBRANCH   8  10
ENDBRANCH   1   4
BRANCH   1  17
ATOM     17  N   UNL     1      44.321   3.686  11.256  0.00  0.00    +0.000 N 
ATOM     18  H   UNL     1      44.714   3.032  11.934  0.00  0.00    +0.000 HD
BRANCH  17  22
ATOM     19  C   UNL     1      45.975   3.113   7.531  0.00  0.00    +0.000 A 
ATOM     20  N   UNL     1      45.732   2.000   8.250  0.00  0.00    +0.000 NA
ATOM     21  C   UNL     1      45.152   2.190   9.460  0.00  0.00    +0.000 A 
ATOM     22  C   UNL     1      44.799   3.423   9.967  0.00  0.00    +0.000 A 
ATOM     23  C   UNL     1      45.108   4.484   9.119  0.00  0.00    +0.000 A 
ATOM     24  N   UNL     1      45.675   4.370   7.909  0.00  0.00    +0.000 NA
BRANCH  19  26
ATOM     25  N   UNL     1      47.184   2.821   5.245  0.00  0.00    +0.000 NA
ATOM     26  C   UNL     1      46.640   2.952   6.267  0.00  0.00    +0.000 C 
ENDBRANCH  19  26
ENDBRANCH  17  22
ENDBRANCH   1  17
TORSDOF 5
ENDMDL
MODEL 4
REMARK VINA RESULT:    -7.085      3.641      7.034
REMARK INTER + INTRA:         -10.071
REMARK INTER:                  -9.519
REMARK INTRA:                  -0.552
REMARK UNBOUND:                -0.915
REMARK  Name = 
REMARK  5 active torsions:
REMARK  status: ('A' for Active; 'I' for Inactive)
REMARK    1  A    between atoms: C_2  and  C_3
REMARK    2  A    between atoms: C_6  and  N_7
REMARK    3  A    between atoms: N_7  and  C_8
REMARK    4  A    between atoms: C_8  and  C_9
REMARK    5  A    between atoms: C_13  and  C_14
REMARK                            x       y       z     vdW  Elec       q    Type
REMARK                         _______ _______ _______ _____ _____    ______ ____
ROOT
ATOM      1  C   UNL     1      45.302   6.513  11.557  0.00  0.00    +0.000 C 
ATOM      2  C   UNL     1      44.559   7.820  11.308  0.00  0.00    +0.000 C 
ATOM      3  C   UNL     1      44.575   7.223  12.677  0.00  0.00    +0.000 C 
ENDROOT
BRANCH   1   4
ATOM      4  C   UNL     1      44.736   5.214  11.010  0.00  0.00    +0.000 A 
ATOM      5  C   UNL     1      43.744   4.485  11.682  0.00  0.00    +0.000 A 
ATOM      6  C   UNL     1      43.399   3.197  11.276  0.00  0.00    +0.000 A 
ATOM      7  C   UNL     1      44.054   2.607  10.193  0.00  0.00    +0.000 A 
ATOM      8  C   UNL     1      45.046   3.298   9.479  0.00  0.00    +0.000 A 
ATOM      9  C   UNL     1      45.331   4.613   9.884  0.00  0.00    +0.000 A 
BRANCH   8  10
ATOM     10  C   UNL     1      45.849   2.644   8.422  0.00  0.00    +0.000 A 
ATOM     11  C   UNL     1      45.979   1.242   8.392  0.00  0.00    +0.000 A 
ATOM     12  C   UNL     1      46.785   0.600   7.445  0.00  0.00    +0.000 A 
ATOM     13  C   UNL     1      47.490   1.349   6.507  0.00  0.00    +0.000 A 
ATOM     14  C   UNL     1      47.385   2.736   6.516  0.00  0.00    +0.000 A 
ATOM     15  C   UNL     1      46.572   3.368   7.458  0.00  0.00    +0.000 A 
ATOM     16  F   UNL     1      46.513   4.709   7.426  0.00  0.00    +0.000 F 
ENDBRANCH   8  10
ENDBRANCH   1   4
BRANCH   1  17
ATOM     17  N   UNL     1      46.750   6.639  11.298  0.00  0.00    +0.000 N 
ATOM     18  H   UNL     1      47.067   6.025  10.548  0.00  0.00    +0.000 HD
BRANCH  17  22
ATOM     19  C   UNL     1      49.522   7.359  14.255  0.00  0.00    +0.000 A 
ATOM     20  N   UNL     1      48.802   6.226  14.378  0.00  0.00    +0.000 NA
ATOM     21  C   UNL     1      47.918   5.974  13.382  0.00  0.00    +0.000 A 
ATOM     22  C   UNL     1      47.735   6.784  12.283  0.00  0.00    +0.000 A 
ATOM     23  C   UNL     1      48.543   7.919  12.285  0.00  0.00    +0.000 A 
ATOM     24  N   UNL     1      49.442   8.229  13.231  0.00  0.00    +0.000 NA
BRANCH  19  26
ATOM     25  N   UNL     1      51.162   7.948  16.188  0.00  0.00    +0.000 NA
ATOM     26  C   UNL     1      50.429   7.686  15.320  0.00  0.00    +0.000 C 
ENDBRANCH  19  26
ENDBRANCH  17  22
ENDBRANCH   1  17
TORSDOF 5
ENDMDL
MODEL 5
REMARK VINA RESULT:    -6.908      1.855      2.717
REMARK INTER + INTRA:          -9.842
REMARK INTER:                  -8.781
REMARK INTRA:                  -1.061
REMARK UNBOUND:                -0.915
REMARK  Name = 
REMARK  5 active torsions:
REMARK  status: ('A' for Active; 'I' for Inactive)
REMARK    1  A    between atoms: C_2  and  C_3
REMARK    2  A    between atoms: C_6  and  N_7
REMARK    3  A    between atoms: N_7  and  C_8
REMARK    4  A    between atoms: C_8  and  C_9
REMARK    5  A    between atoms: C_13  and  C_14
REMARK                            x       y       z     vdW  Elec       q    Type
REMARK                         _______ _______ _______ _____ _____    ______ ____
ROOT
ATOM      1  C   UNL     1      43.882   5.538  11.983  0.00  0.00    +0.000 C 
ATOM      2  C   UNL     1      42.912   5.070  13.061  0.00  0.00    +0.000 C 
ATOM      3  C   UNL     1      42.391   5.495  11.727  0.00  0.00    +0.000 C 
ENDROOT
BRANCH   1   4
ATOM      4  C   UNL     1      44.572   6.884  12.128  0.00  0.00    +0.000 A 
ATOM      5  C   UNL     1      44.111   8.038  11.479  0.00  0.00    +0.000 A 
ATOM      6  C   UNL     1      44.878   9.202  11.452  0.00  0.00    +0.000 A 
ATOM      7  C   UNL     1      46.132   9.226  12.064  0.00  0.00    +0.000 A 
ATOM      8  C   UNL     1      46.635   8.102  12.737  0.00  0.00    +0.000 A 
ATOM      9  C   UNL     1      45.813   6.963  12.789  0.00  0.00    +0.000 A 
BRANCH   8  10
ATOM     10  C   UNL     1      48.015   8.060  13.270  0.00  0.00    +0.000 A 
ATOM     11  C   UNL     1      48.254   8.249  14.645  0.00  0.00    +0.000 A 
ATOM     12  C   UNL     1      49.552   8.280  15.166  0.00  0.00    +0.000 A 
ATOM     13  C   UNL     1      50.647   8.133  14.320  0.00  0.00    +0.000 A 
ATOM     14  C   UNL     1      50.442   7.951  12.956  0.00  0.00    +0.000 A 
ATOM     15  C   UNL     1      49.144   7.912  12.445  0.00  0.00    +0.000 A 
ATOM     16  F   UNL     1      49.005   7.740  11.121  0.00  0.00    +0.000 F 
ENDBRANCH   8  10
ENDBRANCH   1   4
BRANCH   1  17
ATOM     17  N   UNL     1      44.822   4.474  11.581  0.00  0.00    +0.000 N 
ATOM     18  H   UNL     1      45.665   4.459  12.156  0.00  0.00    +0.000 HD
BRANCH  17  22
ATOM     19  C   UNL     1      45.961   3.510   7.744  0.00  0.00    +0.000 A 
ATOM     20  N   UNL     1      45.454   2.504   8.483  0.00  0.00    +0.000 NA
ATOM     21  C   UNL     1      45.044   2.834   9.733  0.00  0.00    +0.000 A 
ATOM     22  C   UNL     1      45.107   4.106  10.260  0.00  0.00    +0.000 A 
ATOM     23  C   UNL     1      45.653   5.045   9.387  0.00  0.00    +0.000 A 
ATOM     24  N   UNL     1      46.071   4.792   8.139  0.00  0.00    +0.000 NA
BRANCH  19  26
ATOM     25  N   UNL     1      46.856   2.926   5.371  0.00  0.00    +0.000 NA
ATOM     26  C   UNL     1      46.456   3.185   6.435  0.00  0.00    +0.000 C 
ENDBRANCH  19  26
ENDBRANCH  17  22
ENDBRANCH   1  17
TORSDOF 5
ENDMDL
MODEL 6
REMARK VINA RESULT:    -6.477      5.790      8.298
REMARK INTER + INTRA:          -9.285
REMARK INTER:                  -8.702
REMARK INTRA:                  -0.583
REMARK UNBOUND:                -0.915
REMARK  Name = 
REMARK  5 active torsions:
REMARK  status: ('A' for Active; 'I' for Inactive)
REMARK    1  A    between atoms: C_2  and  C_3
REMARK    2  A    between atoms: C_6  and  N_7
REMARK    3  A    between atoms: N_7  and  C_8
REMARK    4  A    between atoms: C_8  and  C_9
REMARK    5  A    between atoms: C_13  and  C_14
REMARK                            x       y       z     vdW  Elec       q    Type
REMARK                         _______ _______ _______ _____ _____    ______ ____
ROOT
ATOM      1  C   UNL     1      48.166   4.626  17.019  0.00  0.00    +0.000 C 
ATOM      2  C   UNL     1      47.185   4.973  18.131  0.00  0.00    +0.000 C 
ATOM      3  C   UNL     1      47.150   3.617  17.506  0.00  0.00    +0.000 C 
ENDROOT
BRANCH   1   4
ATOM      4  C   UNL     1      47.994   5.250  15.645  0.00  0.00    +0.000 A 
ATOM      5  C   UNL     1      48.675   6.414  15.259  0.00  0.00    +0.000 A 
ATOM      6  C   UNL     1      48.339   7.086  14.084  0.00  0.00    +0.000 A 
ATOM      7  C   UNL     1      47.302   6.611  13.279  0.00  0.00    +0.000 A 
ATOM      8  C   UNL     1      46.597   5.444  13.615  0.00  0.00    +0.000 A 
ATOM      9  C   UNL     1      46.997   4.764  14.778  0.00  0.00    +0.000 A 
BRANCH   8  10
ATOM     10  C   UNL     1      45.407   5.002  12.854  0.00  0.00    +0.000 A 
ATOM     11  C   UNL     1      44.393   5.922  12.523  0.00  0.00    +0.000 A 
ATOM     12  C   UNL     1      43.227   5.520  11.862  0.00  0.00    +0.000 A 
ATOM     13  C   UNL     1      43.041   4.182  11.526  0.00  0.00    +0.000 A 
ATOM     14  C   UNL     1      44.023   3.251  11.846  0.00  0.00    +0.000 A 
ATOM     15  C   UNL     1      45.188   3.661  12.496  0.00  0.00    +0.000 A 
ATOM     16  F   UNL     1      46.100   2.719  12.787  0.00  0.00    +0.000 F 
ENDBRANCH   8  10
ENDBRANCH   1   4
BRANCH   1  17
ATOM     17  N   UNL     1      49.568   4.677  17.479  0.00  0.00    +0.000 N 
ATOM     18  H   UNL     1      50.029   5.554  17.232  0.00  0.00    +0.000 HD
BRANCH  17  22
ATOM     19  C   UNL     1      52.254   1.564  17.686  0.00  0.00    +0.000 A 
ATOM     20  N   UNL     1      51.066   1.287  17.112  0.00  0.00    +0.000 NA
ATOM     21  C   UNL     1      50.200   2.325  17.011  0.00  0.00    +0.000 A 
ATOM     22  C   UNL     1      50.470   3.606  17.440  0.00  0.00    +0.000 A 
ATOM     23  C   UNL     1      51.732   3.749  18.013  0.00  0.00    +0.000 A 
ATOM     24  N   UNL     1      52.640   2.771  18.140  0.00  0.00    +0.000 NA
BRANCH  19  26
ATOM     25  N   UNL     1      53.921  -0.408  18.006  0.00  0.00    +0.000 NA
ATOM     26  C   UNL     1      53.174   0.475  17.860  0.00  0.00    +0.000 C 
ENDBRANCH  19  26
ENDBRANCH  17  22
ENDBRANCH   1  17
TORSDOF 5
ENDMDL
MODEL 7
REMARK VINA RESULT:    -6.320      3.340      6.099
REMARK INTER + INTRA:          -9.083
REMARK INTER:                  -8.178
REMARK INTRA:                  -0.905
REMARK UNBOUND:                -0.915
REMARK  Name = 
REMARK  5 active torsions:
REMARK  status: ('A' for Active; 'I' for Inactive)
REMARK    1  A    between atoms: C_2  and  C_3
REMARK    2  A    between atoms: C_6  and  N_7
REMARK    3  A    between atoms: N_7  and  C_8
REMARK    4  A    between atoms: C_8  and  C_9
REMARK    5  A    between atoms: C_13  and  C_14
REMARK                            x       y       z     vdW  Elec       q    Type
REMARK                         _______ _______ _______ _____ _____    ______ ____
ROOT
ATOM      1  C   UNL     1      48.114   7.954  12.561  0.00  0.00    +0.000 C 
ATOM      2  C   UNL     1      49.061   8.867  11.793  0.00  0.00    +0.000 C 
ATOM      3  C   UNL     1      49.265   7.388  11.760  0.00  0.00    +0.000 C 
ENDROOT
BRANCH   1   4
ATOM      4  C   UNL     1      48.176   7.917  14.079  0.00  0.00    +0.000 A 
ATOM      5  C   UNL     1      48.276   9.081  14.855  0.00  0.00    +0.000 A 
ATOM      6  C   UNL     1      48.549   9.013  16.220  0.00  0.00    +0.000 A 
ATOM      7  C   UNL     1      48.743   7.773  16.833  0.00  0.00    +0.000 A 
ATOM      8  C   UNL     1      48.642   6.578  16.104  0.00  0.00    +0.000 A 
ATOM      9  C   UNL     1      48.314   6.682  14.741  0.00  0.00    +0.000 A 
BRANCH   8  10
ATOM     10  C   UNL     1      48.982   5.266  16.699  0.00  0.00    +0.000 A 
ATOM     11  C   UNL     1      50.258   5.045  17.253  0.00  0.00    +0.000 A 
ATOM     12  C   UNL     1      50.629   3.796  17.764  0.00  0.00    +0.000 A 
ATOM     13  C   UNL     1      49.733   2.732  17.723  0.00  0.00    +0.000 A 
ATOM     14  C   UNL     1      48.468   2.920  17.176  0.00  0.00    +0.000 A 
ATOM     15  C   UNL     1      48.102   4.171  16.677  0.00  0.00    +0.000 A 
ATOM     16  F   UNL     1      46.871   4.294  16.155  0.00  0.00    +0.000 F 
ENDBRANCH   8  10
ENDBRANCH   1   4
BRANCH   1  17
ATOM     17  N   UNL     1      46.726   8.048  12.066  0.00  0.00    +0.000 N 
ATOM     18  H   UNL     1      46.249   8.887  12.398  0.00  0.00    +0.000 HD
BRANCH  17  22
ATOM     19  C   UNL     1      44.368   4.694  11.702  0.00  0.00    +0.000 A 
ATOM     20  N   UNL     1      44.153   5.456  12.793  0.00  0.00    +0.000 NA
ATOM     21  C   UNL     1      44.905   6.580  12.889  0.00  0.00    +0.000 A 
ATOM     22  C   UNL     1      45.836   6.974  11.952  0.00  0.00    +0.000 A 
ATOM     23  C   UNL     1      45.954   6.093  10.879  0.00  0.00    +0.000 A 
ATOM     24  N   UNL     1      45.240   4.970  10.716  0.00  0.00    +0.000 NA
BRANCH  19  26
ATOM     25  N   UNL     1      43.025   2.472  11.516  0.00  0.00    +0.000 NA
ATOM     26  C   UNL     1      43.628   3.468  11.597  0.00  0.00    +0.000 C 
ENDBRANCH  19  26
ENDBRANCH  17  22
ENDBRANCH   1  17
TORSDOF 5
ENDMDL
MODEL 8
REMARK VINA RESULT:    -6.137      4.455      8.080
REMARK INTER + INTRA:          -8.846
REMARK INTER:                  -7.757
REMARK INTRA:                  -1.090
REMARK UNBOUND:                -0.915
REMARK  Name = 
REMARK  5 active torsions:
REMARK  status: ('A' for Active; 'I' for Inactive)
REMARK    1  A    between atoms: C_2  and  C_3
REMARK    2  A    between atoms: C_6  and  N_7
REMARK    3  A    between atoms: N_7  and  C_8
REMARK    4  A    between atoms: C_8  and  C_9
REMARK    5  A    between atoms: C_13  and  C_14
REMARK                            x       y       z     vdW  Elec       q    Type
REMARK                         _______ _______ _______ _____ _____    ______ ____
ROOT
ATOM      1  C   UNL     1      49.207   7.897  12.482  0.00  0.00    +0.000 C 
ATOM      2  C   UNL     1      50.258   7.723  11.393  0.00  0.00    +0.000 C 
ATOM      3  C   UNL     1      50.136   9.030  12.106  0.00  0.00    +0.000 C 
ENDROOT
BRANCH   1   4
ATOM      4  C   UNL     1      47.739   7.981  12.101  0.00  0.00    +0.000 A 
ATOM      5  C   UNL     1      46.993   9.160  12.242  0.00  0.00    +0.000 A 
ATOM      6  C   UNL     1      45.607   9.155  12.093  0.00  0.00    +0.000 A 
ATOM      7  C   UNL     1      44.939   7.962  11.813  0.00  0.00    +0.000 A 
ATOM      8  C   UNL     1      45.640   6.756  11.651  0.00  0.00    +0.000 A 
ATOM      9  C   UNL     1      47.040   6.808  11.756  0.00  0.00    +0.000 A 
BRANCH   8  10
ATOM     10  C   UNL     1      44.943   5.460  11.494  0.00  0.00    +0.000 A 
ATOM     11  C   UNL     1      44.258   4.884  12.582  0.00  0.00    +0.000 A 
ATOM     12  C   UNL     1      43.646   3.630  12.483  0.00  0.00    +0.000 A 
ATOM     13  C   UNL     1      43.714   2.914  11.291  0.00  0.00    +0.000 A 
ATOM     14  C   UNL     1      44.389   3.455  10.202  0.00  0.00    +0.000 A 
ATOM     15  C   UNL     1      44.988   4.710  10.306  0.00  0.00    +0.000 A 
ATOM     16  F   UNL     1      45.632   5.181   9.226  0.00  0.00    +0.000 F 
ENDBRANCH   8  10
ENDBRANCH   1   4
BRANCH   1  17
ATOM     17  N   UNL     1      49.432   6.986  13.622  0.00  0.00    +0.000 N 
ATOM     18  H   UNL     1      49.281   6.008  13.376  0.00  0.00    +0.000 HD
BRANCH  17  22
ATOM     19  C   UNL     1      48.541   7.531  17.604  0.00  0.00    +0.000 A 
ATOM     20  N   UNL     1      48.750   8.651  16.883  0.00  0.00    +0.000 NA
ATOM     21  C   UNL     1      49.005   8.468  15.564  0.00  0.00    +0.000 A 
ATOM     22  C   UNL     1      49.047   7.238  14.945  0.00  0.00    +0.000 A 
ATOM     23  C   UNL     1      48.814   6.170  15.808  0.00  0.00    +0.000 A 
ATOM     24  N   UNL     1      48.549   6.276  17.119  0.00  0.00    +0.000 NA
BRANCH  19  26
ATOM     25  N   UNL     1      48.152   7.810  20.162  0.00  0.00    +0.000 NA
ATOM     26  C   UNL     1      48.323   7.685  19.016  0.00  0.00    +0.000 C 
ENDBRANCH  19  26
ENDBRANCH  17  22
ENDBRANCH   1  17
TORSDOF 5
ENDMDL
MODEL 9
REMARK VINA RESULT:    -5.979      3.912      6.409
REMARK INTER + INTRA:          -8.642
REMARK INTER:                  -7.780
REMARK INTRA:                  -0.862
REMARK UNBOUND:                -0.915
REMARK  Name = 
REMARK  5 active torsions:
REMARK  status: ('A' for Active; 'I' for Inactive)
REMARK    1  A    between atoms: C_2  and  C_3
REMARK    2  A    between atoms: C_6  and  N_7
REMARK    3  A    between atoms: N_7  and  C_8
REMARK    4  A    between atoms: C_8  and  C_9
REMARK    5  A    between atoms: C_13  and  C_14
REMARK                            x       y       z     vdW  Elec       q    Type
REMARK                         _______ _______ _______ _____ _____    ______ ____
ROOT
ATOM      1  C   UNL     1      48.113   7.774  13.154  0.00  0.00    +0.000 C 
ATOM      2  C   UNL     1      48.037   9.059  12.338  0.00  0.00    +0.000 C 
ATOM      3  C   UNL     1      48.551   7.806  11.707  0.00  0.00    +0.000 C 
ENDROOT
BRANCH   1   4
ATOM      4  C   UNL     1      49.162   7.640  14.245  0.00  0.00    +0.000 A 
ATOM      5  C   UNL     1      50.501   8.008  14.048  0.00  0.00    +0.000 A 
ATOM      6  C   UNL     1      51.481   7.676  14.982  0.00  0.00    +0.000 A 
ATOM      7  C   UNL     1      51.140   6.953  16.126  0.00  0.00    +0.000 A 
ATOM      8  C   UNL     1      49.812   6.571  16.377  0.00  0.00    +0.000 A 
ATOM      9  C   UNL     1      48.843   6.968  15.441  0.00  0.00    +0.000 A 
BRANCH   8  10
ATOM     10  C   UNL     1      49.452   5.687  17.507  0.00  0.00    +0.000 A 
ATOM     11  C   UNL     1      49.176   4.324  17.285  0.00  0.00    +0.000 A 
ATOM     12  C   UNL     1      48.768   3.479  18.324  0.00  0.00    +0.000 A 
ATOM     13  C   UNL     1      48.617   3.982  19.612  0.00  0.00    +0.000 A 
ATOM     14  C   UNL     1      48.877   5.326  19.860  0.00  0.00    +0.000 A 
ATOM     15  C   UNL     1      49.292   6.160  18.821  0.00  0.00    +0.000 A 
ATOM     16  F   UNL     1      49.522   7.449  19.115  0.00  0.00    +0.000 F 
ENDBRANCH   8  10
ENDBRANCH   1   4
BRANCH   1  17
ATOM     17  N   UNL     1      46.782   7.324  13.607  0.00  0.00    +0.000 N 
ATOM     18  H   UNL     1      46.689   7.338  14.623  0.00  0.00    +0.000 HD
BRANCH  17  22
ATOM     19  C   UNL     1      44.530   4.149  12.267  0.00  0.00    +0.000 A 
ATOM     20  N   UNL     1      44.343   5.322  11.628  0.00  0.00    +0.000 NA
ATOM     21  C   UNL     1      45.114   6.355  12.047  0.00  0.00    +0.000 A 
ATOM     22  C   UNL     1      46.056   6.264  13.049  0.00  0.00    +0.000 A 
ATOM     23  C   UNL     1      46.142   4.997  13.621  0.00  0.00    +0.000 A 
ATOM     24  N   UNL     1      45.418   3.930  13.254  0.00  0.00    +0.000 NA
BRANCH  19  26
ATOM     25  N   UNL     1      43.011   2.153  11.572  0.00  0.00    +0.000 NA
ATOM     26  C   UNL     1      43.690   3.048  11.886  0.00  0.00    +0.000 C 
ENDBRANCH  19  26
ENDBRANCH  17  22
ENDBRANCH   1  17
TORSDOF 5
ENDMDL
