MODEL 1
REMARK VINA RESULT:    -7.292      0.000      0.000
REMARK INTER + INTRA:          -9.322
REMARK INTER:                  -8.997
REMARK INTRA:                  -0.325
REMARK UNBOUND:                -0.325
REMARK  Name = 
REMARK  4 active torsions:
REMARK  status: ('A' for Active; 'I' for Inactive)
REMARK    1  A    between atoms: C_2  and  C_3
REMARK    2  A    between atoms: C_6  and  N_7
REMARK    3  A    between atoms: N_7  and  C_8
REMARK    4  A    between atoms: C_8  and  C_9
REMARK                            x       y       z     vdW  Elec       q    Type
REMARK                         _______ _______ _______ _____ _____    ______ ____
ROOT
ATOM      1  N   UNL     1      43.767   3.870  10.219  0.00  0.00    +0.000 N 
ATOM      2  H   UNL     1      43.293   3.018  10.518  0.00  0.00    +0.000 HD
ENDROOT
BRANCH   1   6
ATOM      3  C   UNL     1      46.594   2.581   7.519  0.00  0.00    +0.000 A 
ATOM      4  C   UNL     1      45.961   1.726   8.404  0.00  0.00    +0.000 A 
ATOM      5  N   UNL     1      45.053   2.162   9.320  0.00  0.00    +0.000 NA
ATOM      6  C   UNL     1      44.782   3.483   9.345  0.00  0.00    +0.000 A 
ATOM      7  C   UNL     1      45.434   4.338   8.453  0.00  0.00    +0.000 A 
ATOM      8  N   UNL     1      46.350   3.915   7.529  0.00  0.00    +0.000 NA
BRANCH   3  10
ATOM      9  N   UNL     1      48.287   1.671   5.772  0.00  0.00    +0.000 NA
ATOM     10  C   UNL     1      47.513   2.076   6.537  0.00  0.00    +0.000 C 
ENDBRANCH   3  10
ENDBRANCH   1   6
BRANCH   1  11
ATOM     11  C   UNL     1      43.884   4.910  11.260  0.00  0.00    +0.000 C 
ATOM     12  C   UNL     1      42.634   5.077  12.128  0.00  0.00    +0.000 C 
ATOM     13  C   UNL     1      43.071   6.193  11.241  0.00  0.00    +0.000 C 
BRANCH  11  14
ATOM     14  C   UNL     1      45.222   4.974  12.022  0.00  0.00    +0.000 A 
ATOM     15  C   UNL     1      46.059   6.084  11.883  0.00  0.00    +0.000 A 
ATOM     16  C   UNL     1      47.080   6.298  12.805  0.00  0.00    +0.000 A 
ATOM     17  C   UNL     1      47.274   5.381  13.829  0.00  0.00    +0.000 A 
ATOM     18  C   UNL     1      46.471   4.257  13.853  0.00  0.00    +0.000 A 
ATOM     19  N   UNL     1      45.468   4.032  12.974  0.00  0.00    +0.000 NA
ENDBRANCH  11  14
ENDBRANCH   1  11
TORSDOF 4
ENDMDL
MODEL 2
REMARK VINA RESULT:    -6.622      1.332      1.997
REMARK INTER + INTRA:          -8.496
REMARK INTER:                  -8.620
REMARK INTRA:                   0.125
REMARK UNBOUND:                -0.325
REMARK  Name = 
REMARK  4 active torsions:
REMARK  status: ('A' for Active; 'I' for Inactive)
REMARK    1  A    between atoms: C_2  and  C_3
REMARK    2  A    between atoms: C_6  and  N_7
REMARK    3  A    between atoms: N_7  and  C_8
REMARK    4  A    between atoms: C_8  and  C_9
REMARK                            x       y       z     vdW  Elec       q    Type
REMARK                         _______ _______ _______ _____ _____    ______ ____
ROOT
ATOM      1  N   UNL     1      43.720   4.168  10.163  0.00  0.00    +0.000 N 
ATOM      2  H   UNL     1      42.859   3.622  10.144  0.00  0.00    +0.000 HD
ENDROOT
BRANCH   1   6
ATOM      3  C   UNL     1      46.505   2.528   7.612  0.00  0.00    +0.000 A 
ATOM      4  C   UNL     1      46.183   3.874   7.603  0.00  0.00    +0.000 A 
ATOM      5  N   UNL     1      45.235   4.406   8.423  0.00  0.00    +0.000 NA
ATOM      6  C   UNL     1      44.600   3.565   9.264  0.00  0.00    +0.000 A 
ATOM      7  C   UNL     1      44.926   2.206   9.258  0.00  0.00    +0.000 A 
ATOM      8  N   UNL     1      45.873   1.657   8.439  0.00  0.00    +0.000 NA
BRANCH   3  10
ATOM      9  N   UNL     1      48.374   1.628   6.050  0.00  0.00    +0.000 NA
ATOM     10  C   UNL     1      47.541   2.013   6.763  0.00  0.00    +0.000 C 
ENDBRANCH   3  10
ENDBRANCH   1   6
BRANCH   1  11
ATOM     11  C   UNL     1      44.084   4.705  11.488  0.00  0.00    +0.000 C 
ATOM     12  C   UNL     1      44.384   3.635  12.541  0.00  0.00    +0.000 C 
ATOM     13  C   UNL     1      43.208   4.535  12.718  0.00  0.00    +0.000 C 
BRANCH  11  14
ATOM     14  C   UNL     1      45.032   5.920  11.502  0.00  0.00    +0.000 A 
ATOM     15  C   UNL     1      44.514   7.217  11.548  0.00  0.00    +0.000 A 
ATOM     16  C   UNL     1      45.344   8.279  11.896  0.00  0.00    +0.000 A 
ATOM     17  C   UNL     1      46.686   8.037  12.156  0.00  0.00    +0.000 A 
ATOM     18  C   UNL     1      47.152   6.745  12.001  0.00  0.00    +0.000 A 
ATOM     19  N   UNL     1      46.365   5.697  11.672  0.00  0.00    +0.000 NA
ENDBRANCH  11  14
ENDBRANCH   1  11
TORSDOF 4
ENDMDL
MODEL 3
REMARK VINA RESULT:    -6.272      1.897      5.996
REMARK INTER + INTRA:          -8.064
REMARK INTER:                  -7.764
REMARK INTRA:                  -0.301
REMARK UNBOUND:                -0.325
REMARK  Name = 
REMARK  4 active torsions:
REMARK  status: ('A' for Active; 'I' for Inactive)
REMARK    1  A    between atoms: C_2  and  C_3
REMARK    2  A    between atoms: C_6  and  N_7
REMARK    3  A    between atoms: N_7  and  C_8
REMARK    4  A    between atoms: C_8  and  C_9
REMARK                            x       y       z     vdW  Elec       q    Type
REMARK                         _______ _______ _______ _____ _____    ______ ____
ROOT
ATOM      1  N   UNL     1      45.623   5.359  11.689  0.00  0.00    +0.000 N 
ATOM      2  H   UNL     1      46.311   5.785  11.069  0.00  0.00    +0.000 HD
ENDROOT
BRANCH   1   6
ATOM      3  C   UNL     1      47.467   4.199  15.182  0.00  0.00    +0.000 A 
ATOM      4  C   UNL     1      47.229   5.525  14.867  0.00  0.00    +0.000 A 
ATOM      5  N   UNL     1      46.652   5.907  13.694  0.00  0.00    +0.000 NA
ATOM      6  C   UNL     1      46.312   4.934  12.824  0.00  0.00    +0.000 A 
ATOM      7  C   UNL     1      46.566   3.599  13.149  0.00  0.00    +0.000 A 
ATOM      8  N   UNL     1      47.147   3.200  14.321  0.00  0.00    +0.000 NA
BRANCH   3  10
ATOM      9  N   UNL     1      48.465   3.516  17.481  0.00  0.00    +0.000 NA
ATOM     10  C   UNL     1      48.038   3.834  16.448  0.00  0.00    +0.000 C 
ENDBRANCH   3  10
ENDBRANCH   1   6
BRANCH   1  11
ATOM     11  C   UNL     1      44.555   4.606  11.004  0.00  0.00    +0.000 C 
ATOM     12  C   UNL     1      43.209   5.333  10.945  0.00  0.00    +0.000 C 
ATOM     13  C   UNL     1      43.330   4.068  11.726  0.00  0.00    +0.000 C 
BRANCH  11  14
ATOM     14  C   UNL     1      44.953   3.863   9.714  0.00  0.00    +0.000 A 
ATOM     15  C   UNL     1      45.591   4.548   8.676  0.00  0.00    +0.000 A 
ATOM     16  C   UNL     1      46.241   3.832   7.675  0.00  0.00    +0.000 A 
ATOM     17  C   UNL     1      46.214   2.444   7.705  0.00  0.00    +0.000 A 
ATOM     18  C   UNL     1      45.487   1.832   8.707  0.00  0.00    +0.000 A 
ATOM     19  N   UNL     1      44.854   2.505   9.693  0.00  0.00    +0.000 NA
ENDBRANCH  11  14
ENDBRANCH   1  11
TORSDOF 4
ENDMDL
MODEL 4
REMARK VINA RESULT:    -6.007      2.245      5.829
REMARK INTER + INTRA:          -7.737
REMARK INTER:                  -7.476
REMARK INTRA:                  -0.261
REMARK UNBOUND:                -0.325
REMARK  Name = 
REMARK  4 active torsions:
REMARK  status: ('A' for Active; 'I' for Inactive)
REMARK    1  A    between atoms: C_2  and  C_3
REMARK    2  A    between atoms: C_6  and  N_7
REMARK    3  A    between atoms: N_7  and  C_8
REMARK    4  A    between atoms: C_8  and  C_9
REMARK                            x       y       z     vdW  Elec       q    Type
REMARK                         _______ _______ _______ _____ _____    ______ ____
ROOT
ATOM      1  N   UNL     1      44.680   6.436  11.762  0.00  0.00    +0.000 N 
ATOM      2  H   UNL     1      44.817   7.032  10.947  0.00  0.00    +0.000 HD
ENDROOT
BRANCH   1   6
ATOM      3  C   UNL     1      48.083   6.605  14.072  0.00  0.00    +0.000 A 
ATOM      4  C   UNL     1      47.436   7.737  13.610  0.00  0.00    +0.000 A 
ATOM      5  N   UNL     1      46.332   7.677  12.816  0.00  0.00    +0.000 NA
ATOM      6  C   UNL     1      45.874   6.453  12.481  0.00  0.00    +0.000 A 
ATOM      7  C   UNL     1      46.542   5.317  12.945  0.00  0.00    +0.000 A 
ATOM      8  N   UNL     1      47.653   5.362  13.741  0.00  0.00    +0.000 NA
BRANCH   3  10
ATOM      9  N   UNL     1      50.125   6.760  15.669  0.00  0.00    +0.000 NA
ATOM     10  C   UNL     1      49.220   6.710  14.943  0.00  0.00    +0.000 C 
ENDBRANCH   3  10
ENDBRANCH   1   6
BRANCH   1  11
ATOM     11  C   UNL     1      43.842   5.245  11.523  0.00  0.00    +0.000 C 
ATOM     12  C   UNL     1      42.343   5.475  11.736  0.00  0.00    +0.000 C 
ATOM     13  C   UNL     1      43.080   4.535  12.630  0.00  0.00    +0.000 C 
BRANCH  11  14
ATOM     14  C   UNL     1      44.203   4.382  10.298  0.00  0.00    +0.000 A 
ATOM     15  C   UNL     1      44.997   4.909   9.276  0.00  0.00    +0.000 A 
ATOM     16  C   UNL     1      45.594   4.052   8.355  0.00  0.00    +0.000 A 
ATOM     17  C   UNL     1      45.359   2.687   8.446  0.00  0.00    +0.000 A 
ATOM     18  C   UNL     1      44.489   2.243   9.423  0.00  0.00    +0.000 A 
ATOM     19  N   UNL     1      43.904   3.054  10.333  0.00  0.00    +0.000 NA
ENDBRANCH  11  14
ENDBRANCH   1  11
TORSDOF 4
ENDMDL
MODEL 5
REMARK VINA RESULT:    -5.384      2.557      6.364
REMARK INTER + INTRA:          -6.969
REMARK INTER:                  -6.777
REMARK INTRA:                  -0.192
REMARK UNBOUND:                -0.325
REMARK  Name = 
REMARK  4 active torsions:
REMARK  status: ('A' for Active; 'I' for Inactive)
REMARK    1  A    between atoms: C_2  and  C_3
REMARK    2  A    between atoms: C_6  and  N_7
REMARK    3  A    between atoms: N_7  and  C_8
REMARK    4  A    between atoms: C_8  and  C_9
REMARK                            x       y       z     vdW  Elec       q    Type
REMARK                         _______ _______ _______ _____ _____    ______ ____
ROOT
ATOM      1  N   UNL     1      45.033   6.460  10.566  0.00  0.00    +0.000 N 
ATOM      2  H   UNL     1      45.324   6.839   9.666  0.00  0.00    +0.000 HD
ENDROOT
BRANCH   1   6
ATOM      3  C   UNL     1      47.165   8.251  13.599  0.00  0.00    +0.000 A 
ATOM      4  C   UNL     1      45.976   8.767  13.115  0.00  0.00    +0.000 A 
ATOM      5  N   UNL     1      45.292   8.192  12.088  0.00  0.00    +0.000 NA
ATOM      6  C   UNL     1      45.819   7.079  11.537  0.00  0.00    +0.000 A 
ATOM      7  C   UNL     1      47.026   6.573  12.028  0.00  0.00    +0.000 A 
ATOM      8  N   UNL     1      47.725   7.140  13.057  0.00  0.00    +0.000 NA
BRANCH   3  10
ATOM      9  N   UNL     1      48.379   9.317  15.632  0.00  0.00    +0.000 NA
ATOM     10  C   UNL     1      47.834   8.862  14.713  0.00  0.00    +0.000 C 
ENDBRANCH   3  10
ENDBRANCH   1   6
BRANCH   1  11
ATOM     11  C   UNL     1      44.663   5.032  10.547  0.00  0.00    +0.000 C 
ATOM     12  C   UNL     1      43.160   4.769  10.667  0.00  0.00    +0.000 C 
ATOM     13  C   UNL     1      44.077   4.314  11.752  0.00  0.00    +0.000 C 
BRANCH  11  14
ATOM     14  C   UNL     1      45.403   4.142   9.530  0.00  0.00    +0.000 A 
ATOM     15  C   UNL     1      45.342   2.750   9.637  0.00  0.00    +0.000 A 
ATOM     16  C   UNL     1      45.716   1.958   8.555  0.00  0.00    +0.000 A 
ATOM     17  C   UNL     1      46.181   2.566   7.396  0.00  0.00    +0.000 A 
ATOM     18  C   UNL     1      46.304   3.942   7.392  0.00  0.00    +0.000 A 
ATOM     19  N   UNL     1      45.941   4.732   8.427  0.00  0.00    +0.000 NA
ENDBRANCH  11  14
ENDBRANCH   1  11
TORSDOF 4
ENDMDL
MODEL 6
REMARK VINA RESULT:    -5.327      3.750      6.958
REMARK INTER + INTRA:          -6.898
REMARK INTER:                  -6.617
REMARK INTRA:                  -0.281
REMARK UNBOUND:                -0.325
REMARK  Name = 
REMARK  4 active torsions:
REMARK  status: ('A' for Active; 'I' for Inactive)
REMARK    1  A    between atoms: C_2  and  C_3
REMARK    2  A    between atoms: C_6  and  N_7
REMARK    3  A    between atoms: N_7  and  C_8
REMARK    4  A    between atoms: C_8  and  C_9
REMARK                            x       y       z     vdW  Elec       q    Type
REMARK                         _______ _______ _______ _____ _____    ______ ____
ROOT
ATOM      1  N   UNL     1      47.361   6.007  13.003  0.00  0.00    +0.000 N 
ATOM      2  H   UNL     1      47.553   5.262  12.334  0.00  0.00    +0.000 HD
ENDROOT
BRANCH   1   6
ATOM      3  C   UNL     1      48.057   4.700  16.844  0.00  0.00    +0.000 A 
ATOM      4  C   UNL     1      48.721   5.780  16.290  0.00  0.00    +0.000 A 
ATOM      5  N   UNL     1      48.515   6.187  15.007  0.00  0.00    +0.000 NA
ATOM      6  C   UNL     1      47.625   5.490  14.271  0.00  0.00    +0.000 A 
ATOM      7  C   UNL     1      46.968   4.396  14.838  0.00  0.00    +0.000 A 
ATOM      8  N   UNL     1      47.166   3.974  16.124  0.00  0.00    +0.000 NA
BRANCH   3  10
ATOM      9  N   UNL     1      48.451   4.069  19.333  0.00  0.00    +0.000 NA
ATOM     10  C   UNL     1      48.270   4.329  18.215  0.00  0.00    +0.000 C 
ENDBRANCH   3  10
ENDBRANCH   1   6
BRANCH   1  11
ATOM     11  C   UNL     1      46.219   6.874  12.653  0.00  0.00    +0.000 C 
ATOM     12  C   UNL     1      46.597   8.122  11.851  0.00  0.00    +0.000 C 
ATOM     13  C   UNL     1      46.035   8.269  13.224  0.00  0.00    +0.000 C 
BRANCH  11  14
ATOM     14  C   UNL     1      44.933   6.164  12.189  0.00  0.00    +0.000 A 
ATOM     15  C   UNL     1      44.862   5.595  10.915  0.00  0.00    +0.000 A 
ATOM     16  C   UNL     1      43.854   4.681  10.622  0.00  0.00    +0.000 A 
ATOM     17  C   UNL     1      42.909   4.377  11.593  0.00  0.00    +0.000 A 
ATOM     18  C   UNL     1      42.982   5.046  12.800  0.00  0.00    +0.000 A 
ATOM     19  N   UNL     1      43.956   5.931  13.109  0.00  0.00    +0.000 NA
ENDBRANCH  11  14
ENDBRANCH   1  11
TORSDOF 4
ENDMDL
MODEL 7
REMARK VINA RESULT:    -5.324      2.580      6.592
REMARK INTER + INTRA:          -6.894
REMARK INTER:                  -6.800
REMARK INTRA:                  -0.094
REMARK UNBOUND:                -0.325
REMARK  Name = 
REMARK  4 active torsions:
REMARK  status: ('A' for Active; 'I' for Inactive)
REMARK    1  A    between atoms: C_2  and  C_3
REMARK    2  A    between atoms: C_6  and  N_7
REMARK    3  A    between atoms: N_7  and  C_8
REMARK    4  A    between atoms: C_8  and  C_9
REMARK                            x       y       z     vdW  Elec       q    Type
REMARK                         _______ _______ _______ _____ _____    ______ ____
ROOT
ATOM      1  N   UNL     1      46.853   5.883  12.520  0.00  0.00    +0.000 N 
ATOM      2  H   UNL     1      47.607   5.564  11.912  0.00  0.00    +0.000 HD
ENDROOT
BRANCH   1   6
ATOM      3  C   UNL     1      48.042   4.714  16.284  0.00  0.00    +0.000 A 
ATOM      4  C   UNL     1      47.114   4.007  15.539  0.00  0.00    +0.000 A 
ATOM      5  N   UNL     1      46.696   4.417  14.310  0.00  0.00    +0.000 NA
ATOM      6  C   UNL     1      47.222   5.560  13.825  0.00  0.00    +0.000 A 
ATOM      7  C   UNL     1      48.152   6.270  14.589  0.00  0.00    +0.000 A 
ATOM      8  N   UNL     1      48.579   5.872  15.826  0.00  0.00    +0.000 NA
BRANCH   3  10
ATOM      9  N   UNL     1      48.813   3.826  18.599  0.00  0.00    +0.000 NA
ATOM     10  C   UNL     1      48.491   4.226  17.557  0.00  0.00    +0.000 C 
ENDBRANCH   3  10
ENDBRANCH   1   6
BRANCH   1  11
ATOM     11  C   UNL     1      45.498   5.737  11.952  0.00  0.00    +0.000 C 
ATOM     12  C   UNL     1      44.779   7.063  11.690  0.00  0.00    +0.000 C 
ATOM     13  C   UNL     1      44.239   6.120  12.712  0.00  0.00    +0.000 C 
BRANCH  11  14
ATOM     14  C   UNL     1      45.321   4.669  10.855  0.00  0.00    +0.000 A 
ATOM     15  C   UNL     1      44.710   3.449  11.152  0.00  0.00    +0.000 A 
ATOM     16  C   UNL     1      44.253   2.636  10.118  0.00  0.00    +0.000 A 
ATOM     17  C   UNL     1      44.446   3.037   8.803  0.00  0.00    +0.000 A 
ATOM     18  C   UNL     1      45.141   4.210   8.579  0.00  0.00    +0.000 A 
ATOM     19  N   UNL     1      45.587   5.018   9.566  0.00  0.00    +0.000 NA
ENDBRANCH  11  14
ENDBRANCH   1  11
TORSDOF 4
ENDMDL
MODEL 8
REMARK VINA RESULT:    -5.123      3.610      5.554
REMARK INTER + INTRA:          -6.646
REMARK INTER:                  -6.312
REMARK INTRA:                  -0.334
REMARK UNBOUND:                -0.325
REMARK  Name = 
REMARK  4 active torsions:
REMARK  status: ('A' for Active; 'I' for Inactive)
REMARK    1  A    between atoms: C_2  and  C_3
REMARK    2  A    between atoms: C_6  and  N_7
REMARK    3  A    between atoms: N_7  and  C_8
REMARK    4  A    between atoms: C_8  and  C_9
REMARK                            x       y       z     vdW  Elec       q    Type
REMARK                         _______ _______ _______ _____ _____    ______ ____
ROOT
ATOM      1  N   UNL     1      46.381   7.569  13.283  0.00  0.00    +0.000 N 
ATOM      2  H   UNL     1      45.950   8.032  14.083  0.00  0.00    +0.000 HD
ENDROOT
BRANCH   1   6
ATOM      3  C   UNL     1      44.248   4.189  12.293  0.00  0.00    +0.000 A 
ATOM      4  C   UNL     1      43.993   5.427  11.728  0.00  0.00    +0.000 A 
ATOM      5  N   UNL     1      44.676   6.549  12.085  0.00  0.00    +0.000 NA
ATOM      6  C   UNL     1      45.631   6.421  13.029  0.00  0.00    +0.000 A 
ATOM      7  C   UNL     1      45.873   5.168  13.600  0.00  0.00    +0.000 A 
ATOM      8  N   UNL     1      45.193   4.033  13.253  0.00  0.00    +0.000 NA
BRANCH   3  10
ATOM      9  N   UNL     1      42.993   2.051  11.518  0.00  0.00    +0.000 NA
ATOM     10  C   UNL     1      43.536   3.021  11.859  0.00  0.00    +0.000 C 
ENDBRANCH   3  10
ENDBRANCH   1   6
BRANCH   1  11
ATOM     11  C   UNL     1      47.853   7.657  13.235  0.00  0.00    +0.000 C 
ATOM     12  C   UNL     1      48.393   8.612  12.168  0.00  0.00    +0.000 C 
ATOM     13  C   UNL     1      48.673   7.151  12.060  0.00  0.00    +0.000 C 
BRANCH  11  14
ATOM     14  C   UNL     1      48.584   7.710  14.591  0.00  0.00    +0.000 A 
ATOM     15  C   UNL     1      48.293   8.722  15.509  0.00  0.00    +0.000 A 
ATOM     16  C   UNL     1      48.691   8.586  16.836  0.00  0.00    +0.000 A 
ATOM     17  C   UNL     1      49.406   7.459  17.218  0.00  0.00    +0.000 A 
ATOM     18  C   UNL     1      49.742   6.542  16.240  0.00  0.00    +0.000 A 
ATOM     19  N   UNL     1      49.361   6.650  14.948  0.00  0.00    +0.000 NA
ENDBRANCH  11  14
ENDBRANCH   1  11
TORSDOF 4
ENDMDL
MODEL 9
REMARK VINA RESULT:    -4.889      4.364      7.011
REMARK INTER + INTRA:          -6.358
REMARK INTER:                  -6.222
REMARK INTRA:                  -0.136
REMARK UNBOUND:                -0.325
REMARK  Name = 
REMARK  4 active torsions:
REMARK  status: ('A' for Active; 'I' for Inactive)
REMARK    1  A    between atoms: C_2  and  C_3
REMARK    2  A    between atoms: C_6  and  N_7
REMARK    3  A    between atoms: N_7  and  C_8
REMARK    4  A    between atoms: C_8  and  C_9
REMARK                            x       y       z     vdW  Elec       q    Type
REMARK                         _______ _______ _______ _____ _____    ______ ____
ROOT
ATOM      1  N   UNL     1      46.399   4.678  15.237  0.00  0.00    +0.000 N 
ATOM      2  H   UNL     1      45.987   5.455  15.752  0.00  0.00    +0.000 HD
ENDROOT
BRANCH   1   6
ATOM      3  C   UNL     1      49.855   3.421  17.089  0.00  0.00    +0.000 A 
ATOM      4  C   UNL     1      48.915   2.541  16.583  0.00  0.00    +0.000 A 
ATOM      5  N   UNL     1      47.756   2.960  16.004  0.00  0.00    +0.000 NA
ATOM      6  C   UNL     1      47.541   4.290  15.936  0.00  0.00    +0.000 A 
ATOM      7  C   UNL     1      48.494   5.169  16.459  0.00  0.00    +0.000 A 
ATOM      8  N   UNL     1      49.660   4.763  17.045  0.00  0.00    +0.000 NA
BRANCH   3  10
ATOM      9  N   UNL     1      52.100   2.563  18.073  0.00  0.00    +0.000 NA
ATOM     10  C   UNL     1      51.085   2.942  17.653  0.00  0.00    +0.000 C 
ENDBRANCH   3  10
ENDBRANCH   1   6
BRANCH   1  11
ATOM     11  C   UNL     1      46.289   4.781  13.769  0.00  0.00    +0.000 C 
ATOM     12  C   UNL     1      44.904   4.435  13.216  0.00  0.00    +0.000 C 
ATOM     13  C   UNL     1      46.072   3.575  12.870  0.00  0.00    +0.000 C 
BRANCH  11  14
ATOM     14  C   UNL     1      46.971   5.995  13.110  0.00  0.00    +0.000 A 
ATOM     15  C   UNL     1      46.262   7.183  12.916  0.00  0.00    +0.000 A 
ATOM     16  C   UNL     1      46.950   8.360  12.640  0.00  0.00    +0.000 A 
ATOM     17  C   UNL     1      48.333   8.328  12.524  0.00  0.00    +0.000 A 
ATOM     18  C   UNL     1      48.964   7.104  12.634  0.00  0.00    +0.000 A 
ATOM     19  N   UNL     1      48.318   5.949  12.910  0.00  0.00    +0.000 NA
ENDBRANCH  11  14
ENDBRANCH   1  11
TORSDOF 4
ENDMDL
