MODEL 1
REMARK VINA RESULT:    -8.091      0.000      0.000
REMARK INTER + INTRA:         -10.610
REMARK INTER:                  -9.983
REMARK INTRA:                  -0.626
REMARK UNBOUND:                -0.626
REMARK  Name = 
REMARK  6 active torsions:
REMARK  status: ('A' for Active; 'I' for Inactive)
REMARK    1  A    between atoms: C_1  and  C_2
REMARK    2  A    between atoms: C_10  and  C_11
REMARK    3  A    between atoms: C_11  and  O_12
REMARK    4  A    between atoms: O_12  and  C_13
REMARK    5  A    between atoms: C_16  and  S_17
REMARK    6  A    between atoms: S_17  and  C_18
REMARK                            x       y       z     vdW  Elec       q    Type
REMARK                         _______ _______ _______ _____ _____    ______ ____
ROOT
ATOM      1  C   UNL     1      47.952  11.068  11.303  0.00  0.00    +0.000 C 
ATOM      2  C   UNL     1      47.317  10.150  12.345  0.00  0.00    +0.000 C 
ATOM      3  C   UNL     1      46.078   9.457  11.755  0.00  0.00    +0.000 C 
ATOM      4  C   UNL     1      45.491   8.426  12.718  0.00  0.00    +0.000 C 
ATOM      5  N   UNL     1      46.548   7.515  13.118  0.00  0.00    +0.000 N 
ATOM      6  C   UNL     1      46.337   6.161  13.098  0.00  0.00    +0.000 A 
ATOM      7  N   UNL     1      47.310   5.334  13.511  0.00  0.00    +0.000 NA
ATOM      8  C   UNL     1      47.079   4.010  13.431  0.00  0.00    +0.000 A 
ATOM      9  C   UNL     1      45.911   3.470  12.951  0.00  0.00    +0.000 A 
ATOM     10  C   UNL     1      44.968   4.373  12.524  0.00  0.00    +0.000 A 
ATOM     11  N   UNL     1      45.173   5.703  12.602  0.00  0.00    +0.000 NA
ATOM     12  C   UNL     1      47.695   8.094  13.792  0.00  0.00    +0.000 C 
ATOM     13  C   UNL     1      48.340   9.118  12.855  0.00  0.00    +0.000 C 
ENDROOT
BRANCH  10  14
ATOM     14  C   UNL     1      43.671   3.918  11.889  0.00  0.00    +0.000 C 
BRANCH  14  15
ATOM     15  O   UNL     1      43.586   4.379  10.539  0.00  0.00    +0.000 OA
BRANCH  15  16
ATOM     16  C   UNL     1      44.508   3.883   9.656  0.00  0.00    +0.000 A 
ATOM     17  C   UNL     1      45.369   4.633   8.850  0.00  0.00    +0.000 A 
ATOM     18  C   UNL     1      46.265   3.996   7.982  0.00  0.00    +0.000 A 
ATOM     19  C   UNL     1      46.301   2.601   7.923  0.00  0.00    +0.000 A 
ATOM     20  C   UNL     1      45.448   1.840   8.721  0.00  0.00    +0.000 A 
ATOM     21  C   UNL     1      44.555   2.485   9.582  0.00  0.00    +0.000 A 
BRANCH  19  22
ATOM     22  S   UNL     1      47.314   1.795   6.697  0.00  0.00    +0.000 S 
ATOM     23  C   UNL     1      46.833   2.519   5.152  0.00  0.00    +0.000 C 
ATOM     24  O   UNL     1      48.689   2.175   6.951  0.00  0.00    +0.000 OA
ATOM     25  O   UNL     1      46.922   0.402   6.670  0.00  0.00    +0.000 OA
ENDBRANCH  19  22
ENDBRANCH  15  16
ENDBRANCH  14  15
ENDBRANCH  10  14
TORSDOF 4
ENDMDL
MODEL 2
REMARK VINA RESULT:    -7.992      2.032      3.656
REMARK INTER + INTRA:         -10.488
REMARK INTER:                 -10.067
REMARK INTRA:                  -0.420
REMARK UNBOUND:                -0.626
REMARK  Name = 
REMARK  6 active torsions:
REMARK  status: ('A' for Active; 'I' for Inactive)
REMARK    1  A    between atoms: C_1  and  C_2
REMARK    2  A    between atoms: C_10  and  C_11
REMARK    3  A    between atoms: C_11  and  O_12
REMARK    4  A    between atoms: O_12  and  C_13
REMARK    5  A    between atoms: C_16  and  S_17
REMARK    6  A    between atoms: S_17  and  C_18
REMARK                            x       y       z     vdW  Elec       q    Type
REMARK                         _______ _______ _______ _____ _____    ______ ____
ROOT
ATOM      1  C   UNL     1      48.321   4.463  18.989  0.00  0.00    +0.000 C 
ATOM      2  C   UNL     1      48.478   4.430  17.471  0.00  0.00    +0.000 C 
ATOM      3  C   UNL     1      47.412   3.514  16.848  0.00  0.00    +0.000 C 
ATOM      4  C   UNL     1      47.446   3.560  15.321  0.00  0.00    +0.000 C 
ATOM      5  N   UNL     1      47.359   4.946  14.899  0.00  0.00    +0.000 N 
ATOM      6  C   UNL     1      46.486   5.313  13.908  0.00  0.00    +0.000 A 
ATOM      7  N   UNL     1      46.448   6.591  13.500  0.00  0.00    +0.000 NA
ATOM      8  C   UNL     1      45.544   6.918  12.558  0.00  0.00    +0.000 A 
ATOM      9  C   UNL     1      44.668   6.020  12.001  0.00  0.00    +0.000 A 
ATOM     10  C   UNL     1      44.746   4.735  12.480  0.00  0.00    +0.000 A 
ATOM     11  N   UNL     1      45.648   4.382  13.418  0.00  0.00    +0.000 NA
ATOM     12  C   UNL     1      48.408   5.839  15.356  0.00  0.00    +0.000 C 
ATOM     13  C   UNL     1      48.398   5.853  16.886  0.00  0.00    +0.000 C 
ENDROOT
BRANCH  10  14
ATOM     14  C   UNL     1      43.781   3.662  12.022  0.00  0.00    +0.000 C 
BRANCH  14  15
ATOM     15  O   UNL     1      43.432   3.855  10.650  0.00  0.00    +0.000 OA
BRANCH  15  16
ATOM     16  C   UNL     1      44.370   3.499   9.717  0.00  0.00    +0.000 A 
ATOM     17  C   UNL     1      45.032   4.363   8.838  0.00  0.00    +0.000 A 
ATOM     18  C   UNL     1      45.969   3.863   7.925  0.00  0.00    +0.000 A 
ATOM     19  C   UNL     1      46.247   2.495   7.893  0.00  0.00    +0.000 A 
ATOM     20  C   UNL     1      45.594   1.623   8.762  0.00  0.00    +0.000 A 
ATOM     21  C   UNL     1      44.657   2.130   9.669  0.00  0.00    +0.000 A 
BRANCH  19  22
ATOM     22  S   UNL     1      47.307   1.840   6.618  0.00  0.00    +0.000 S 
ATOM     23  C   UNL     1      46.830   2.690   5.138  0.00  0.00    +0.000 C 
ATOM     24  O   UNL     1      48.665   2.236   6.934  0.00  0.00    +0.000 OA
ATOM     25  O   UNL     1      46.961   0.444   6.453  0.00  0.00    +0.000 OA
ENDBRANCH  19  22
ENDBRANCH  15  16
ENDBRANCH  14  15
ENDBRANCH  10  14
TORSDOF 4
ENDMDL
MODEL 3
REMARK VINA RESULT:    -6.917      1.345      2.007
REMARK INTER + INTRA:          -9.160
REMARK INTER:                  -8.521
REMARK INTRA:                  -0.639
REMARK UNBOUND:                -0.626
REMARK  Name = 
REMARK  6 active torsions:
REMARK  status: ('A' for Active; 'I' for Inactive)
REMARK    1  A    between atoms: C_1  and  C_2
REMARK    2  A    between atoms: C_10  and  C_11
REMARK    3  A    between atoms: C_11  and  O_12
REMARK    4  A    between atoms: O_12  and  C_13
REMARK    5  A    between atoms: C_16  and  S_17
REMARK    6  A    between atoms: S_17  and  C_18
REMARK                            x       y       z     vdW  Elec       q    Type
REMARK                         _______ _______ _______ _____ _____    ______ ____
ROOT
ATOM      1  C   UNL     1      50.730  10.030  12.918  0.00  0.00    +0.000 C 
ATOM      2  C   UNL     1      49.676   9.288  13.737  0.00  0.00    +0.000 C 
ATOM      3  C   UNL     1      48.348   9.234  12.965  0.00  0.00    +0.000 C 
ATOM      4  C   UNL     1      47.305   8.383  13.689  0.00  0.00    +0.000 C 
ATOM      5  N   UNL     1      47.885   7.081  13.966  0.00  0.00    +0.000 N 
ATOM      6  C   UNL     1      47.183   5.938  13.683  0.00  0.00    +0.000 A 
ATOM      7  N   UNL     1      47.716   4.744  13.986  0.00  0.00    +0.000 NA
ATOM      8  C   UNL     1      47.015   3.645  13.648  0.00  0.00    +0.000 A 
ATOM      9  C   UNL     1      45.796   3.686  13.017  0.00  0.00    +0.000 A 
ATOM     10  C   UNL     1      45.320   4.939  12.718  0.00  0.00    +0.000 A 
ATOM     11  N   UNL     1      46.001   6.054  13.052  0.00  0.00    +0.000 NA
ATOM     12  C   UNL     1      49.076   7.055  14.795  0.00  0.00    +0.000 C 
ATOM     13  C   UNL     1      50.166   7.873  14.098  0.00  0.00    +0.000 C 
ENDROOT
BRANCH  10  14
ATOM     14  C   UNL     1      44.034   5.131  11.943  0.00  0.00    +0.000 C 
BRANCH  14  15
ATOM     15  O   UNL     1      44.309   5.625  10.631  0.00  0.00    +0.000 OA
BRANCH  15  16
ATOM     16  C   UNL     1      44.853   4.741   9.736  0.00  0.00    +0.000 A 
ATOM     17  C   UNL     1      44.480   3.405   9.564  0.00  0.00    +0.000 A 
ATOM     18  C   UNL     1      45.126   2.605   8.612  0.00  0.00    +0.000 A 
ATOM     19  C   UNL     1      46.146   3.147   7.828  0.00  0.00    +0.000 A 
ATOM     20  C   UNL     1      46.529   4.478   7.990  0.00  0.00    +0.000 A 
ATOM     21  C   UNL     1      45.880   5.267   8.944  0.00  0.00    +0.000 A 
BRANCH  19  22
ATOM     22  S   UNL     1      47.083   2.086   6.742  0.00  0.00    +0.000 S 
ATOM     23  C   UNL     1      46.891   0.456   7.410  0.00  0.00    +0.000 C 
ATOM     24  O   UNL     1      46.434   2.109   5.446  0.00  0.00    +0.000 OA
ATOM     25  O   UNL     1      48.475   2.457   6.882  0.00  0.00    +0.000 OA
ENDBRANCH  19  22
ENDBRANCH  15  16
ENDBRANCH  14  15
ENDBRANCH  10  14
TORSDOF 4
ENDMDL
MODEL 4
REMARK VINA RESULT:    -6.764      6.008      8.647
REMARK INTER + INTRA:          -8.972
REMARK INTER:                  -8.570
REMARK INTRA:                  -0.403
REMARK UNBOUND:                -0.626
REMARK  Name = 
REMARK  6 active torsions:
REMARK  status: ('A' for Active; 'I' for Inactive)
REMARK    1  A    between atoms: C_1  and  C_2
REMARK    2  A    between atoms: C_10  and  C_11
REMARK    3  A    between atoms: C_11  and  O_12
REMARK    4  A    between atoms: O_12  and  C_13
REMARK    5  A    between atoms: C_16  and  S_17
REMARK    6  A    between atoms: S_17  and  C_18
REMARK                            x       y       z     vdW  Elec       q    Type
REMARK                         _______ _______ _______ _____ _____    ______ ____
ROOT
ATOM      1  C   UNL     1      44.900   3.346   8.378  0.00  0.00    +0.000 C 
ATOM      2  C   UNL     1      44.641   4.070   9.697  0.00  0.00    +0.000 C 
ATOM      3  C   UNL     1      44.908   3.126  10.881  0.00  0.00    +0.000 C 
ATOM      4  C   UNL     1      44.793   3.851  12.222  0.00  0.00    +0.000 C 
ATOM      5  N   UNL     1      45.653   5.020  12.188  0.00  0.00    +0.000 N 
ATOM      6  C   UNL     1      46.496   5.287  13.236  0.00  0.00    +0.000 A 
ATOM      7  N   UNL     1      47.253   6.395  13.208  0.00  0.00    +0.000 NA
ATOM      8  C   UNL     1      48.102   6.596  14.233  0.00  0.00    +0.000 A 
ATOM      9  C   UNL     1      48.232   5.731  15.293  0.00  0.00    +0.000 A 
ATOM     10  C   UNL     1      47.444   4.607  15.246  0.00  0.00    +0.000 A 
ATOM     11  N   UNL     1      46.581   4.389  14.233  0.00  0.00    +0.000 NA
ATOM     12  C   UNL     1      45.374   6.012  11.166  0.00  0.00    +0.000 C 
ATOM     13  C   UNL     1      45.504   5.342   9.796  0.00  0.00    +0.000 C 
ENDROOT
BRANCH  10  14
ATOM     14  C   UNL     1      47.549   3.526  16.299  0.00  0.00    +0.000 C 
BRANCH  14  15
ATOM     15  O   UNL     1      48.362   3.965  17.389  0.00  0.00    +0.000 OA
BRANCH  15  16
ATOM     16  C   UNL     1      49.598   3.385  17.512  0.00  0.00    +0.000 A 
ATOM     17  C   UNL     1      49.949   2.093  17.109  0.00  0.00    +0.000 A 
ATOM     18  C   UNL     1      51.255   1.621  17.300  0.00  0.00    +0.000 A 
ATOM     19  C   UNL     1      52.211   2.447  17.893  0.00  0.00    +0.000 A 
ATOM     20  C   UNL     1      51.875   3.736  18.301  0.00  0.00    +0.000 A 
ATOM     21  C   UNL     1      50.569   4.198  18.108  0.00  0.00    +0.000 A 
BRANCH  19  22
ATOM     22  S   UNL     1      53.820   1.787  18.293  0.00  0.00    +0.000 S 
ATOM     23  C   UNL     1      54.321   2.649  19.758  0.00  0.00    +0.000 C 
ATOM     24  O   UNL     1      53.643   0.392  18.643  0.00  0.00    +0.000 OA
ATOM     25  O   UNL     1      54.716   2.177  17.226  0.00  0.00    +0.000 OA
ENDBRANCH  19  22
ENDBRANCH  15  16
ENDBRANCH  14  15
ENDBRANCH  10  14
TORSDOF 4
ENDMDL
MODEL 5
REMARK VINA RESULT:    -5.821      4.629      7.983
REMARK INTER + INTRA:          -7.808
REMARK INTER:                  -7.349
REMARK INTRA:                  -0.458
REMARK UNBOUND:                -0.626
REMARK  Name = 
REMARK  6 active torsions:
REMARK  status: ('A' for Active; 'I' for Inactive)
REMARK    1  A    between atoms: C_1  and  C_2
REMARK    2  A    between atoms: C_10  and  C_11
REMARK    3  A    between atoms: C_11  and  O_12
REMARK    4  A    between atoms: O_12  and  C_13
REMARK    5  A    between atoms: C_16  and  S_17
REMARK    6  A    between atoms: S_17  and  C_18
REMARK                            x       y       z     vdW  Elec       q    Type
REMARK                         _______ _______ _______ _____ _____    ______ ____
ROOT
ATOM      1  C   UNL     1      44.901   2.171   9.511  0.00  0.00    +0.000 C 
ATOM      2  C   UNL     1      44.387   3.161  10.554  0.00  0.00    +0.000 C 
ATOM      3  C   UNL     1      45.529   3.577  11.496  0.00  0.00    +0.000 C 
ATOM      4  C   UNL     1      45.090   4.670  12.470  0.00  0.00    +0.000 C 
ATOM      5  N   UNL     1      44.519   5.766  11.707  0.00  0.00    +0.000 N 
ATOM      6  C   UNL     1      44.895   7.058  11.967  0.00  0.00    +0.000 A 
ATOM      7  N   UNL     1      44.326   8.062  11.281  0.00  0.00    +0.000 NA
ATOM      8  C   UNL     1      44.758   9.312  11.533  0.00  0.00    +0.000 A 
ATOM      9  C   UNL     1      45.741   9.607  12.445  0.00  0.00    +0.000 A 
ATOM     10  C   UNL     1      46.295   8.530  13.094  0.00  0.00    +0.000 A 
ATOM     11  N   UNL     1      45.874   7.270  12.864  0.00  0.00    +0.000 NA
ATOM     12  C   UNL     1      43.360   5.462  10.889  0.00  0.00    +0.000 C 
ATOM     13  C   UNL     1      43.754   4.388   9.872  0.00  0.00    +0.000 C 
ENDROOT
BRANCH  10  14
ATOM     14  C   UNL     1      47.450   8.699  14.058  0.00  0.00    +0.000 C 
BRANCH  14  15
ATOM     15  O   UNL     1      48.445   7.700  13.829  0.00  0.00    +0.000 OA
BRANCH  15  16
ATOM     16  C   UNL     1      48.815   6.936  14.905  0.00  0.00    +0.000 A 
ATOM     17  C   UNL     1      49.962   7.108  15.686  0.00  0.00    +0.000 A 
ATOM     18  C   UNL     1      50.224   6.247  16.760  0.00  0.00    +0.000 A 
ATOM     19  C   UNL     1      49.333   5.214  17.055  0.00  0.00    +0.000 A 
ATOM     20  C   UNL     1      48.186   5.030  16.284  0.00  0.00    +0.000 A 
ATOM     21  C   UNL     1      47.934   5.892  15.212  0.00  0.00    +0.000 A 
BRANCH  19  22
ATOM     22  S   UNL     1      49.754   4.017  18.308  0.00  0.00    +0.000 S 
ATOM     23  C   UNL     1      50.063   2.512  17.424  0.00  0.00    +0.000 C 
ATOM     24  O   UNL     1      51.004   4.438  18.909  0.00  0.00    +0.000 OA
ATOM     25  O   UNL     1      48.571   3.815  19.118  0.00  0.00    +0.000 OA
ENDBRANCH  19  22
ENDBRANCH  15  16
ENDBRANCH  14  15
ENDBRANCH  10  14
TORSDOF 4
ENDMDL
MODEL 6
REMARK VINA RESULT:    -5.689      4.152      6.557
REMARK INTER + INTRA:          -7.645
REMARK INTER:                  -7.168
REMARK INTRA:                  -0.477
REMARK UNBOUND:                -0.626
REMARK  Name = 
REMARK  6 active torsions:
REMARK  status: ('A' for Active; 'I' for Inactive)
REMARK    1  A    between atoms: C_1  and  C_2
REMARK    2  A    between atoms: C_10  and  C_11
REMARK    3  A    between atoms: C_11  and  O_12
REMARK    4  A    between atoms: O_12  and  C_13
REMARK    5  A    between atoms: C_16  and  S_17
REMARK    6  A    between atoms: S_17  and  C_18
REMARK                            x       y       z     vdW  Elec       q    Type
REMARK                         _______ _______ _______ _____ _____    ______ ____
ROOT
ATOM      1  C   UNL     1      48.684   4.626  20.678  0.00  0.00    +0.000 C 
ATOM      2  C   UNL     1      49.726   5.145  19.691  0.00  0.00    +0.000 C 
ATOM      3  C   UNL     1      49.398   4.659  18.270  0.00  0.00    +0.000 C 
ATOM      4  C   UNL     1      50.338   5.268  17.231  0.00  0.00    +0.000 C 
ATOM      5  N   UNL     1      50.322   6.712  17.384  0.00  0.00    +0.000 N 
ATOM      6  C   UNL     1      50.181   7.521  16.287  0.00  0.00    +0.000 A 
ATOM      7  N   UNL     1      50.211   8.854  16.441  0.00  0.00    +0.000 NA
ATOM      8  C   UNL     1      50.021   9.613  15.346  0.00  0.00    +0.000 A 
ATOM      9  C   UNL     1      49.800   9.096  14.093  0.00  0.00    +0.000 A 
ATOM     10  C   UNL     1      49.760   7.725  14.011  0.00  0.00    +0.000 A 
ATOM     11  N   UNL     1      49.954   6.945  15.093  0.00  0.00    +0.000 NA
ATOM     12  C   UNL     1      50.740   7.240  18.669  0.00  0.00    +0.000 C 
ATOM     13  C   UNL     1      49.809   6.682  19.747  0.00  0.00    +0.000 C 
ENDROOT
BRANCH  10  14
ATOM     14  C   UNL     1      49.435   7.022  12.711  0.00  0.00    +0.000 C 
BRANCH  14  15
ATOM     15  O   UNL     1      48.179   7.473  12.197  0.00  0.00    +0.000 OA
BRANCH  15  16
ATOM     16  C   UNL     1      47.154   6.564  12.185  0.00  0.00    +0.000 A 
ATOM     17  C   UNL     1      46.727   5.782  13.262  0.00  0.00    +0.000 A 
ATOM     18  C   UNL     1      45.663   4.884  13.110  0.00  0.00    +0.000 A 
ATOM     19  C   UNL     1      45.022   4.771  11.875  0.00  0.00    +0.000 A 
ATOM     20  C   UNL     1      45.437   5.543  10.792  0.00  0.00    +0.000 A 
ATOM     21  C   UNL     1      46.502   6.435  10.952  0.00  0.00    +0.000 A 
BRANCH  19  22
ATOM     22  S   UNL     1      43.787   3.507  11.635  0.00  0.00    +0.000 S 
ATOM     23  C   UNL     1      44.290   2.641  10.173  0.00  0.00    +0.000 C 
ATOM     24  O   UNL     1      43.887   2.584  12.749  0.00  0.00    +0.000 OA
ATOM     25  O   UNL     1      42.540   4.181  11.340  0.00  0.00    +0.000 OA
ENDBRANCH  19  22
ENDBRANCH  15  16
ENDBRANCH  14  15
ENDBRANCH  10  14
TORSDOF 4
ENDMDL
MODEL 7
REMARK VINA RESULT:    -5.557      5.740      8.433
REMARK INTER + INTRA:          -7.482
REMARK INTER:                  -6.973
REMARK INTRA:                  -0.509
REMARK UNBOUND:                -0.626
REMARK  Name = 
REMARK  6 active torsions:
REMARK  status: ('A' for Active; 'I' for Inactive)
REMARK    1  A    between atoms: C_1  and  C_2
REMARK    2  A    between atoms: C_10  and  C_11
REMARK    3  A    between atoms: C_11  and  O_12
REMARK    4  A    between atoms: O_12  and  C_13
REMARK    5  A    between atoms: C_16  and  S_17
REMARK    6  A    between atoms: S_17  and  C_18
REMARK                            x       y       z     vdW  Elec       q    Type
REMARK                         _______ _______ _______ _____ _____    ______ ____
ROOT
ATOM      1  C   UNL     1      43.477   2.873  11.402  0.00  0.00    +0.000 C 
ATOM      2  C   UNL     1      43.902   4.326  11.596  0.00  0.00    +0.000 C 
ATOM      3  C   UNL     1      44.394   4.546  13.036  0.00  0.00    +0.000 C 
ATOM      4  C   UNL     1      44.956   5.953  13.235  0.00  0.00    +0.000 C 
ATOM      5  N   UNL     1      45.965   6.193  12.218  0.00  0.00    +0.000 N 
ATOM      6  C   UNL     1      47.180   6.725  12.564  0.00  0.00    +0.000 A 
ATOM      7  N   UNL     1      48.086   6.981  11.607  0.00  0.00    +0.000 NA
ATOM      8  C   UNL     1      49.284   7.458  11.994  0.00  0.00    +0.000 A 
ATOM      9  C   UNL     1      49.621   7.692  13.304  0.00  0.00    +0.000 A 
ATOM     10  C   UNL     1      48.656   7.387  14.233  0.00  0.00    +0.000 A 
ATOM     11  N   UNL     1      47.446   6.915  13.869  0.00  0.00    +0.000 NA
ATOM     12  C   UNL     1      45.534   6.121  10.835  0.00  0.00    +0.000 C 
ATOM     13  C   UNL     1      44.986   4.716  10.573  0.00  0.00    +0.000 C 
ENDROOT
BRANCH  10  14
ATOM     14  C   UNL     1      48.923   7.510  15.718  0.00  0.00    +0.000 C 
BRANCH  14  15
ATOM     15  O   UNL     1      48.644   6.275  16.380  0.00  0.00    +0.000 OA
BRANCH  15  16
ATOM     16  C   UNL     1      49.720   5.558  16.833  0.00  0.00    +0.000 A 
ATOM     17  C   UNL     1      51.039   6.013  16.922  0.00  0.00    +0.000 A 
ATOM     18  C   UNL     1      52.050   5.169  17.401  0.00  0.00    +0.000 A 
ATOM     19  C   UNL     1      51.737   3.866  17.795  0.00  0.00    +0.000 A 
ATOM     20  C   UNL     1      50.427   3.399  17.710  0.00  0.00    +0.000 A 
ATOM     21  C   UNL     1      49.425   4.247  17.229  0.00  0.00    +0.000 A 
BRANCH  19  22
ATOM     22  S   UNL     1      53.048   2.740  18.238  0.00  0.00    +0.000 S 
ATOM     23  C   UNL     1      54.506   3.409  17.484  0.00  0.00    +0.000 C 
ATOM     24  O   UNL     1      53.220   2.818  19.675  0.00  0.00    +0.000 OA
ATOM     25  O   UNL     1      52.760   1.477  17.592  0.00  0.00    +0.000 OA
ENDBRANCH  19  22
ENDBRANCH  15  16
ENDBRANCH  14  15
ENDBRANCH  10  14
TORSDOF 4
ENDMDL
MODEL 8
REMARK VINA RESULT:    -5.288      4.742      7.172
REMARK INTER + INTRA:          -7.151
REMARK INTER:                  -6.695
REMARK INTRA:                  -0.456
REMARK UNBOUND:                -0.626
REMARK  Name = 
REMARK  6 active torsions:
REMARK  status: ('A' for Active; 'I' for Inactive)
REMARK    1  A    between atoms: C_1  and  C_2
REMARK    2  A    between atoms: C_10  and  C_11
REMARK    3  A    between atoms: C_11  and  O_12
REMARK    4  A    between atoms: O_12  and  C_13
REMARK    5  A    between atoms: C_16  and  S_17
REMARK    6  A    between atoms: S_17  and  C_18
REMARK                            x       y       z     vdW  Elec       q    Type
REMARK                         _______ _______ _______ _____ _____    ______ ____
ROOT
ATOM      1  C   UNL     1      42.668   5.363  11.376  0.00  0.00    +0.000 C 
ATOM      2  C   UNL     1      44.117   4.933  11.589  0.00  0.00    +0.000 C 
ATOM      3  C   UNL     1      44.966   6.135  12.034  0.00  0.00    +0.000 C 
ATOM      4  C   UNL     1      46.393   5.721  12.390  0.00  0.00    +0.000 C 
ATOM      5  N   UNL     1      46.332   4.644  13.363  0.00  0.00    +0.000 N 
ATOM      6  C   UNL     1      47.114   4.684  14.488  0.00  0.00    +0.000 A 
ATOM      7  N   UNL     1      47.076   3.660  15.355  0.00  0.00    +0.000 NA
ATOM      8  C   UNL     1      47.823   3.760  16.470  0.00  0.00    +0.000 A 
ATOM      9  C   UNL     1      48.612   4.846  16.761  0.00  0.00    +0.000 A 
ATOM     10  C   UNL     1      48.586   5.866  15.842  0.00  0.00    +0.000 A 
ATOM     11  N   UNL     1      47.851   5.786  14.714  0.00  0.00    +0.000 NA
ATOM     12  C   UNL     1      45.646   3.431  12.957  0.00  0.00    +0.000 C 
ATOM     13  C   UNL     1      44.197   3.787  12.615  0.00  0.00    +0.000 C 
ENDROOT
BRANCH  10  14
ATOM     14  C   UNL     1      49.335   7.160  16.078  0.00  0.00    +0.000 C 
BRANCH  14  15
ATOM     15  O   UNL     1      49.112   8.072  15.001  0.00  0.00    +0.000 OA
BRANCH  15  16
ATOM     16  C   UNL     1      50.116   8.199  14.078  0.00  0.00    +0.000 A 
ATOM     17  C   UNL     1      51.464   8.451  14.351  0.00  0.00    +0.000 A 
ATOM     18  C   UNL     1      52.391   8.562  13.306  0.00  0.00    +0.000 A 
ATOM     19  C   UNL     1      51.967   8.418  11.984  0.00  0.00    +0.000 A 
ATOM     20  C   UNL     1      50.626   8.167  11.697  0.00  0.00    +0.000 A 
ATOM     21  C   UNL     1      49.707   8.060  12.746  0.00  0.00    +0.000 A 
BRANCH  19  22
ATOM     22  S   UNL     1      53.110   8.732  10.651  0.00  0.00    +0.000 S 
ATOM     23  C   UNL     1      53.545   7.130  10.029  0.00  0.00    +0.000 C 
ATOM     24  O   UNL     1      52.381   9.426   9.608  0.00  0.00    +0.000 OA
ATOM     25  O   UNL     1      54.298   9.313  11.239  0.00  0.00    +0.000 OA
ENDBRANCH  19  22
ENDBRANCH  15  16
ENDBRANCH  14  15
ENDBRANCH  10  14
TORSDOF 4
ENDMDL
