MODEL 1
REMARK VINA RESULT:    -8.002      0.000      0.000
REMARK INTER + INTRA:         -12.248
REMARK INTER:                 -11.042
REMARK INTRA:                  -1.206
REMARK UNBOUND:                -1.206
REMARK  Name = 
REMARK  7 active torsions:
REMARK  status: ('A' for Active; 'I' for Inactive)
REMARK    1  A    between atoms: N_1  and  C_2
REMARK    2  A    between atoms: C_2  and  N_3
REMARK    3  A    between atoms: C_2  and  C_16
REMARK    4  A    between atoms: C_4  and  C_6
REMARK    5  A    between atoms: C_19  and  C_20
REMARK    6  A    between atoms: C_20  and  N_21
REMARK    7  A    between atoms: C_22  and  C_24
REMARK                            x       y       z     vdW  Elec       q    Type
REMARK                         _______ _______ _______ _____ _____    ______ ____
ROOT
ATOM      1  C   UNL     1      46.877   7.875  13.161  0.00  0.00    +0.000 C 
ENDROOT
BRANCH   1   2
ATOM      2  C   UNL     1      46.092   6.860  12.347  0.00  0.00    +0.000 A 
ATOM      3  C   UNL     1      44.936   6.261  12.866  0.00  0.00    +0.000 A 
ATOM      4  C   UNL     1      44.197   5.346  12.102  0.00  0.00    +0.000 A 
ATOM      5  C   UNL     1      44.604   4.999  10.807  0.00  0.00    +0.000 A 
ATOM      6  C   UNL     1      45.755   5.597  10.281  0.00  0.00    +0.000 A 
ATOM      7  C   UNL     1      46.492   6.508  11.043  0.00  0.00    +0.000 A 
BRANCH   5   8
ATOM      8  C   UNL     1      43.808   4.025   9.976  0.00  0.00    +0.000 C 
BRANCH   8   9
ATOM      9  N   UNL     1      44.392   3.855   8.664  0.00  0.00    +0.000 N 
ATOM     10  C   UNL     1      45.169   2.756   8.363  0.00  0.00    +0.000 C 
ATOM     11  O   UNL     1      45.346   1.828   9.146  0.00  0.00    +0.000 OA
ATOM     12  H   UNL     1      44.271   4.600   7.994  0.00  0.00    +0.000 HD
BRANCH  10  13
ATOM     13  C   UNL     1      45.751   2.788   6.954  0.00  0.00    +0.000 C 
ATOM     14  C   UNL     1      46.447   1.506   6.546  0.00  0.00    +0.000 C 
ATOM     15  C   UNL     1      47.857   1.709   7.056  0.00  0.00    +0.000 C 
ATOM     16  O   UNL     1      48.119   3.116   6.993  0.00  0.00    +0.000 OA
ATOM     17  C   UNL     1      46.870   3.809   6.854  0.00  0.00    +0.000 C 
ENDBRANCH  10  13
ENDBRANCH   8   9
ENDBRANCH   5   8
ENDBRANCH   1   2
BRANCH   1  18
ATOM     18  N   UNL     1      47.360   7.264  14.365  0.00  0.00    +0.000 N 
ATOM     19  C   UNL     1      48.634   6.785  14.533  0.00  0.00    +0.000 C 
ATOM     20  O   UNL     1      49.515   6.939  13.691  0.00  0.00    +0.000 OA
ATOM     21  H   UNL     1      46.635   6.792  14.896  0.00  0.00    +0.000 HD
BRANCH  19  22
ATOM     22  C   UNL     1      48.916   6.191  15.844  0.00  0.00    +0.000 A 
ATOM     23  C   UNL     1      49.879   6.756  16.668  0.00  0.00    +0.000 A 
ATOM     24  S   UNL     1      50.007   5.994  18.189  0.00  0.00    +0.000 S 
ATOM     25  C   UNL     1      48.817   4.849  17.779  0.00  0.00    +0.000 A 
ATOM     26  N   UNL     1      48.451   3.874  18.651  0.00  0.00    +0.000 NA
ATOM     27  C   UNL     1      47.558   3.057  18.196  0.00  0.00    +0.000 A 
ATOM     28  N   UNL     1      46.997   3.130  16.947  0.00  0.00    +0.000 N 
ATOM     29  C   UNL     1      47.317   4.116  16.042  0.00  0.00    +0.000 A 
ATOM     30  O   UNL     1      46.769   4.187  14.947  0.00  0.00    +0.000 OA
ATOM     31  C   UNL     1      48.321   5.053  16.504  0.00  0.00    +0.000 A 
ATOM     32  H   UNL     1      46.301   2.462  16.654  0.00  0.00    +0.000 HD
ENDBRANCH  19  22
ENDBRANCH   1  18
BRANCH   1  33
ATOM     33  N   UNL     1      46.029   8.976  13.564  0.00  0.00    +0.000 NA
ATOM     34  H   UNL     1      46.327   9.235  14.508  0.00  0.00    +0.000 HD
ATOM     35  H   UNL     1      45.086   8.619  13.676  0.00  0.00    +0.000 HD
ENDBRANCH   1  33
TORSDOF 7
ENDMDL
MODEL 2
REMARK VINA RESULT:    -7.828      2.041      3.678
REMARK INTER + INTRA:         -12.009
REMARK INTER:                 -10.868
REMARK INTRA:                  -1.140
REMARK UNBOUND:                -1.206
REMARK  Name = 
REMARK  7 active torsions:
REMARK  status: ('A' for Active; 'I' for Inactive)
REMARK    1  A    between atoms: N_1  and  C_2
REMARK    2  A    between atoms: C_2  and  N_3
REMARK    3  A    between atoms: C_2  and  C_16
REMARK    4  A    between atoms: C_4  and  C_6
REMARK    5  A    between atoms: C_19  and  C_20
REMARK    6  A    between atoms: C_20  and  N_21
REMARK    7  A    between atoms: C_22  and  C_24
REMARK                            x       y       z     vdW  Elec       q    Type
REMARK                         _______ _______ _______ _____ _____    ______ ____
ROOT
ATOM      1  C   UNL     1      46.634   4.383  14.452  0.00  0.00    +0.000 C 
ENDROOT
BRANCH   1   2
ATOM      2  C   UNL     1      46.001   4.426  13.070  0.00  0.00    +0.000 A 
ATOM      3  C   UNL     1      45.386   3.292  12.526  0.00  0.00    +0.000 A 
ATOM      4  C   UNL     1      44.777   3.341  11.264  0.00  0.00    +0.000 A 
ATOM      5  C   UNL     1      44.781   4.524  10.511  0.00  0.00    +0.000 A 
ATOM      6  C   UNL     1      45.391   5.662  11.051  0.00  0.00    +0.000 A 
ATOM      7  C   UNL     1      45.999   5.611  12.309  0.00  0.00    +0.000 A 
BRANCH   5   8
ATOM      8  C   UNL     1      44.119   4.588   9.158  0.00  0.00    +0.000 C 
BRANCH   8   9
ATOM      9  N   UNL     1      44.562   3.506   8.307  0.00  0.00    +0.000 N 
ATOM     10  C   UNL     1      45.718   3.606   7.563  0.00  0.00    +0.000 C 
ATOM     11  O   UNL     1      46.477   4.569   7.634  0.00  0.00    +0.000 OA
ATOM     12  H   UNL     1      43.961   2.699   8.220  0.00  0.00    +0.000 HD
BRANCH  10  13
ATOM     13  C   UNL     1      45.982   2.393   6.677  0.00  0.00    +0.000 C 
ATOM     14  C   UNL     1      46.907   1.367   7.296  0.00  0.00    +0.000 C 
ATOM     15  C   UNL     1      48.280   1.864   6.901  0.00  0.00    +0.000 C 
ATOM     16  O   UNL     1      48.130   2.521   5.636  0.00  0.00    +0.000 OA
ATOM     17  C   UNL     1      46.738   2.794   5.423  0.00  0.00    +0.000 C 
ENDBRANCH  10  13
ENDBRANCH   8   9
ENDBRANCH   5   8
ENDBRANCH   1   2
BRANCH   1  18
ATOM     18  N   UNL     1      47.415   5.567  14.666  0.00  0.00    +0.000 N 
ATOM     19  C   UNL     1      48.279   5.744  15.717  0.00  0.00    +0.000 C 
ATOM     20  O   UNL     1      48.542   4.849  16.516  0.00  0.00    +0.000 OA
ATOM     21  H   UNL     1      46.979   6.408  14.304  0.00  0.00    +0.000 HD
BRANCH  19  22
ATOM     22  C   UNL     1      48.973   7.036  15.750  0.00  0.00    +0.000 A 
ATOM     23  C   UNL     1      49.106   7.721  16.950  0.00  0.00    +0.000 A 
ATOM     24  S   UNL     1      50.021   9.154  16.818  0.00  0.00    +0.000 S 
ATOM     25  C   UNL     1      50.225   8.938  15.143  0.00  0.00    +0.000 A 
ATOM     26  N   UNL     1      50.917   9.839  14.398  0.00  0.00    +0.000 NA
ATOM     27  C   UNL     1      50.967   9.563  13.136  0.00  0.00    +0.000 A 
ATOM     28  N   UNL     1      50.390   8.464  12.553  0.00  0.00    +0.000 N 
ATOM     29  C   UNL     1      49.704   7.512  13.273  0.00  0.00    +0.000 A 
ATOM     30  O   UNL     1      49.235   6.515  12.734  0.00  0.00    +0.000 OA
ATOM     31  C   UNL     1      49.614   7.781  14.693  0.00  0.00    +0.000 A 
ATOM     32  H   UNL     1      50.469   8.305  11.561  0.00  0.00    +0.000 HD
ENDBRANCH  19  22
ENDBRANCH   1  18
BRANCH   1  33
ATOM     33  N   UNL     1      47.540   3.261  14.566  0.00  0.00    +0.000 NA
ATOM     34  H   UNL     1      47.889   3.273  15.528  0.00  0.00    +0.000 HD
ATOM     35  H   UNL     1      48.353   3.455  13.990  0.00  0.00    +0.000 HD
ENDBRANCH   1  33
TORSDOF 7
ENDMDL
MODEL 3
REMARK VINA RESULT:    -7.586      4.250      9.154
REMARK INTER + INTRA:         -11.674
REMARK INTER:                 -10.443
REMARK INTRA:                  -1.232
REMARK UNBOUND:                -1.206
REMARK  Name = 
REMARK  7 active torsions:
REMARK  status: ('A' for Active; 'I' for Inactive)
REMARK    1  A    between atoms: N_1  and  C_2
REMARK    2  A    between atoms: C_2  and  N_3
REMARK    3  A    between atoms: C_2  and  C_16
REMARK    4  A    between atoms: C_4  and  C_6
REMARK    5  A    between atoms: C_19  and  C_20
REMARK    6  A    between atoms: C_20  and  N_21
REMARK    7  A    between atoms: C_22  and  C_24
REMARK                            x       y       z     vdW  Elec       q    Type
REMARK                         _______ _______ _______ _____ _____    ______ ____
ROOT
ATOM      1  C   UNL     1      47.416   3.345  16.494  0.00  0.00    +0.000 C 
ENDROOT
BRANCH   1   2
ATOM      2  C   UNL     1      48.816   3.788  16.886  0.00  0.00    +0.000 A 
ATOM      3  C   UNL     1      49.165   5.145  16.893  0.00  0.00    +0.000 A 
ATOM      4  C   UNL     1      50.448   5.554  17.282  0.00  0.00    +0.000 A 
ATOM      5  C   UNL     1      51.417   4.614  17.660  0.00  0.00    +0.000 A 
ATOM      6  C   UNL     1      51.074   3.258  17.659  0.00  0.00    +0.000 A 
ATOM      7  C   UNL     1      49.794   2.851  17.269  0.00  0.00    +0.000 A 
BRANCH   5   8
ATOM      8  C   UNL     1      52.795   5.048  18.090  0.00  0.00    +0.000 C 
BRANCH   8   9
ATOM      9  N   UNL     1      53.653   3.908  18.327  0.00  0.00    +0.000 N 
ATOM     10  C   UNL     1      54.719   3.629  17.498  0.00  0.00    +0.000 C 
ATOM     11  O   UNL     1      55.053   4.360  16.570  0.00  0.00    +0.000 OA
ATOM     12  H   UNL     1      53.407   3.282  19.079  0.00  0.00    +0.000 HD
BRANCH  10  13
ATOM     13  C   UNL     1      55.463   2.351  17.868  0.00  0.00    +0.000 C 
ATOM     14  C   UNL     1      55.289   1.226  16.871  0.00  0.00    +0.000 C 
ATOM     15  C   UNL     1      54.025   0.542  17.347  0.00  0.00    +0.000 C 
ATOM     16  O   UNL     1      53.982   0.706  18.770  0.00  0.00    +0.000 OA
ATOM     17  C   UNL     1      54.898   1.746  19.141  0.00  0.00    +0.000 C 
ENDBRANCH  10  13
ENDBRANCH   8   9
ENDBRANCH   5   8
ENDBRANCH   1   2
BRANCH   1  18
ATOM     18  N   UNL     1      46.842   4.293  15.583  0.00  0.00    +0.000 N 
ATOM     19  C   UNL     1      46.792   4.125  14.223  0.00  0.00    +0.000 C 
ATOM     20  O   UNL     1      47.142   3.085  13.670  0.00  0.00    +0.000 OA
ATOM     21  H   UNL     1      46.900   5.251  15.910  0.00  0.00    +0.000 HD
BRANCH  19  22
ATOM     22  C   UNL     1      46.168   5.222  13.476  0.00  0.00    +0.000 A 
ATOM     23  C   UNL     1      46.857   6.412  13.286  0.00  0.00    +0.000 A 
ATOM     24  S   UNL     1      46.019   7.538  12.317  0.00  0.00    +0.000 S 
ATOM     25  C   UNL     1      44.683   6.497  12.163  0.00  0.00    +0.000 A 
ATOM     26  N   UNL     1      43.584   6.864  11.454  0.00  0.00    +0.000 NA
ATOM     27  C   UNL     1      42.634   5.988  11.446  0.00  0.00    +0.000 A 
ATOM     28  N   UNL     1      42.686   4.774  12.082  0.00  0.00    +0.000 N 
ATOM     29  C   UNL     1      43.789   4.349  12.787  0.00  0.00    +0.000 A 
ATOM     30  O   UNL     1      43.828   3.240  13.310  0.00  0.00    +0.000 OA
ATOM     31  C   UNL     1      44.879   5.302  12.832  0.00  0.00    +0.000 A 
ATOM     32  H   UNL     1      41.910   4.133  12.033  0.00  0.00    +0.000 HD
ENDBRANCH  19  22
ENDBRANCH   1  18
BRANCH   1  33
ATOM     33  N   UNL     1      46.549   3.303  17.651  0.00  0.00    +0.000 NA
ATOM     34  H   UNL     1      46.594   4.233  18.075  0.00  0.00    +0.000 HD
ATOM     35  H   UNL     1      46.970   2.683  18.336  0.00  0.00    +0.000 HD
ENDBRANCH   1  33
TORSDOF 7
ENDMDL
MODEL 4
REMARK VINA RESULT:    -7.445      3.279      5.426
REMARK INTER + INTRA:         -11.480
REMARK INTER:                 -10.161
REMARK INTRA:                  -1.319
REMARK UNBOUND:                -1.206
REMARK  Name = 
REMARK  7 active torsions:
REMARK  status: ('A' for Active; 'I' for Inactive)
REMARK    1  A    between atoms: N_1  and  C_2
REMARK    2  A    between atoms: C_2  and  N_3
REMARK    3  A    between atoms: C_2  and  C_16
REMARK    4  A    between atoms: C_4  and  C_6
REMARK    5  A    between atoms: C_19  and  C_20
REMARK    6  A    between atoms: C_20  and  N_21
REMARK    7  A    between atoms: C_22  and  C_24
REMARK                            x       y       z     vdW  Elec       q    Type
REMARK                         _______ _______ _______ _____ _____    ______ ____
ROOT
ATOM      1  C   UNL     1      47.752   4.054  17.495  0.00  0.00    +0.000 C 
ENDROOT
BRANCH   1   2
ATOM      2  C   UNL     1      47.596   4.628  16.097  0.00  0.00    +0.000 A 
ATOM      3  C   UNL     1      46.766   4.009  15.153  0.00  0.00    +0.000 A 
ATOM      4  C   UNL     1      46.601   4.556  13.873  0.00  0.00    +0.000 A 
ATOM      5  C   UNL     1      47.272   5.729  13.503  0.00  0.00    +0.000 A 
ATOM      6  C   UNL     1      48.099   6.356  14.442  0.00  0.00    +0.000 A 
ATOM      7  C   UNL     1      48.264   5.808  15.717  0.00  0.00    +0.000 A 
BRANCH   5   8
ATOM      8  C   UNL     1      47.091   6.329  12.132  0.00  0.00    +0.000 C 
BRANCH   8   9
ATOM      9  N   UNL     1      45.966   5.735  11.444  0.00  0.00    +0.000 N 
ATOM     10  C   UNL     1      44.738   6.359  11.406  0.00  0.00    +0.000 C 
ATOM     11  O   UNL     1      44.541   7.476  11.875  0.00  0.00    +0.000 OA
ATOM     12  H   UNL     1      46.089   4.813  11.049  0.00  0.00    +0.000 HD
BRANCH  10  13
ATOM     13  C   UNL     1      43.661   5.547  10.694  0.00  0.00    +0.000 C 
ATOM     14  C   UNL     1      42.662   4.896  11.627  0.00  0.00    +0.000 C 
ATOM     15  C   UNL     1      43.326   3.580  11.970  0.00  0.00    +0.000 C 
ATOM     16  O   UNL     1      44.102   3.201  10.827  0.00  0.00    +0.000 OA
ATOM     17  C   UNL     1      44.267   4.351   9.983  0.00  0.00    +0.000 C 
ENDBRANCH  10  13
ENDBRANCH   8   9
ENDBRANCH   5   8
ENDBRANCH   1   2
BRANCH   1  18
ATOM     18  N   UNL     1      49.109   3.638  17.702  0.00  0.00    +0.000 N 
ATOM     19  C   UNL     1      49.700   2.580  17.060  0.00  0.00    +0.000 C 
ATOM     20  O   UNL     1      49.143   1.956  16.161  0.00  0.00    +0.000 OA
ATOM     21  H   UNL     1      49.455   3.841  18.634  0.00  0.00    +0.000 HD
BRANCH  19  22
ATOM     22  C   UNL     1      51.098   2.324  17.426  0.00  0.00    +0.000 A 
ATOM     23  C   UNL     1      51.535   1.021  17.619  0.00  0.00    +0.000 A 
ATOM     24  S   UNL     1      53.205   0.904  17.945  0.00  0.00    +0.000 S 
ATOM     25  C   UNL     1      53.391   2.594  17.893  0.00  0.00    +0.000 A 
ATOM     26  N   UNL     1      54.600   3.175  18.109  0.00  0.00    +0.000 NA
ATOM     27  C   UNL     1      54.589   4.467  18.069  0.00  0.00    +0.000 A 
ATOM     28  N   UNL     1      53.476   5.231  17.828  0.00  0.00    +0.000 N 
ATOM     29  C   UNL     1      52.237   4.685  17.576  0.00  0.00    +0.000 A 
ATOM     30  O   UNL     1      51.266   5.388  17.320  0.00  0.00    +0.000 OA
ATOM     31  C   UNL     1      52.198   3.237  17.619  0.00  0.00    +0.000 A 
ATOM     32  H   UNL     1      53.535   6.236  17.806  0.00  0.00    +0.000 HD
ENDBRANCH  19  22
ENDBRANCH   1  18
BRANCH   1  33
ATOM     33  N   UNL     1      46.927   2.878  17.662  0.00  0.00    +0.000 NA
ATOM     34  H   UNL     1      46.504   2.954  18.591  0.00  0.00    +0.000 HD
ATOM     35  H   UNL     1      47.540   2.071  17.720  0.00  0.00    +0.000 HD
ENDBRANCH   1  33
TORSDOF 7
ENDMDL
MODEL 5
REMARK VINA RESULT:    -7.168      3.383      5.173
REMARK INTER + INTRA:         -11.098
REMARK INTER:                  -9.610
REMARK INTRA:                  -1.488
REMARK UNBOUND:                -1.206
REMARK  Name = 
REMARK  7 active torsions:
REMARK  status: ('A' for Active; 'I' for Inactive)
REMARK    1  A    between atoms: N_1  and  C_2
REMARK    2  A    between atoms: C_2  and  N_3
REMARK    3  A    between atoms: C_2  and  C_16
REMARK    4  A    between atoms: C_4  and  C_6
REMARK    5  A    between atoms: C_19  and  C_20
REMARK    6  A    between atoms: C_20  and  N_21
REMARK    7  A    between atoms: C_22  and  C_24
REMARK                            x       y       z     vdW  Elec       q    Type
REMARK                         _______ _______ _______ _____ _____    ______ ____
ROOT
ATOM      1  C   UNL     1      48.018   4.683  17.258  0.00  0.00    +0.000 C 
ENDROOT
BRANCH   1   2
ATOM      2  C   UNL     1      47.774   5.123  15.824  0.00  0.00    +0.000 A 
ATOM      3  C   UNL     1      46.915   4.399  14.986  0.00  0.00    +0.000 A 
ATOM      4  C   UNL     1      46.669   4.823  13.673  0.00  0.00    +0.000 A 
ATOM      5  C   UNL     1      47.285   5.974  13.163  0.00  0.00    +0.000 A 
ATOM      6  C   UNL     1      48.141   6.704  13.996  0.00  0.00    +0.000 A 
ATOM      7  C   UNL     1      48.387   6.279  15.304  0.00  0.00    +0.000 A 
BRANCH   5   8
ATOM      8  C   UNL     1      47.016   6.442  11.755  0.00  0.00    +0.000 C 
BRANCH   8   9
ATOM      9  N   UNL     1      45.847   5.795  11.202  0.00  0.00    +0.000 N 
ATOM     10  C   UNL     1      44.605   6.390  11.259  0.00  0.00    +0.000 C 
ATOM     11  O   UNL     1      44.425   7.521  11.702  0.00  0.00    +0.000 OA
ATOM     12  H   UNL     1      45.955   4.861  10.833  0.00  0.00    +0.000 HD
BRANCH  10  13
ATOM     13  C   UNL     1      43.486   5.526  10.686  0.00  0.00    +0.000 C 
ATOM     14  C   UNL     1      42.604   4.885  11.736  0.00  0.00    +0.000 C 
ATOM     15  C   UNL     1      43.335   3.599  12.055  0.00  0.00    +0.000 C 
ATOM     16  O   UNL     1      44.005   3.198  10.853  0.00  0.00    +0.000 OA
ATOM     17  C   UNL     1      44.053   4.320   9.959  0.00  0.00    +0.000 C 
ENDBRANCH  10  13
ENDBRANCH   8   9
ENDBRANCH   5   8
ENDBRANCH   1   2
BRANCH   1  18
ATOM     18  N   UNL     1      49.389   4.293  17.421  0.00  0.00    +0.000 N 
ATOM     19  C   UNL     1      50.070   4.334  18.611  0.00  0.00    +0.000 C 
ATOM     20  O   UNL     1      49.524   4.611  19.676  0.00  0.00    +0.000 OA
ATOM     21  H   UNL     1      49.948   4.429  16.585  0.00  0.00    +0.000 HD
BRANCH  19  22
ATOM     22  C   UNL     1      51.469   3.897  18.551  0.00  0.00    +0.000 A 
ATOM     23  C   UNL     1      52.471   4.712  19.058  0.00  0.00    +0.000 A 
ATOM     24  S   UNL     1      54.022   4.004  18.992  0.00  0.00    +0.000 S 
ATOM     25  C   UNL     1      53.416   2.608  18.234  0.00  0.00    +0.000 A 
ATOM     26  N   UNL     1      54.239   1.587  17.880  0.00  0.00    +0.000 NA
ATOM     27  C   UNL     1      53.647   0.603  17.286  0.00  0.00    +0.000 A 
ATOM     28  N   UNL     1      52.303   0.547  17.017  0.00  0.00    +0.000 N 
ATOM     29  C   UNL     1      51.428   1.545  17.383  0.00  0.00    +0.000 A 
ATOM     30  O   UNL     1      50.224   1.452  17.171  0.00  0.00    +0.000 OA
ATOM     31  C   UNL     1      52.047   2.675  18.045  0.00  0.00    +0.000 A 
ATOM     32  H   UNL     1      51.903  -0.252  16.553  0.00  0.00    +0.000 HD
ENDBRANCH  19  22
ENDBRANCH   1  18
BRANCH   1  33
ATOM     33  N   UNL     1      47.215   3.525  17.583  0.00  0.00    +0.000 NA
ATOM     34  H   UNL     1      46.332   3.639  17.079  0.00  0.00    +0.000 HD
ATOM     35  H   UNL     1      46.965   3.583  18.565  0.00  0.00    +0.000 HD
ENDBRANCH   1  33
TORSDOF 7
ENDMDL
MODEL 6
REMARK VINA RESULT:    -6.978      2.503      3.752
REMARK INTER + INTRA:         -10.835
REMARK INTER:                  -9.442
REMARK INTRA:                  -1.393
REMARK UNBOUND:                -1.206
REMARK  Name = 
REMARK  7 active torsions:
REMARK  status: ('A' for Active; 'I' for Inactive)
REMARK    1  A    between atoms: N_1  and  C_2
REMARK    2  A    between atoms: C_2  and  N_3
REMARK    3  A    between atoms: C_2  and  C_16
REMARK    4  A    between atoms: C_4  and  C_6
REMARK    5  A    between atoms: C_19  and  C_20
REMARK    6  A    between atoms: C_20  and  N_21
REMARK    7  A    between atoms: C_22  and  C_24
REMARK                            x       y       z     vdW  Elec       q    Type
REMARK                         _______ _______ _______ _____ _____    ______ ____
ROOT
ATOM      1  C   UNL     1      47.192   4.251  15.804  0.00  0.00    +0.000 C 
ENDROOT
BRANCH   1   2
ATOM      2  C   UNL     1      46.745   4.722  14.430  0.00  0.00    +0.000 A 
ATOM      3  C   UNL     1      45.896   3.935  13.641  0.00  0.00    +0.000 A 
ATOM      4  C   UNL     1      45.461   4.383  12.386  0.00  0.00    +0.000 A 
ATOM      5  C   UNL     1      45.876   5.625  11.885  0.00  0.00    +0.000 A 
ATOM      6  C   UNL     1      46.720   6.418  12.669  0.00  0.00    +0.000 A 
ATOM      7  C   UNL     1      47.154   5.969  13.920  0.00  0.00    +0.000 A 
BRANCH   5   8
ATOM      8  C   UNL     1      45.403   6.119  10.541  0.00  0.00    +0.000 C 
BRANCH   8   9
ATOM      9  N   UNL     1      44.968   5.023   9.704  0.00  0.00    +0.000 N 
ATOM     10  C   UNL     1      45.661   4.671   8.565  0.00  0.00    +0.000 C 
ATOM     11  O   UNL     1      46.718   5.202   8.236  0.00  0.00    +0.000 OA
ATOM     12  H   UNL     1      44.099   4.565   9.941  0.00  0.00    +0.000 HD
BRANCH  10  13
ATOM     13  C   UNL     1      45.011   3.539   7.778  0.00  0.00    +0.000 C 
ATOM     14  C   UNL     1      44.658   2.329   8.618  0.00  0.00    +0.000 C 
ATOM     15  C   UNL     1      45.933   1.515   8.594  0.00  0.00    +0.000 C 
ATOM     16  O   UNL     1      46.563   1.776   7.334  0.00  0.00    +0.000 OA
ATOM     17  C   UNL     1      45.980   2.957   6.765  0.00  0.00    +0.000 C 
ENDBRANCH  10  13
ENDBRANCH   8   9
ENDBRANCH   5   8
ENDBRANCH   1   2
BRANCH   1  18
ATOM     18  N   UNL     1      48.052   5.233  16.398  0.00  0.00    +0.000 N 
ATOM     19  C   UNL     1      48.231   5.388  17.749  0.00  0.00    +0.000 C 
ATOM     20  O   UNL     1      47.746   4.618  18.574  0.00  0.00    +0.000 OA
ATOM     21  H   UNL     1      48.152   6.073  15.838  0.00  0.00    +0.000 HD
BRANCH  19  22
ATOM     22  C   UNL     1      49.151   6.460  18.143  0.00  0.00    +0.000 A 
ATOM     23  C   UNL     1      48.656   7.624  18.716  0.00  0.00    +0.000 A 
ATOM     24  S   UNL     1      49.873   8.718  19.197  0.00  0.00    +0.000 S 
ATOM     25  C   UNL     1      51.101   7.700  18.607  0.00  0.00    +0.000 A 
ATOM     26  N   UNL     1      52.409   8.056  18.692  0.00  0.00    +0.000 NA
ATOM     27  C   UNL     1      53.231   7.201  18.177  0.00  0.00    +0.000 A 
ATOM     28  N   UNL     1      52.861   6.019  17.588  0.00  0.00    +0.000 N 
ATOM     29  C   UNL     1      51.551   5.606  17.505  0.00  0.00    +0.000 A 
ATOM     30  O   UNL     1      51.249   4.524  17.012  0.00  0.00    +0.000 OA
ATOM     31  C   UNL     1      50.590   6.536  18.062  0.00  0.00    +0.000 A 
ATOM     32  H   UNL     1      53.554   5.393  17.208  0.00  0.00    +0.000 HD
ENDBRANCH  19  22
ENDBRANCH   1  18
BRANCH   1  33
ATOM     33  N   UNL     1      47.961   3.030  15.703  0.00  0.00    +0.000 NA
ATOM     34  H   UNL     1      48.836   3.202  16.205  0.00  0.00    +0.000 HD
ATOM     35  H   UNL     1      48.236   2.914  14.733  0.00  0.00    +0.000 HD
ENDBRANCH   1  33
TORSDOF 7
ENDMDL
MODEL 7
REMARK VINA RESULT:    -6.929      4.405      9.142
REMARK INTER + INTRA:         -10.768
REMARK INTER:                  -9.285
REMARK INTRA:                  -1.483
REMARK UNBOUND:                -1.206
REMARK  Name = 
REMARK  7 active torsions:
REMARK  status: ('A' for Active; 'I' for Inactive)
REMARK    1  A    between atoms: N_1  and  C_2
REMARK    2  A    between atoms: C_2  and  N_3
REMARK    3  A    between atoms: C_2  and  C_16
REMARK    4  A    between atoms: C_4  and  C_6
REMARK    5  A    between atoms: C_19  and  C_20
REMARK    6  A    between atoms: C_20  and  N_21
REMARK    7  A    between atoms: C_22  and  C_24
REMARK                            x       y       z     vdW  Elec       q    Type
REMARK                         _______ _______ _______ _____ _____    ______ ____
ROOT
ATOM      1  C   UNL     1      47.555   3.021  16.670  0.00  0.00    +0.000 C 
ENDROOT
BRANCH   1   2
ATOM      2  C   UNL     1      48.968   3.299  17.154  0.00  0.00    +0.000 A 
ATOM      3  C   UNL     1      49.957   2.308  17.093  0.00  0.00    +0.000 A 
ATOM      4  C   UNL     1      51.268   2.575  17.513  0.00  0.00    +0.000 A 
ATOM      5  C   UNL     1      51.617   3.836  18.016  0.00  0.00    +0.000 A 
ATOM      6  C   UNL     1      50.635   4.831  18.076  0.00  0.00    +0.000 A 
ATOM      7  C   UNL     1      49.329   4.564  17.659  0.00  0.00    +0.000 A 
BRANCH   5   8
ATOM      8  C   UNL     1      53.027   4.133  18.460  0.00  0.00    +0.000 C 
BRANCH   8   9
ATOM      9  N   UNL     1      53.844   2.940  18.445  0.00  0.00    +0.000 N 
ATOM     10  C   UNL     1      54.928   2.824  17.601  0.00  0.00    +0.000 C 
ATOM     11  O   UNL     1      55.312   3.738  16.878  0.00  0.00    +0.000 OA
ATOM     12  H   UNL     1      53.555   2.164  19.023  0.00  0.00    +0.000 HD
BRANCH  10  13
ATOM     13  C   UNL     1      55.622   1.469  17.680  0.00  0.00    +0.000 C 
ATOM     14  C   UNL     1      55.511   0.644  16.416  0.00  0.00    +0.000 C 
ATOM     15  C   UNL     1      54.204  -0.095  16.606  0.00  0.00    +0.000 C 
ATOM     16  O   UNL     1      54.052  -0.302  18.016  0.00  0.00    +0.000 OA
ATOM     17  C   UNL     1      54.951   0.576  18.709  0.00  0.00    +0.000 C 
ENDBRANCH  10  13
ENDBRANCH   8   9
ENDBRANCH   5   8
ENDBRANCH   1   2
BRANCH   1  18
ATOM     18  N   UNL     1      47.119   4.082  15.808  0.00  0.00    +0.000 N 
ATOM     19  C   UNL     1      47.046   3.987  14.442  0.00  0.00    +0.000 C 
ATOM     20  O   UNL     1      47.248   2.936  13.839  0.00  0.00    +0.000 OA
ATOM     21  H   UNL     1      47.309   5.007  16.179  0.00  0.00    +0.000 HD
BRANCH  19  22
ATOM     22  C   UNL     1      46.580   5.195  13.751  0.00  0.00    +0.000 A 
ATOM     23  C   UNL     1      45.375   5.178  13.062  0.00  0.00    +0.000 A 
ATOM     24  S   UNL     1      44.946   6.691  12.402  0.00  0.00    +0.000 S 
ATOM     25  C   UNL     1      46.381   7.408  12.967  0.00  0.00    +0.000 A 
ATOM     26  N   UNL     1      46.655   8.716  12.726  0.00  0.00    +0.000 NA
ATOM     27  C   UNL     1      47.793   9.120  13.188  0.00  0.00    +0.000 A 
ATOM     28  N   UNL     1      48.681   8.331  13.874  0.00  0.00    +0.000 N 
ATOM     29  C   UNL     1      48.433   7.009  14.166  0.00  0.00    +0.000 A 
ATOM     30  O   UNL     1      49.223   6.337  14.820  0.00  0.00    +0.000 OA
ATOM     31  C   UNL     1      47.171   6.508  13.661  0.00  0.00    +0.000 A 
ATOM     32  H   UNL     1      49.552   8.709  14.212  0.00  0.00    +0.000 HD
ENDBRANCH  19  22
ENDBRANCH   1  18
BRANCH   1  33
ATOM     33  N   UNL     1      46.630   2.982  17.781  0.00  0.00    +0.000 NA
ATOM     34  H   UNL     1      45.722   2.723  17.388  0.00  0.00    +0.000 HD
ATOM     35  H   UNL     1      46.507   3.931  18.120  0.00  0.00    +0.000 HD
ENDBRANCH   1  33
TORSDOF 7
ENDMDL
MODEL 8
REMARK VINA RESULT:    -6.886      2.409      3.083
REMARK INTER + INTRA:         -10.708
REMARK INTER:                  -9.203
REMARK INTRA:                  -1.505
REMARK UNBOUND:                -1.206
REMARK  Name = 
REMARK  7 active torsions:
REMARK  status: ('A' for Active; 'I' for Inactive)
REMARK    1  A    between atoms: N_1  and  C_2
REMARK    2  A    between atoms: C_2  and  N_3
REMARK    3  A    between atoms: C_2  and  C_16
REMARK    4  A    between atoms: C_4  and  C_6
REMARK    5  A    between atoms: C_19  and  C_20
REMARK    6  A    between atoms: C_20  and  N_21
REMARK    7  A    between atoms: C_22  and  C_24
REMARK                            x       y       z     vdW  Elec       q    Type
REMARK                         _______ _______ _______ _____ _____    ______ ____
ROOT
ATOM      1  C   UNL     1      48.558   6.647  13.874  0.00  0.00    +0.000 C 
ENDROOT
BRANCH   1   2
ATOM      2  C   UNL     1      47.293   6.280  13.115  0.00  0.00    +0.000 A 
ATOM      3  C   UNL     1      46.309   5.475  13.705  0.00  0.00    +0.000 A 
ATOM      4  C   UNL     1      45.130   5.161  13.014  0.00  0.00    +0.000 A 
ATOM      5  C   UNL     1      44.914   5.634  11.712  0.00  0.00    +0.000 A 
ATOM      6  C   UNL     1      45.891   6.442  11.119  0.00  0.00    +0.000 A 
ATOM      7  C   UNL     1      47.066   6.753  11.808  0.00  0.00    +0.000 A 
BRANCH   5   8
ATOM      8  C   UNL     1      43.644   5.309  10.968  0.00  0.00    +0.000 C 
BRANCH   8   9
ATOM      9  N   UNL     1      43.917   4.534   9.779  0.00  0.00    +0.000 N 
ATOM     10  C   UNL     1      44.167   3.179   9.848  0.00  0.00    +0.000 C 
ATOM     11  O   UNL     1      44.097   2.540  10.893  0.00  0.00    +0.000 OA
ATOM     12  H   UNL     1      43.987   5.027   8.900  0.00  0.00    +0.000 HD
BRANCH  10  13
ATOM     13  C   UNL     1      44.501   2.550   8.500  0.00  0.00    +0.000 C 
ATOM     14  C   UNL     1      45.886   1.945   8.429  0.00  0.00    +0.000 C 
ATOM     15  C   UNL     1      46.748   3.118   8.012  0.00  0.00    +0.000 C 
ATOM     16  O   UNL     1      45.924   3.964   7.201  0.00  0.00    +0.000 OA
ATOM     17  C   UNL     1      44.551   3.603   7.408  0.00  0.00    +0.000 C 
ENDBRANCH  10  13
ENDBRANCH   8   9
ENDBRANCH   5   8
ENDBRANCH   1   2
BRANCH   1  18
ATOM     18  N   UNL     1      48.294   6.657  15.284  0.00  0.00    +0.000 N 
ATOM     19  C   UNL     1      49.244   6.447  16.250  0.00  0.00    +0.000 C 
ATOM     20  O   UNL     1      50.440   6.338  15.991  0.00  0.00    +0.000 OA
ATOM     21  H   UNL     1      47.350   6.366  15.519  0.00  0.00    +0.000 HD
BRANCH  19  22
ATOM     22  C   UNL     1      48.756   6.492  17.633  0.00  0.00    +0.000 A 
ATOM     23  C   UNL     1      48.796   5.349  18.420  0.00  0.00    +0.000 A 
ATOM     24  S   UNL     1      48.278   5.608  20.024  0.00  0.00    +0.000 S 
ATOM     25  C   UNL     1      47.932   7.243  19.709  0.00  0.00    +0.000 A 
ATOM     26  N   UNL     1      47.430   8.054  20.676  0.00  0.00    +0.000 NA
ATOM     27  C   UNL     1      47.187   9.263  20.289  0.00  0.00    +0.000 A 
ATOM     28  N   UNL     1      47.404   9.735  19.019  0.00  0.00    +0.000 N 
ATOM     29  C   UNL     1      47.936   8.957  18.016  0.00  0.00    +0.000 A 
ATOM     30  O   UNL     1      48.162   9.415  16.901  0.00  0.00    +0.000 OA
ATOM     31  C   UNL     1      48.219   7.589  18.401  0.00  0.00    +0.000 A 
ATOM     32  H   UNL     1      47.196  10.692  18.782  0.00  0.00    +0.000 HD
ENDBRANCH  19  22
ENDBRANCH   1  18
BRANCH   1  33
ATOM     33  N   UNL     1      48.998   7.980  13.524  0.00  0.00    +0.000 NA
ATOM     34  H   UNL     1      49.965   8.056  13.849  0.00  0.00    +0.000 HD
ATOM     35  H   UNL     1      48.478   8.640  14.094  0.00  0.00    +0.000 HD
ENDBRANCH   1  33
TORSDOF 7
ENDMDL
MODEL 9
REMARK VINA RESULT:    -6.791      1.849      2.195
REMARK INTER + INTRA:         -10.577
REMARK INTER:                  -9.118
REMARK INTRA:                  -1.459
REMARK UNBOUND:                -1.206
REMARK  Name = 
REMARK  7 active torsions:
REMARK  status: ('A' for Active; 'I' for Inactive)
REMARK    1  A    between atoms: N_1  and  C_2
REMARK    2  A    between atoms: C_2  and  N_3
REMARK    3  A    between atoms: C_2  and  C_16
REMARK    4  A    between atoms: C_4  and  C_6
REMARK    5  A    between atoms: C_19  and  C_20
REMARK    6  A    between atoms: C_20  and  N_21
REMARK    7  A    between atoms: C_22  and  C_24
REMARK                            x       y       z     vdW  Elec       q    Type
REMARK                         _______ _______ _______ _____ _____    ______ ____
ROOT
ATOM      1  C   UNL     1      49.020   6.888  13.487  0.00  0.00    +0.000 C 
ENDROOT
BRANCH   1   2
ATOM      2  C   UNL     1      47.694   6.451  12.886  0.00  0.00    +0.000 A 
ATOM      3  C   UNL     1      46.891   5.500  13.531  0.00  0.00    +0.000 A 
ATOM      4  C   UNL     1      45.654   5.120  12.991  0.00  0.00    +0.000 A 
ATOM      5  C   UNL     1      45.198   5.671  11.786  0.00  0.00    +0.000 A 
ATOM      6  C   UNL     1      45.993   6.624  11.139  0.00  0.00    +0.000 A 
ATOM      7  C   UNL     1      47.226   7.002  11.678  0.00  0.00    +0.000 A 
BRANCH   5   8
ATOM      8  C   UNL     1      43.865   5.275  11.205  0.00  0.00    +0.000 C 
BRANCH   8   9
ATOM      9  N   UNL     1      44.029   4.525   9.980  0.00  0.00    +0.000 N 
ATOM     10  C   UNL     1      44.220   3.160   9.995  0.00  0.00    +0.000 C 
ATOM     11  O   UNL     1      44.183   2.491  11.023  0.00  0.00    +0.000 OA
ATOM     12  H   UNL     1      44.069   5.042   9.113  0.00  0.00    +0.000 HD
BRANCH  10  13
ATOM     13  C   UNL     1      44.441   2.558   8.611  0.00  0.00    +0.000 C 
ATOM     14  C   UNL     1      45.780   1.871   8.445  0.00  0.00    +0.000 C 
ATOM     15  C   UNL     1      46.692   3.001   8.020  0.00  0.00    +0.000 C 
ATOM     16  O   UNL     1      45.883   3.926   7.282  0.00  0.00    +0.000 OA
ATOM     17  C   UNL     1      44.502   3.644   7.552  0.00  0.00    +0.000 C 
ENDBRANCH  10  13
ENDBRANCH   8   9
ENDBRANCH   5   8
ENDBRANCH   1   2
BRANCH   1  18
ATOM     18  N   UNL     1      48.927   6.896  14.918  0.00  0.00    +0.000 N 
ATOM     19  C   UNL     1      49.992   7.083  15.761  0.00  0.00    +0.000 C 
ATOM     20  O   UNL     1      51.115   7.372  15.356  0.00  0.00    +0.000 OA
ATOM     21  H   UNL     1      48.174   6.317  15.276  0.00  0.00    +0.000 HD
BRANCH  19  22
ATOM     22  C   UNL     1      49.675   7.047  17.193  0.00  0.00    +0.000 A 
ATOM     23  C   UNL     1      49.623   8.228  17.922  0.00  0.00    +0.000 A 
ATOM     24  S   UNL     1      49.148   8.006  19.545  0.00  0.00    +0.000 S 
ATOM     25  C   UNL     1      49.049   6.320  19.345  0.00  0.00    +0.000 A 
ATOM     26  N   UNL     1      48.700   5.510  20.379  0.00  0.00    +0.000 NA
ATOM     27  C   UNL     1      48.694   4.249  20.092  0.00  0.00    +0.000 A 
ATOM     28  N   UNL     1      49.003   3.726  18.862  0.00  0.00    +0.000 N 
ATOM     29  C   UNL     1      49.333   4.510  17.781  0.00  0.00    +0.000 A 
ATOM     30  O   UNL     1      49.562   4.021  16.679  0.00  0.00    +0.000 OA
ATOM     31  C   UNL     1      49.362   5.933  18.055  0.00  0.00    +0.000 A 
ATOM     32  H   UNL     1      48.975   2.731  18.703  0.00  0.00    +0.000 HD
ENDBRANCH  19  22
ENDBRANCH   1  18
BRANCH   1  33
ATOM     33  N   UNL     1      49.346   8.238  13.083  0.00  0.00    +0.000 NA
ATOM     34  H   UNL     1      48.453   8.708  12.913  0.00  0.00    +0.000 HD
ATOM     35  H   UNL     1      49.795   8.193  12.174  0.00  0.00    +0.000 HD
ENDBRANCH   1  33
TORSDOF 7
ENDMDL
