MODEL 1
REMARK VINA RESULT:    -8.957      0.000      0.000
REMARK INTER + INTRA:         -12.810
REMARK INTER:                 -12.099
REMARK INTRA:                  -0.711
REMARK UNBOUND:                -0.711
REMARK  Name = 
REMARK  7 active torsions:
REMARK  status: ('A' for Active; 'I' for Inactive)
REMARK    1  A    between atoms: C_1  and  O_2
REMARK    2  A    between atoms: O_2  and  C_3
REMARK    3  A    between atoms: C_7  and  C_8
REMARK    4  A    between atoms: C_10  and  C_11
REMARK    5  A    between atoms: C_11  and  O_12
REMARK    6  A    between atoms: O_12  and  C_13
REMARK    7  A    between atoms: C_16  and  C_17
REMARK                            x       y       z     vdW  Elec       q    Type
REMARK                         _______ _______ _______ _____ _____    ______ ____
ROOT
ATOM      1  C   UNL     1      46.249   6.088  12.490  0.00  0.00    +0.000 A 
ATOM      2  C   UNL     1      45.220   5.357  11.896  0.00  0.00    +0.000 A 
ATOM      3  C   UNL     1      45.064   4.000  12.205  0.00  0.00    +0.000 A 
ATOM      4  C   UNL     1      45.976   3.408  13.077  0.00  0.00    +0.000 A 
ATOM      5  C   UNL     1      46.980   4.195  13.612  0.00  0.00    +0.000 A 
ATOM      6  N   UNL     1      47.134   5.507  13.340  0.00  0.00    +0.000 NA
ENDROOT
BRANCH   1  11
ATOM      7  C   UNL     1      45.463   9.797  12.171  0.00  0.00    +0.000 A 
ATOM      8  C   UNL     1      46.742  10.338  12.066  0.00  0.00    +0.000 A 
ATOM      9  C   UNL     1      47.855   9.497  12.062  0.00  0.00    +0.000 A 
ATOM     10  C   UNL     1      47.691   8.114  12.176  0.00  0.00    +0.000 A 
ATOM     11  C   UNL     1      46.414   7.540  12.290  0.00  0.00    +0.000 A 
ATOM     12  C   UNL     1      45.308   8.411  12.265  0.00  0.00    +0.000 A 
BRANCH   7  14
ATOM     13  C   UNL     1      43.601  10.653  10.972  0.00  0.00    +0.000 C 
ATOM     14  O   UNL     1      44.290  10.500  12.206  0.00  0.00    +0.000 OA
ENDBRANCH   7  14
ENDBRANCH   1  11
BRANCH   3  15
ATOM     15  C   UNL     1      43.939   3.209  11.595  0.00  0.00    +0.000 C 
BRANCH  15  16
ATOM     16  O   UNL     1      43.702   3.695  10.277  0.00  0.00    +0.000 OA
BRANCH  16  17
ATOM     17  C   UNL     1      44.663   3.428   9.340  0.00  0.00    +0.000 A 
ATOM     18  C   UNL     1      45.333   4.375   8.565  0.00  0.00    +0.000 A 
ATOM     19  C   UNL     1      46.293   3.968   7.630  0.00  0.00    +0.000 A 
ATOM     20  C   UNL     1      46.593   2.610   7.459  0.00  0.00    +0.000 A 
ATOM     21  C   UNL     1      45.922   1.673   8.246  0.00  0.00    +0.000 A 
ATOM     22  F   UNL     1      46.174   0.361   8.130  0.00  0.00    +0.000 F 
ATOM     23  C   UNL     1      44.964   2.075   9.177  0.00  0.00    +0.000 A 
BRANCH  20  24
ATOM     24  C   UNL     1      47.606   2.237   6.437  0.00  0.00    +0.000 C 
ATOM     25  N   UNL     1      47.658   2.960   5.283  0.00  0.00    +0.000 N 
ATOM     26  O   UNL     1      48.383   1.306   6.624  0.00  0.00    +0.000 OA
ATOM     27  H   UNL     1      47.042   3.739   5.088  0.00  0.00    +0.000 HD
ATOM     28  H   UNL     1      48.359   2.710   4.597  0.00  0.00    +0.000 HD
ENDBRANCH  20  24
ENDBRANCH  16  17
ENDBRANCH  15  16
ENDBRANCH   3  15
TORSDOF 6
ENDMDL
MODEL 2
REMARK VINA RESULT:    -8.818      1.878      2.672
REMARK INTER + INTRA:         -12.622
REMARK INTER:                 -11.817
REMARK INTRA:                  -0.805
REMARK UNBOUND:                -0.711
REMARK  Name = 
REMARK  7 active torsions:
REMARK  status: ('A' for Active; 'I' for Inactive)
REMARK    1  A    between atoms: C_1  and  O_2
REMARK    2  A    between atoms: O_2  and  C_3
REMARK    3  A    between atoms: C_7  and  C_8
REMARK    4  A    between atoms: C_10  and  C_11
REMARK    5  A    between atoms: C_11  and  O_12
REMARK    6  A    between atoms: O_12  and  C_13
REMARK    7  A    between atoms: C_16  and  C_17
REMARK                            x       y       z     vdW  Elec       q    Type
REMARK                         _______ _______ _______ _____ _____    ______ ____
ROOT
ATOM      1  C   UNL     1      46.746   6.391  12.348  0.00  0.00    +0.000 A 
ATOM      2  C   UNL     1      45.674   6.167  11.484  0.00  0.00    +0.000 A 
ATOM      3  C   UNL     1      44.789   5.112  11.734  0.00  0.00    +0.000 A 
ATOM      4  C   UNL     1      45.032   4.286  12.830  0.00  0.00    +0.000 A 
ATOM      5  C   UNL     1      46.126   4.561  13.631  0.00  0.00    +0.000 A 
ATOM      6  N   UNL     1      46.979   5.584  13.414  0.00  0.00    +0.000 NA
ENDROOT
BRANCH   1  11
ATOM      7  C   UNL     1      49.923   8.439  11.914  0.00  0.00    +0.000 A 
ATOM      8  C   UNL     1      49.402   9.722  11.767  0.00  0.00    +0.000 A 
ATOM      9  C   UNL     1      48.024   9.926  11.847  0.00  0.00    +0.000 A 
ATOM     10  C   UNL     1      47.164   8.845  12.059  0.00  0.00    +0.000 A 
ATOM     11  C   UNL     1      47.661   7.539  12.204  0.00  0.00    +0.000 A 
ATOM     12  C   UNL     1      49.056   7.367  12.146  0.00  0.00    +0.000 A 
BRANCH   7  14
ATOM     13  C   UNL     1      51.731   7.705  10.562  0.00  0.00    +0.000 C 
ATOM     14  O   UNL     1      51.244   8.092  11.841  0.00  0.00    +0.000 OA
ENDBRANCH   7  14
ENDBRANCH   1  11
BRANCH   3  15
ATOM     15  C   UNL     1      43.611   4.880  10.827  0.00  0.00    +0.000 C 
BRANCH  15  16
ATOM     16  O   UNL     1      43.690   3.556  10.306  0.00  0.00    +0.000 OA
BRANCH  16  17
ATOM     17  C   UNL     1      44.626   3.333   9.333  0.00  0.00    +0.000 A 
ATOM     18  C   UNL     1      45.175   4.301   8.491  0.00  0.00    +0.000 A 
ATOM     19  C   UNL     1      46.121   3.939   7.525  0.00  0.00    +0.000 A 
ATOM     20  C   UNL     1      46.530   2.605   7.389  0.00  0.00    +0.000 A 
ATOM     21  C   UNL     1      45.980   1.648   8.242  0.00  0.00    +0.000 A 
ATOM     22  F   UNL     1      46.339   0.358   8.162  0.00  0.00    +0.000 F 
ATOM     23  C   UNL     1      45.035   2.005   9.205  0.00  0.00    +0.000 A 
BRANCH  20  24
ATOM     24  C   UNL     1      47.522   2.278   6.331  0.00  0.00    +0.000 C 
ATOM     25  N   UNL     1      47.493   2.994   5.172  0.00  0.00    +0.000 N 
ATOM     26  O   UNL     1      48.353   1.391   6.494  0.00  0.00    +0.000 OA
ATOM     27  H   UNL     1      46.830   3.738   4.996  0.00  0.00    +0.000 HD
ATOM     28  H   UNL     1      48.180   2.776   4.462  0.00  0.00    +0.000 HD
ENDBRANCH  20  24
ENDBRANCH  16  17
ENDBRANCH  15  16
ENDBRANCH   3  15
TORSDOF 6
ENDMDL
MODEL 3
REMARK VINA RESULT:    -8.787      2.125      3.072
REMARK INTER + INTRA:         -12.580
REMARK INTER:                 -11.768
REMARK INTRA:                  -0.811
REMARK UNBOUND:                -0.711
REMARK  Name = 
REMARK  7 active torsions:
REMARK  status: ('A' for Active; 'I' for Inactive)
REMARK    1  A    between atoms: C_1  and  O_2
REMARK    2  A    between atoms: O_2  and  C_3
REMARK    3  A    between atoms: C_7  and  C_8
REMARK    4  A    between atoms: C_10  and  C_11
REMARK    5  A    between atoms: C_11  and  O_12
REMARK    6  A    between atoms: O_12  and  C_13
REMARK    7  A    between atoms: C_16  and  C_17
REMARK                            x       y       z     vdW  Elec       q    Type
REMARK                         _______ _______ _______ _____ _____    ______ ____
ROOT
ATOM      1  C   UNL     1      46.014   6.556  12.220  0.00  0.00    +0.000 A 
ATOM      2  C   UNL     1      45.656   5.209  12.164  0.00  0.00    +0.000 A 
ATOM      3  C   UNL     1      44.379   4.848  11.720  0.00  0.00    +0.000 A 
ATOM      4  C   UNL     1      43.483   5.860  11.380  0.00  0.00    +0.000 A 
ATOM      5  C   UNL     1      43.905   7.173  11.478  0.00  0.00    +0.000 A 
ATOM      6  N   UNL     1      45.139   7.538  11.887  0.00  0.00    +0.000 NA
ENDROOT
BRANCH   1  11
ATOM      7  C   UNL     1      49.277   7.002  14.125  0.00  0.00    +0.000 A 
ATOM      8  C   UNL     1      50.030   7.733  13.209  0.00  0.00    +0.000 A 
ATOM      9  C   UNL     1      49.465   8.114  11.991  0.00  0.00    +0.000 A 
ATOM     10  C   UNL     1      48.152   7.750  11.682  0.00  0.00    +0.000 A 
ATOM     11  C   UNL     1      47.372   7.006  12.582  0.00  0.00    +0.000 A 
ATOM     12  C   UNL     1      47.958   6.660  13.814  0.00  0.00    +0.000 A 
BRANCH   7  14
ATOM     13  C   UNL     1      48.714   6.013  16.208  0.00  0.00    +0.000 C 
ATOM     14  O   UNL     1      49.706   6.549  15.342  0.00  0.00    +0.000 OA
ENDBRANCH   7  14
ENDBRANCH   1  11
BRANCH   3  15
ATOM     15  C   UNL     1      43.991   3.397  11.626  0.00  0.00    +0.000 C 
BRANCH  15  16
ATOM     16  O   UNL     1      43.546   3.129  10.299  0.00  0.00    +0.000 OA
BRANCH  16  17
ATOM     17  C   UNL     1      44.513   3.009   9.339  0.00  0.00    +0.000 A 
ATOM     18  C   UNL     1      45.001   4.042   8.537  0.00  0.00    +0.000 A 
ATOM     19  C   UNL     1      45.989   3.784   7.579  0.00  0.00    +0.000 A 
ATOM     20  C   UNL     1      46.502   2.491   7.412  0.00  0.00    +0.000 A 
ATOM     21  C   UNL     1      46.013   1.468   8.225  0.00  0.00    +0.000 A 
ATOM     22  F   UNL     1      46.471   0.212   8.113  0.00  0.00    +0.000 F 
ATOM     23  C   UNL     1      45.026   1.721   9.179  0.00  0.00    +0.000 A 
BRANCH  20  24
ATOM     24  C   UNL     1      47.535   2.274   6.365  0.00  0.00    +0.000 C 
ATOM     25  N   UNL     1      47.498   3.052   5.247  0.00  0.00    +0.000 N 
ATOM     26  O   UNL     1      48.406   1.421   6.500  0.00  0.00    +0.000 OA
ATOM     27  H   UNL     1      46.802   3.772   5.095  0.00  0.00    +0.000 HD
ATOM     28  H   UNL     1      48.212   2.910   4.545  0.00  0.00    +0.000 HD
ENDBRANCH  20  24
ENDBRANCH  16  17
ENDBRANCH  15  16
ENDBRANCH   3  15
TORSDOF 6
ENDMDL
MODEL 4
REMARK VINA RESULT:    -8.279      2.665      4.399
REMARK INTER + INTRA:         -11.894
REMARK INTER:                 -11.256
REMARK INTRA:                  -0.638
REMARK UNBOUND:                -0.711
REMARK  Name = 
REMARK  7 active torsions:
REMARK  status: ('A' for Active; 'I' for Inactive)
REMARK    1  A    between atoms: C_1  and  O_2
REMARK    2  A    between atoms: O_2  and  C_3
REMARK    3  A    between atoms: C_7  and  C_8
REMARK    4  A    between atoms: C_10  and  C_11
REMARK    5  A    between atoms: C_11  and  O_12
REMARK    6  A    between atoms: O_12  and  C_13
REMARK    7  A    between atoms: C_16  and  C_17
REMARK                            x       y       z     vdW  Elec       q    Type
REMARK                         _______ _______ _______ _____ _____    ______ ____
ROOT
ATOM      1  C   UNL     1      46.597   5.117  13.988  0.00  0.00    +0.000 A 
ATOM      2  C   UNL     1      45.669   4.269  13.384  0.00  0.00    +0.000 A 
ATOM      3  C   UNL     1      44.962   4.703  12.256  0.00  0.00    +0.000 A 
ATOM      4  C   UNL     1      45.184   5.997  11.791  0.00  0.00    +0.000 A 
ATOM      5  C   UNL     1      46.108   6.785  12.453  0.00  0.00    +0.000 A 
ATOM      6  N   UNL     1      46.811   6.376  13.530  0.00  0.00    +0.000 NA
ENDROOT
BRANCH   1  11
ATOM      7  C   UNL     1      48.907   5.245  17.009  0.00  0.00    +0.000 A 
ATOM      8  C   UNL     1      48.950   3.902  17.376  0.00  0.00    +0.000 A 
ATOM      9  C   UNL     1      48.261   2.952  16.620  0.00  0.00    +0.000 A 
ATOM     10  C   UNL     1      47.516   3.347  15.505  0.00  0.00    +0.000 A 
ATOM     11  C   UNL     1      47.448   4.694  15.116  0.00  0.00    +0.000 A 
ATOM     12  C   UNL     1      48.174   5.626  15.880  0.00  0.00    +0.000 A 
BRANCH   7  14
ATOM     13  C   UNL     1      49.960   6.021  18.990  0.00  0.00    +0.000 C 
ATOM     14  O   UNL     1      49.515   6.280  17.664  0.00  0.00    +0.000 OA
ENDBRANCH   7  14
ENDBRANCH   1  11
BRANCH   3  15
ATOM     15  C   UNL     1      43.981   3.786  11.578  0.00  0.00    +0.000 C 
BRANCH  15  16
ATOM     16  O   UNL     1      43.813   4.214  10.229  0.00  0.00    +0.000 OA
BRANCH  16  17
ATOM     17  C   UNL     1      44.745   3.781   9.326  0.00  0.00    +0.000 A 
ATOM     18  C   UNL     1      45.511   4.593   8.488  0.00  0.00    +0.000 A 
ATOM     19  C   UNL     1      46.427   4.020   7.598  0.00  0.00    +0.000 A 
ATOM     20  C   UNL     1      46.588   2.630   7.533  0.00  0.00    +0.000 A 
ATOM     21  C   UNL     1      45.823   1.829   8.381  0.00  0.00    +0.000 A 
ATOM     22  F   UNL     1      45.939   0.492   8.368  0.00  0.00    +0.000 F 
ATOM     23  C   UNL     1      44.907   2.396   9.269  0.00  0.00    +0.000 A 
BRANCH  20  24
ATOM     24  C   UNL     1      47.561   2.079   6.553  0.00  0.00    +0.000 C 
ATOM     25  N   UNL     1      47.915   2.851   5.488  0.00  0.00    +0.000 N 
ATOM     26  O   UNL     1      48.040   0.959   6.696  0.00  0.00    +0.000 OA
ATOM     27  H   UNL     1      47.550   3.783   5.332  0.00  0.00    +0.000 HD
ATOM     28  H   UNL     1      48.589   2.477   4.832  0.00  0.00    +0.000 HD
ENDBRANCH  20  24
ENDBRANCH  16  17
ENDBRANCH  15  16
ENDBRANCH   3  15
TORSDOF 6
ENDMDL
MODEL 5
REMARK VINA RESULT:    -8.273      2.463      3.424
REMARK INTER + INTRA:         -11.887
REMARK INTER:                 -11.237
REMARK INTRA:                  -0.650
REMARK UNBOUND:                -0.711
REMARK  Name = 
REMARK  7 active torsions:
REMARK  status: ('A' for Active; 'I' for Inactive)
REMARK    1  A    between atoms: C_1  and  O_2
REMARK    2  A    between atoms: O_2  and  C_3
REMARK    3  A    between atoms: C_7  and  C_8
REMARK    4  A    between atoms: C_10  and  C_11
REMARK    5  A    between atoms: C_11  and  O_12
REMARK    6  A    between atoms: O_12  and  C_13
REMARK    7  A    between atoms: C_16  and  C_17
REMARK                            x       y       z     vdW  Elec       q    Type
REMARK                         _______ _______ _______ _____ _____    ______ ____
ROOT
ATOM      1  C   UNL     1      47.421   6.146  12.650  0.00  0.00    +0.000 A 
ATOM      2  C   UNL     1      46.410   6.279  11.698  0.00  0.00    +0.000 A 
ATOM      3  C   UNL     1      45.288   5.443  11.755  0.00  0.00    +0.000 A 
ATOM      4  C   UNL     1      45.234   4.470  12.750  0.00  0.00    +0.000 A 
ATOM      5  C   UNL     1      46.284   4.388  13.648  0.00  0.00    +0.000 A 
ATOM      6  N   UNL     1      47.364   5.197  13.618  0.00  0.00    +0.000 NA
ENDROOT
BRANCH   1  11
ATOM      7  C   UNL     1      50.413   8.089  13.973  0.00  0.00    +0.000 A 
ATOM      8  C   UNL     1      50.904   8.663  12.803  0.00  0.00    +0.000 A 
ATOM      9  C   UNL     1      50.241   8.450  11.593  0.00  0.00    +0.000 A 
ATOM     10  C   UNL     1      49.096   7.651  11.550  0.00  0.00    +0.000 A 
ATOM     11  C   UNL     1      48.583   7.053  12.712  0.00  0.00    +0.000 A 
ATOM     12  C   UNL     1      49.255   7.307  13.923  0.00  0.00    +0.000 A 
BRANCH   7  14
ATOM     13  C   UNL     1      51.275   6.980  15.887  0.00  0.00    +0.000 C 
ATOM     14  O   UNL     1      50.967   8.197  15.219  0.00  0.00    +0.000 OA
ENDBRANCH   7  14
ENDBRANCH   1  11
BRANCH   3  15
ATOM     15  C   UNL     1      44.177   5.598  10.752  0.00  0.00    +0.000 C 
BRANCH  15  16
ATOM     16  O   UNL     1      43.741   4.302  10.350  0.00  0.00    +0.000 OA
BRANCH  16  17
ATOM     17  C   UNL     1      44.582   3.596   9.534  0.00  0.00    +0.000 A 
ATOM     18  C   UNL     1      44.807   2.219   9.586  0.00  0.00    +0.000 A 
ATOM     19  C   UNL     1      45.705   1.619   8.696  0.00  0.00    +0.000 A 
ATOM     20  C   UNL     1      46.390   2.386   7.744  0.00  0.00    +0.000 A 
ATOM     21  C   UNL     1      46.151   3.760   7.697  0.00  0.00    +0.000 A 
ATOM     22  F   UNL     1      46.773   4.543   6.803  0.00  0.00    +0.000 F 
ATOM     23  C   UNL     1      45.258   4.362   8.584  0.00  0.00    +0.000 A 
BRANCH  20  24
ATOM     24  C   UNL     1      47.347   1.695   6.840  0.00  0.00    +0.000 C 
ATOM     25  N   UNL     1      48.477   2.356   6.466  0.00  0.00    +0.000 N 
ATOM     26  O   UNL     1      47.132   0.554   6.442  0.00  0.00    +0.000 OA
ATOM     27  H   UNL     1      48.698   3.295   6.774  0.00  0.00    +0.000 HD
ATOM     28  H   UNL     1      49.132   1.875   5.863  0.00  0.00    +0.000 HD
ENDBRANCH  20  24
ENDBRANCH  16  17
ENDBRANCH  15  16
ENDBRANCH   3  15
TORSDOF 6
ENDMDL
MODEL 6
REMARK VINA RESULT:    -7.602      3.168      7.424
REMARK INTER + INTRA:         -10.980
REMARK INTER:                  -9.852
REMARK INTRA:                  -1.128
REMARK UNBOUND:                -0.711
REMARK  Name = 
REMARK  7 active torsions:
REMARK  status: ('A' for Active; 'I' for Inactive)
REMARK    1  A    between atoms: C_1  and  O_2
REMARK    2  A    between atoms: O_2  and  C_3
REMARK    3  A    between atoms: C_7  and  C_8
REMARK    4  A    between atoms: C_10  and  C_11
REMARK    5  A    between atoms: C_11  and  O_12
REMARK    6  A    between atoms: O_12  and  C_13
REMARK    7  A    between atoms: C_16  and  C_17
REMARK                            x       y       z     vdW  Elec       q    Type
REMARK                         _______ _______ _______ _____ _____    ______ ____
ROOT
ATOM      1  C   UNL     1      44.768   3.510   9.687  0.00  0.00    +0.000 A 
ATOM      2  C   UNL     1      44.801   4.842  10.102  0.00  0.00    +0.000 A 
ATOM      3  C   UNL     1      44.063   5.239  11.223  0.00  0.00    +0.000 A 
ATOM      4  C   UNL     1      43.279   4.288  11.874  0.00  0.00    +0.000 A 
ATOM      5  C   UNL     1      43.284   2.991  11.392  0.00  0.00    +0.000 A 
ATOM      6  N   UNL     1      44.003   2.587  10.324  0.00  0.00    +0.000 NA
ENDROOT
BRANCH   1  11
ATOM      7  C   UNL     1      46.805   1.164   7.491  0.00  0.00    +0.000 A 
ATOM      8  C   UNL     1      47.042   1.969   6.379  0.00  0.00    +0.000 A 
ATOM      9  C   UNL     1      46.573   3.283   6.360  0.00  0.00    +0.000 A 
ATOM     10  C   UNL     1      45.854   3.789   7.446  0.00  0.00    +0.000 A 
ATOM     11  C   UNL     1      45.594   2.999   8.577  0.00  0.00    +0.000 A 
ATOM     12  C   UNL     1      46.102   1.686   8.581  0.00  0.00    +0.000 A 
BRANCH   7  14
ATOM     13  C   UNL     1      46.400  -1.116   6.968  0.00  0.00    +0.000 C 
ATOM     14  O   UNL     1      47.188  -0.141   7.639  0.00  0.00    +0.000 OA
ENDBRANCH   7  14
ENDBRANCH   1  11
BRANCH   3  15
ATOM     15  C   UNL     1      44.116   6.665  11.699  0.00  0.00    +0.000 C 
BRANCH  15  16
ATOM     16  O   UNL     1      44.900   6.721  12.888  0.00  0.00    +0.000 OA
BRANCH  16  17
ATOM     17  C   UNL     1      46.239   6.954  12.731  0.00  0.00    +0.000 A 
ATOM     18  C   UNL     1      47.268   6.085  13.096  0.00  0.00    +0.000 A 
ATOM     19  C   UNL     1      48.604   6.450  12.890  0.00  0.00    +0.000 A 
ATOM     20  C   UNL     1      48.927   7.688  12.318  0.00  0.00    +0.000 A 
ATOM     21  C   UNL     1      47.889   8.545  11.950  0.00  0.00    +0.000 A 
ATOM     22  F   UNL     1      48.139   9.739  11.393  0.00  0.00    +0.000 F 
ATOM     23  C   UNL     1      46.557   8.185  12.156  0.00  0.00    +0.000 A 
BRANCH  20  24
ATOM     24  C   UNL     1      50.364   8.029  12.144  0.00  0.00    +0.000 C 
ATOM     25  N   UNL     1      51.067   7.391  11.167  0.00  0.00    +0.000 N 
ATOM     26  O   UNL     1      50.907   8.867  12.856  0.00  0.00    +0.000 OA
ATOM     27  H   UNL     1      50.659   6.697  10.553  0.00  0.00    +0.000 HD
ATOM     28  H   UNL     1      52.041   7.638  11.044  0.00  0.00    +0.000 HD
ENDBRANCH  20  24
ENDBRANCH  16  17
ENDBRANCH  15  16
ENDBRANCH   3  15
TORSDOF 6
ENDMDL
MODEL 7
REMARK VINA RESULT:    -7.227      4.530      8.501
REMARK INTER + INTRA:         -10.474
REMARK INTER:                  -9.564
REMARK INTRA:                  -0.910
REMARK UNBOUND:                -0.711
REMARK  Name = 
REMARK  7 active torsions:
REMARK  status: ('A' for Active; 'I' for Inactive)
REMARK    1  A    between atoms: C_1  and  O_2
REMARK    2  A    between atoms: O_2  and  C_3
REMARK    3  A    between atoms: C_7  and  C_8
REMARK    4  A    between atoms: C_10  and  C_11
REMARK    5  A    between atoms: C_11  and  O_12
REMARK    6  A    between atoms: O_12  and  C_13
REMARK    7  A    between atoms: C_16  and  C_17
REMARK                            x       y       z     vdW  Elec       q    Type
REMARK                         _______ _______ _______ _____ _____    ______ ____
ROOT
ATOM      1  C   UNL     1      45.750   6.403  11.593  0.00  0.00    +0.000 A 
ATOM      2  C   UNL     1      46.925   6.371  12.345  0.00  0.00    +0.000 A 
ATOM      3  C   UNL     1      47.246   7.449  13.178  0.00  0.00    +0.000 A 
ATOM      4  C   UNL     1      46.391   8.549  13.200  0.00  0.00    +0.000 A 
ATOM      5  C   UNL     1      45.254   8.515  12.413  0.00  0.00    +0.000 A 
ATOM      6  N   UNL     1      44.920   7.477  11.618  0.00  0.00    +0.000 NA
ENDROOT
BRANCH   1  11
ATOM      7  C   UNL     1      45.304   4.032   8.651  0.00  0.00    +0.000 A 
ATOM      8  C   UNL     1      44.567   3.006   9.238  0.00  0.00    +0.000 A 
ATOM      9  C   UNL     1      44.183   3.103  10.576  0.00  0.00    +0.000 A 
ATOM     10  C   UNL     1      44.549   4.219  11.333  0.00  0.00    +0.000 A 
ATOM     11  C   UNL     1      45.298   5.265  10.770  0.00  0.00    +0.000 A 
ATOM     12  C   UNL     1      45.648   5.154   9.412  0.00  0.00    +0.000 A 
BRANCH   7  14
ATOM     13  C   UNL     1      46.820   3.168   7.041  0.00  0.00    +0.000 C 
ATOM     14  O   UNL     1      45.761   4.062   7.362  0.00  0.00    +0.000 OA
ENDBRANCH   7  14
ENDBRANCH   1  11
BRANCH   3  15
ATOM     15  C   UNL     1      48.494   7.412  14.018  0.00  0.00    +0.000 C 
BRANCH  15  16
ATOM     16  O   UNL     1      48.663   6.092  14.527  0.00  0.00    +0.000 OA
BRANCH  16  17
ATOM     17  C   UNL     1      48.539   5.934  15.880  0.00  0.00    +0.000 A 
ATOM     18  C   UNL     1      48.964   6.842  16.851  0.00  0.00    +0.000 A 
ATOM     19  C   UNL     1      48.788   6.555  18.209  0.00  0.00    +0.000 A 
ATOM     20  C   UNL     1      48.184   5.357  18.614  0.00  0.00    +0.000 A 
ATOM     21  C   UNL     1      47.756   4.461  17.634  0.00  0.00    +0.000 A 
ATOM     22  F   UNL     1      47.166   3.302  17.964  0.00  0.00    +0.000 F 
ATOM     23  C   UNL     1      47.932   4.743  16.279  0.00  0.00    +0.000 A 
BRANCH  20  24
ATOM     24  C   UNL     1      48.043   5.098  20.071  0.00  0.00    +0.000 C 
ATOM     25  N   UNL     1      47.037   5.722  20.746  0.00  0.00    +0.000 N 
ATOM     26  O   UNL     1      48.807   4.337  20.657  0.00  0.00    +0.000 OA
ATOM     27  H   UNL     1      46.380   6.353  20.303  0.00  0.00    +0.000 HD
ATOM     28  H   UNL     1      46.937   5.531  21.734  0.00  0.00    +0.000 HD
ENDBRANCH  20  24
ENDBRANCH  16  17
ENDBRANCH  15  16
ENDBRANCH   3  15
TORSDOF 6
ENDMDL
MODEL 8
REMARK VINA RESULT:    -7.007      3.938      8.022
REMARK INTER + INTRA:         -10.175
REMARK INTER:                  -9.379
REMARK INTRA:                  -0.796
REMARK UNBOUND:                -0.711
REMARK  Name = 
REMARK  7 active torsions:
REMARK  status: ('A' for Active; 'I' for Inactive)
REMARK    1  A    between atoms: C_1  and  O_2
REMARK    2  A    between atoms: O_2  and  C_3
REMARK    3  A    between atoms: C_7  and  C_8
REMARK    4  A    between atoms: C_10  and  C_11
REMARK    5  A    between atoms: C_11  and  O_12
REMARK    6  A    between atoms: O_12  and  C_13
REMARK    7  A    between atoms: C_16  and  C_17
REMARK                            x       y       z     vdW  Elec       q    Type
REMARK                         _______ _______ _______ _____ _____    ______ ____
ROOT
ATOM      1  C   UNL     1      45.002   5.047  10.679  0.00  0.00    +0.000 A 
ATOM      2  C   UNL     1      46.039   5.881  11.098  0.00  0.00    +0.000 A 
ATOM      3  C   UNL     1      45.841   6.746  12.181  0.00  0.00    +0.000 A 
ATOM      4  C   UNL     1      44.587   6.773  12.788  0.00  0.00    +0.000 A 
ATOM      5  C   UNL     1      43.603   5.929  12.304  0.00  0.00    +0.000 A 
ATOM      6  N   UNL     1      43.782   5.077  11.274  0.00  0.00    +0.000 NA
ENDROOT
BRANCH   1  11
ATOM      7  C   UNL     1      46.000   3.406   7.394  0.00  0.00    +0.000 A 
ATOM      8  C   UNL     1      45.631   2.083   7.628  0.00  0.00    +0.000 A 
ATOM      9  C   UNL     1      45.025   1.733   8.835  0.00  0.00    +0.000 A 
ATOM     10  C   UNL     1      44.800   2.703   9.816  0.00  0.00    +0.000 A 
ATOM     11  C   UNL     1      45.167   4.042   9.611  0.00  0.00    +0.000 A 
ATOM     12  C   UNL     1      45.752   4.372   8.374  0.00  0.00    +0.000 A 
BRANCH   7  14
ATOM     13  C   UNL     1      47.037   2.921   5.315  0.00  0.00    +0.000 C 
ATOM     14  O   UNL     1      46.615   3.885   6.271  0.00  0.00    +0.000 OA
ENDBRANCH   7  14
ENDBRANCH   1  11
BRANCH   3  15
ATOM     15  C   UNL     1      46.961   7.627  12.662  0.00  0.00    +0.000 C 
BRANCH  15  16
ATOM     16  O   UNL     1      48.067   6.803  13.023  0.00  0.00    +0.000 OA
BRANCH  16  17
ATOM     17  C   UNL     1      47.979   6.146  14.220  0.00  0.00    +0.000 A 
ATOM     18  C   UNL     1      47.293   4.952  14.449  0.00  0.00    +0.000 A 
ATOM     19  C   UNL     1      47.272   4.387  15.730  0.00  0.00    +0.000 A 
ATOM     20  C   UNL     1      47.935   5.007  16.796  0.00  0.00    +0.000 A 
ATOM     21  C   UNL     1      48.624   6.196  16.553  0.00  0.00    +0.000 A 
ATOM     22  F   UNL     1      49.282   6.831  17.536  0.00  0.00    +0.000 F 
ATOM     23  C   UNL     1      48.645   6.764  15.279  0.00  0.00    +0.000 A 
BRANCH  20  24
ATOM     24  C   UNL     1      47.859   4.371  18.138  0.00  0.00    +0.000 C 
ATOM     25  N   UNL     1      47.123   4.984  19.106  0.00  0.00    +0.000 N 
ATOM     26  O   UNL     1      48.438   3.315  18.372  0.00  0.00    +0.000 OA
ATOM     27  H   UNL     1      46.624   5.853  18.956  0.00  0.00    +0.000 HD
ATOM     28  H   UNL     1      47.064   4.539  20.012  0.00  0.00    +0.000 HD
ENDBRANCH  20  24
ENDBRANCH  16  17
ENDBRANCH  15  16
ENDBRANCH   3  15
TORSDOF 6
ENDMDL
MODEL 9
REMARK VINA RESULT:    -6.620      3.376      7.553
REMARK INTER + INTRA:          -9.653
REMARK INTER:                  -8.705
REMARK INTRA:                  -0.948
REMARK UNBOUND:                -0.711
REMARK  Name = 
REMARK  7 active torsions:
REMARK  status: ('A' for Active; 'I' for Inactive)
REMARK    1  A    between atoms: C_1  and  O_2
REMARK    2  A    between atoms: O_2  and  C_3
REMARK    3  A    between atoms: C_7  and  C_8
REMARK    4  A    between atoms: C_10  and  C_11
REMARK    5  A    between atoms: C_11  and  O_12
REMARK    6  A    between atoms: O_12  and  C_13
REMARK    7  A    between atoms: C_16  and  C_17
REMARK                            x       y       z     vdW  Elec       q    Type
REMARK                         _______ _______ _______ _____ _____    ______ ____
ROOT
ATOM      1  C   UNL     1      44.440   4.486  10.724  0.00  0.00    +0.000 A 
ATOM      2  C   UNL     1      45.025   5.719  11.014  0.00  0.00    +0.000 A 
ATOM      3  C   UNL     1      44.602   6.443  12.135  0.00  0.00    +0.000 A 
ATOM      4  C   UNL     1      43.571   5.920  12.913  0.00  0.00    +0.000 A 
ATOM      5  C   UNL     1      43.028   4.699  12.552  0.00  0.00    +0.000 A 
ATOM      6  N   UNL     1      43.436   3.981  11.485  0.00  0.00    +0.000 NA
ENDROOT
BRANCH   1  11
ATOM      7  C   UNL     1      46.055   3.343   7.475  0.00  0.00    +0.000 A 
ATOM      8  C   UNL     1      45.927   1.960   7.579  0.00  0.00    +0.000 A 
ATOM      9  C   UNL     1      45.282   1.402   8.684  0.00  0.00    +0.000 A 
ATOM     10  C   UNL     1      44.779   2.227   9.694  0.00  0.00    +0.000 A 
ATOM     11  C   UNL     1      44.900   3.624   9.620  0.00  0.00    +0.000 A 
ATOM     12  C   UNL     1      45.531   4.160   8.481  0.00  0.00    +0.000 A 
BRANCH   7  14
ATOM     13  C   UNL     1      47.106   3.249   5.348  0.00  0.00    +0.000 C 
ATOM     14  O   UNL     1      46.676   4.021   6.462  0.00  0.00    +0.000 OA
ENDBRANCH   7  14
ENDBRANCH   1  11
BRANCH   3  15
ATOM     15  C   UNL     1      45.247   7.759  12.475  0.00  0.00    +0.000 C 
BRANCH  15  16
ATOM     16  O   UNL     1      46.466   7.872  11.744  0.00  0.00    +0.000 OA
BRANCH  16  17
ATOM     17  C   UNL     1      47.620   7.919  12.477  0.00  0.00    +0.000 A 
ATOM     18  C   UNL     1      47.702   7.957  13.870  0.00  0.00    +0.000 A 
ATOM     19  C   UNL     1      48.951   8.014  14.500  0.00  0.00    +0.000 A 
ATOM     20  C   UNL     1      50.132   8.034  13.746  0.00  0.00    +0.000 A 
ATOM     21  C   UNL     1      50.037   7.986  12.355  0.00  0.00    +0.000 A 
ATOM     22  F   UNL     1      51.134   7.996  11.583  0.00  0.00    +0.000 F 
ATOM     23  C   UNL     1      48.794   7.932  11.724  0.00  0.00    +0.000 A 
BRANCH  20  24
ATOM     24  C   UNL     1      51.428   8.116  14.471  0.00  0.00    +0.000 C 
ATOM     25  N   UNL     1      51.753   7.112  15.333  0.00  0.00    +0.000 N 
ATOM     26  O   UNL     1      52.193   9.059  14.297  0.00  0.00    +0.000 OA
ATOM     27  H   UNL     1      51.156   6.312  15.503  0.00  0.00    +0.000 HD
ATOM     28  H   UNL     1      52.643   7.166  15.811  0.00  0.00    +0.000 HD
ENDBRANCH  20  24
ENDBRANCH  16  17
ENDBRANCH  15  16
ENDBRANCH   3  15
TORSDOF 6
ENDMDL
