MODEL 1
REMARK VINA RESULT:    -6.647      0.000      0.000
REMARK INTER + INTRA:         -10.920
REMARK INTER:                 -10.144
REMARK INTRA:                  -0.777
REMARK UNBOUND:                -0.777
REMARK  Name = 
REMARK  11 active torsions:
REMARK  status: ('A' for Active; 'I' for Inactive)
REMARK    1  A    between atoms: C_1  and  N_2
REMARK    2  A    between atoms: N_2  and  C_3
REMARK    3  A    between atoms: N_2  and  C_4
REMARK    4  A    between atoms: C_4  and  C_5
REMARK    5  A    between atoms: C_5  and  C_6
REMARK    6  A    between atoms: C_6  and  C_7
REMARK    7  A    between atoms: C_7  and  C_8
REMARK    8  A    between atoms: C_8  and  C_9
REMARK    9  A    between atoms: C_9  and  C_10
REMARK   10  A    between atoms: C_9  and  C_19
REMARK   11  A    between atoms: C_13  and  C_14
REMARK                            x       y       z     vdW  Elec       q    Type
REMARK                         _______ _______ _______ _____ _____    ______ ____
ROOT
ATOM      1  C   UNL     1      46.221   6.414  12.424  0.00  0.00    +0.000 C 
ENDROOT
BRANCH   1   2
ATOM      2  C   UNL     1      47.072   7.640  12.129  0.00  0.00    +0.000 A 
ATOM      3  C   UNL     1      48.371   7.517  11.679  0.00  0.00    +0.000 A 
ATOM      4  C   UNL     1      49.052   8.698  11.492  0.00  0.00    +0.000 A 
ATOM      5  N   UNL     1      48.523   9.912  11.732  0.00  0.00    +0.000 NA
ATOM      6  C   UNL     1      47.275   9.931  12.196  0.00  0.00    +0.000 A 
ATOM      7  N   UNL     1      46.700  11.148  12.494  0.00  0.00    +0.000 N 
ATOM      8  N   UNL     1      46.519   8.847  12.388  0.00  0.00    +0.000 NA
ATOM      9  H   UNL     1      47.144  11.891  11.974  0.00  0.00    +0.000 HD
ATOM     10  H   UNL     1      45.695  11.083  12.457  0.00  0.00    +0.000 HD
ENDBRANCH   1   2
BRANCH   1  11
ATOM     11  C   UNL     1      46.851   5.447  13.407  0.00  0.00    +0.000 A 
ATOM     12  C   UNL     1      46.683   4.077  13.314  0.00  0.00    +0.000 A 
ATOM     13  N   UNL     1      47.127   3.194  14.226  0.00  0.00    +0.000 NA
ATOM     14  C   UNL     1      47.767   3.732  15.290  0.00  0.00    +0.000 A 
ATOM     15  N   UNL     1      47.990   5.044  15.496  0.00  0.00    +0.000 NA
ATOM     16  C   UNL     1      47.521   5.872  14.543  0.00  0.00    +0.000 A 
BRANCH  14  17
ATOM     17  C   UNL     1      48.223   2.743  16.331  0.00  0.00    +0.000 C 
ATOM     18  N   UNL     1      47.585   2.824  17.545  0.00  0.00    +0.000 N 
ATOM     19  O   UNL     1      49.111   1.905  16.146  0.00  0.00    +0.000 OA
ATOM     20  H   UNL     1      46.867   3.530  17.686  0.00  0.00    +0.000 HD
ATOM     21  H   UNL     1      47.853   2.205  18.294  0.00  0.00    +0.000 HD
ENDBRANCH  14  17
ENDBRANCH   1  11
BRANCH   1  22
ATOM     22  C   UNL     1      45.887   5.698  11.092  0.00  0.00    +0.000 C 
BRANCH  22  23
ATOM     23  C   UNL     1      44.384   5.531  10.874  0.00  0.00    +0.000 C 
BRANCH  23  24
ATOM     24  C   UNL     1      44.035   4.125  10.408  0.00  0.00    +0.000 C 
BRANCH  24  25
ATOM     25  C   UNL     1      44.636   3.878   9.032  0.00  0.00    +0.000 C 
BRANCH  25  26
ATOM     26  C   UNL     1      45.192   2.457   8.889  0.00  0.00    +0.000 C 
BRANCH  26  28
ATOM     27  C   UNL     1      46.702   1.028   7.682  0.00  0.00    +0.000 C 
ATOM     28  N   UNL     1      46.402   2.414   8.048  0.00  0.00    +0.000 NA
ATOM     29  C   UNL     1      46.244   3.216   6.833  0.00  0.00    +0.000 C 
ENDBRANCH  26  28
ENDBRANCH  25  26
ENDBRANCH  24  25
ENDBRANCH  23  24
ENDBRANCH  22  23
ENDBRANCH   1  22
TORSDOF 9
ENDMDL
MODEL 2
REMARK VINA RESULT:    -6.529      1.208      2.057
REMARK INTER + INTRA:         -10.741
REMARK INTER:                  -9.762
REMARK INTRA:                  -0.979
REMARK UNBOUND:                -0.777
REMARK  Name = 
REMARK  11 active torsions:
REMARK  status: ('A' for Active; 'I' for Inactive)
REMARK    1  A    between atoms: C_1  and  N_2
REMARK    2  A    between atoms: N_2  and  C_3
REMARK    3  A    between atoms: N_2  and  C_4
REMARK    4  A    between atoms: C_4  and  C_5
REMARK    5  A    between atoms: C_5  and  C_6
REMARK    6  A    between atoms: C_6  and  C_7
REMARK    7  A    between atoms: C_7  and  C_8
REMARK    8  A    between atoms: C_8  and  C_9
REMARK    9  A    between atoms: C_9  and  C_10
REMARK   10  A    between atoms: C_9  and  C_19
REMARK   11  A    between atoms: C_13  and  C_14
REMARK                            x       y       z     vdW  Elec       q    Type
REMARK                         _______ _______ _______ _____ _____    ______ ____
ROOT
ATOM      1  C   UNL     1      46.583   6.611  12.751  0.00  0.00    +0.000 C 
ENDROOT
BRANCH   1   2
ATOM      2  C   UNL     1      47.693   7.596  12.413  0.00  0.00    +0.000 A 
ATOM      3  C   UNL     1      47.471   8.958  12.438  0.00  0.00    +0.000 A 
ATOM      4  C   UNL     1      48.539   9.744  12.068  0.00  0.00    +0.000 A 
ATOM      5  N   UNL     1      49.733   9.251  11.690  0.00  0.00    +0.000 NA
ATOM      6  C   UNL     1      49.843   7.924  11.664  0.00  0.00    +0.000 A 
ATOM      7  N   UNL     1      51.034   7.369  11.247  0.00  0.00    +0.000 N 
ATOM      8  N   UNL     1      48.880   7.074  12.027  0.00  0.00    +0.000 NA
ATOM      9  H   UNL     1      51.797   8.018  11.375  0.00  0.00    +0.000 HD
ATOM     10  H   UNL     1      51.141   6.439  11.621  0.00  0.00    +0.000 HD
ENDBRANCH   1   2
BRANCH   1  11
ATOM     11  C   UNL     1      46.977   5.566  13.776  0.00  0.00    +0.000 A 
ATOM     12  C   UNL     1      47.684   5.879  14.924  0.00  0.00    +0.000 A 
ATOM     13  N   UNL     1      48.151   4.971  15.799  0.00  0.00    +0.000 NA
ATOM     14  C   UNL     1      47.892   3.680  15.488  0.00  0.00    +0.000 A 
ATOM     15  N   UNL     1      47.220   3.248  14.404  0.00  0.00    +0.000 NA
ATOM     16  C   UNL     1      46.779   4.210  13.571  0.00  0.00    +0.000 A 
BRANCH  14  17
ATOM     17  C   UNL     1      48.457   2.664  16.447  0.00  0.00    +0.000 C 
ATOM     18  N   UNL     1      48.063   2.801  17.756  0.00  0.00    +0.000 N 
ATOM     19  O   UNL     1      49.231   1.759  16.119  0.00  0.00    +0.000 OA
ATOM     20  H   UNL     1      47.437   3.561  18.012  0.00  0.00    +0.000 HD
ATOM     21  H   UNL     1      48.418   2.167  18.455  0.00  0.00    +0.000 HD
ENDBRANCH  14  17
ENDBRANCH   1  11
BRANCH   1  22
ATOM     22  C   UNL     1      46.089   5.939  11.448  0.00  0.00    +0.000 C 
BRANCH  22  23
ATOM     23  C   UNL     1      44.589   6.123  11.222  0.00  0.00    +0.000 C 
BRANCH  23  24
ATOM     24  C   UNL     1      43.884   4.792  11.005  0.00  0.00    +0.000 C 
BRANCH  24  25
ATOM     25  C   UNL     1      44.770   3.873  10.177  0.00  0.00    +0.000 C 
BRANCH  25  26
ATOM     26  C   UNL     1      44.609   4.114   8.671  0.00  0.00    +0.000 C 
BRANCH  26  28
ATOM     27  C   UNL     1      46.503   3.633   7.272  0.00  0.00    +0.000 C 
ATOM     28  N   UNL     1      45.283   3.081   7.866  0.00  0.00    +0.000 NA
ATOM     29  C   UNL     1      45.622   1.904   8.670  0.00  0.00    +0.000 C 
ENDBRANCH  26  28
ENDBRANCH  25  26
ENDBRANCH  24  25
ENDBRANCH  23  24
ENDBRANCH  22  23
ENDBRANCH   1  22
TORSDOF 9
ENDMDL
MODEL 3
REMARK VINA RESULT:    -6.466      2.346      5.646
REMARK INTER + INTRA:         -10.645
REMARK INTER:                  -9.461
REMARK INTRA:                  -1.184
REMARK UNBOUND:                -0.777
REMARK  Name = 
REMARK  11 active torsions:
REMARK  status: ('A' for Active; 'I' for Inactive)
REMARK    1  A    between atoms: C_1  and  N_2
REMARK    2  A    between atoms: N_2  and  C_3
REMARK    3  A    between atoms: N_2  and  C_4
REMARK    4  A    between atoms: C_4  and  C_5
REMARK    5  A    between atoms: C_5  and  C_6
REMARK    6  A    between atoms: C_6  and  C_7
REMARK    7  A    between atoms: C_7  and  C_8
REMARK    8  A    between atoms: C_8  and  C_9
REMARK    9  A    between atoms: C_9  and  C_10
REMARK   10  A    between atoms: C_9  and  C_19
REMARK   11  A    between atoms: C_13  and  C_14
REMARK                            x       y       z     vdW  Elec       q    Type
REMARK                         _______ _______ _______ _____ _____    ______ ____
ROOT
ATOM      1  C   UNL     1      46.626   6.226  12.424  0.00  0.00    +0.000 C 
ENDROOT
BRANCH   1   2
ATOM      2  C   UNL     1      45.272   5.814  11.864  0.00  0.00    +0.000 A 
ATOM      3  C   UNL     1      44.125   5.912  12.625  0.00  0.00    +0.000 A 
ATOM      4  C   UNL     1      42.970   5.466  12.024  0.00  0.00    +0.000 A 
ATOM      5  N   UNL     1      42.926   4.950  10.782  0.00  0.00    +0.000 NA
ATOM      6  C   UNL     1      44.088   4.863  10.136  0.00  0.00    +0.000 A 
ATOM      7  N   UNL     1      44.101   4.307   8.875  0.00  0.00    +0.000 N 
ATOM      8  N   UNL     1      45.258   5.290  10.617  0.00  0.00    +0.000 NA
ATOM      9  H   UNL     1      43.193   4.380   8.441  0.00  0.00    +0.000 HD
ATOM     10  H   UNL     1      44.901   4.632   8.354  0.00  0.00    +0.000 HD
ENDBRANCH   1   2
BRANCH   1  11
ATOM     11  C   UNL     1      47.121   5.346  13.554  0.00  0.00    +0.000 A 
ATOM     12  C   UNL     1      46.908   3.979  13.581  0.00  0.00    +0.000 A 
ATOM     13  N   UNL     1      47.228   3.181  14.614  0.00  0.00    +0.000 NA
ATOM     14  C   UNL     1      47.788   3.805  15.677  0.00  0.00    +0.000 A 
ATOM     15  N   UNL     1      48.044   5.123  15.773  0.00  0.00    +0.000 NA
ATOM     16  C   UNL     1      47.700   5.863  14.702  0.00  0.00    +0.000 A 
BRANCH  14  17
ATOM     17  C   UNL     1      48.104   2.913  16.850  0.00  0.00    +0.000 C 
ATOM     18  N   UNL     1      47.056   2.663  17.702  0.00  0.00    +0.000 N 
ATOM     19  O   UNL     1      49.218   2.428  17.069  0.00  0.00    +0.000 OA
ATOM     20  H   UNL     1      46.149   3.083  17.517  0.00  0.00    +0.000 HD
ATOM     21  H   UNL     1      47.202   2.090  18.519  0.00  0.00    +0.000 HD
ENDBRANCH  14  17
ENDBRANCH   1  11
BRANCH   1  22
ATOM     22  C   UNL     1      46.558   7.706  12.873  0.00  0.00    +0.000 C 
BRANCH  22  23
ATOM     23  C   UNL     1      47.707   8.544  12.316  0.00  0.00    +0.000 C 
BRANCH  23  24
ATOM     24  C   UNL     1      48.620   7.722  11.417  0.00  0.00    +0.000 C 
BRANCH  24  25
ATOM     25  C   UNL     1      50.026   7.701  11.998  0.00  0.00    +0.000 C 
BRANCH  25  26
ATOM     26  C   UNL     1      50.192   8.699  13.151  0.00  0.00    +0.000 C 
BRANCH  26  28
ATOM     27  C   UNL     1      52.136   8.243  14.489  0.00  0.00    +0.000 C 
ATOM     28  N   UNL     1      50.688   8.054  14.379  0.00  0.00    +0.000 NA
ATOM     29  C   UNL     1      50.034   8.594  15.574  0.00  0.00    +0.000 C 
ENDBRANCH  26  28
ENDBRANCH  25  26
ENDBRANCH  24  25
ENDBRANCH  23  24
ENDBRANCH  22  23
ENDBRANCH   1  22
TORSDOF 9
ENDMDL
MODEL 4
REMARK VINA RESULT:    -6.454      2.334      5.337
REMARK INTER + INTRA:         -10.626
REMARK INTER:                  -9.594
REMARK INTRA:                  -1.032
REMARK UNBOUND:                -0.777
REMARK  Name = 
REMARK  11 active torsions:
REMARK  status: ('A' for Active; 'I' for Inactive)
REMARK    1  A    between atoms: C_1  and  N_2
REMARK    2  A    between atoms: N_2  and  C_3
REMARK    3  A    between atoms: N_2  and  C_4
REMARK    4  A    between atoms: C_4  and  C_5
REMARK    5  A    between atoms: C_5  and  C_6
REMARK    6  A    between atoms: C_6  and  C_7
REMARK    7  A    between atoms: C_7  and  C_8
REMARK    8  A    between atoms: C_8  and  C_9
REMARK    9  A    between atoms: C_9  and  C_10
REMARK   10  A    between atoms: C_9  and  C_19
REMARK   11  A    between atoms: C_13  and  C_14
REMARK                            x       y       z     vdW  Elec       q    Type
REMARK                         _______ _______ _______ _____ _____    ______ ____
ROOT
ATOM      1  C   UNL     1      46.533   6.256  12.373  0.00  0.00    +0.000 C 
ENDROOT
BRANCH   1   2
ATOM      2  C   UNL     1      45.192   5.807  11.810  0.00  0.00    +0.000 A 
ATOM      3  C   UNL     1      44.039   5.882  12.564  0.00  0.00    +0.000 A 
ATOM      4  C   UNL     1      42.899   5.403  11.961  0.00  0.00    +0.000 A 
ATOM      5  N   UNL     1      42.874   4.878  10.721  0.00  0.00    +0.000 NA
ATOM      6  C   UNL     1      44.040   4.816  10.082  0.00  0.00    +0.000 A 
ATOM      7  N   UNL     1      44.074   4.252   8.825  0.00  0.00    +0.000 N 
ATOM      8  N   UNL     1      45.197   5.275  10.566  0.00  0.00    +0.000 NA
ATOM      9  H   UNL     1      43.167   4.300   8.385  0.00  0.00    +0.000 HD
ATOM     10  H   UNL     1      44.868   4.594   8.305  0.00  0.00    +0.000 HD
ENDBRANCH   1   2
BRANCH   1  11
ATOM     11  C   UNL     1      47.069   5.366  13.476  0.00  0.00    +0.000 A 
ATOM     12  C   UNL     1      46.876   3.996  13.486  0.00  0.00    +0.000 A 
ATOM     13  N   UNL     1      47.234   3.186  14.498  0.00  0.00    +0.000 NA
ATOM     14  C   UNL     1      47.812   3.802  15.556  0.00  0.00    +0.000 A 
ATOM     15  N   UNL     1      48.050   5.122  15.667  0.00  0.00    +0.000 NA
ATOM     16  C   UNL     1      47.669   5.874  14.617  0.00  0.00    +0.000 A 
BRANCH  14  17
ATOM     17  C   UNL     1      48.170   2.896  16.707  0.00  0.00    +0.000 C 
ATOM     18  N   UNL     1      47.236   2.817  17.711  0.00  0.00    +0.000 N 
ATOM     19  O   UNL     1      49.225   2.259  16.781  0.00  0.00    +0.000 OA
ATOM     20  H   UNL     1      46.380   3.361  17.641  0.00  0.00    +0.000 HD
ATOM     21  H   UNL     1      47.419   2.245  18.520  0.00  0.00    +0.000 HD
ENDBRANCH  14  17
ENDBRANCH   1  11
BRANCH   1  22
ATOM     22  C   UNL     1      46.410   7.719  12.863  0.00  0.00    +0.000 C 
BRANCH  22  23
ATOM     23  C   UNL     1      47.331   8.674  12.104  0.00  0.00    +0.000 C 
BRANCH  23  24
ATOM     24  C   UNL     1      46.805  10.103  12.127  0.00  0.00    +0.000 C 
BRANCH  24  25
ATOM     25  C   UNL     1      45.288  10.091  12.007  0.00  0.00    +0.000 C 
BRANCH  25  26
ATOM     26  C   UNL     1      44.790  10.984  10.865  0.00  0.00    +0.000 C 
BRANCH  26  28
ATOM     27  C   UNL     1      43.364  10.786   8.940  0.00  0.00    +0.000 C 
ATOM     28  N   UNL     1      43.454  10.586  10.388  0.00  0.00    +0.000 NA
ATOM     29  C   UNL     1      43.162   9.185  10.705  0.00  0.00    +0.000 C 
ENDBRANCH  26  28
ENDBRANCH  25  26
ENDBRANCH  24  25
ENDBRANCH  23  24
ENDBRANCH  22  23
ENDBRANCH   1  22
TORSDOF 9
ENDMDL
MODEL 5
REMARK VINA RESULT:    -6.341      2.400      5.370
REMARK INTER + INTRA:         -10.454
REMARK INTER:                  -9.485
REMARK INTRA:                  -0.969
REMARK UNBOUND:                -0.777
REMARK  Name = 
REMARK  11 active torsions:
REMARK  status: ('A' for Active; 'I' for Inactive)
REMARK    1  A    between atoms: C_1  and  N_2
REMARK    2  A    between atoms: N_2  and  C_3
REMARK    3  A    between atoms: N_2  and  C_4
REMARK    4  A    between atoms: C_4  and  C_5
REMARK    5  A    between atoms: C_5  and  C_6
REMARK    6  A    between atoms: C_6  and  C_7
REMARK    7  A    between atoms: C_7  and  C_8
REMARK    8  A    between atoms: C_8  and  C_9
REMARK    9  A    between atoms: C_9  and  C_10
REMARK   10  A    between atoms: C_9  and  C_19
REMARK   11  A    between atoms: C_13  and  C_14
REMARK                            x       y       z     vdW  Elec       q    Type
REMARK                         _______ _______ _______ _____ _____    ______ ____
ROOT
ATOM      1  C   UNL     1      46.640   6.219  12.431  0.00  0.00    +0.000 C 
ENDROOT
BRANCH   1   2
ATOM      2  C   UNL     1      45.275   5.823  11.886  0.00  0.00    +0.000 A 
ATOM      3  C   UNL     1      44.136   5.943  12.656  0.00  0.00    +0.000 A 
ATOM      4  C   UNL     1      42.970   5.510  12.067  0.00  0.00    +0.000 A 
ATOM      5  N   UNL     1      42.907   4.987  10.828  0.00  0.00    +0.000 NA
ATOM      6  C   UNL     1      44.062   4.880  10.173  0.00  0.00    +0.000 A 
ATOM      7  N   UNL     1      44.057   4.316   8.915  0.00  0.00    +0.000 N 
ATOM      8  N   UNL     1      45.242   5.292  10.642  0.00  0.00    +0.000 NA
ATOM      9  H   UNL     1      43.146   4.400   8.488  0.00  0.00    +0.000 HD
ATOM     10  H   UNL     1      44.856   4.627   8.386  0.00  0.00    +0.000 HD
ENDBRANCH   1   2
BRANCH   1  11
ATOM     11  C   UNL     1      47.131   5.340  13.565  0.00  0.00    +0.000 A 
ATOM     12  C   UNL     1      46.931   3.971  13.584  0.00  0.00    +0.000 A 
ATOM     13  N   UNL     1      47.247   3.173  14.619  0.00  0.00    +0.000 NA
ATOM     14  C   UNL     1      47.788   3.799  15.690  0.00  0.00    +0.000 A 
ATOM     15  N   UNL     1      48.028   5.120  15.794  0.00  0.00    +0.000 NA
ATOM     16  C   UNL     1      47.689   5.860  14.721  0.00  0.00    +0.000 A 
BRANCH  14  17
ATOM     17  C   UNL     1      48.098   2.907  16.865  0.00  0.00    +0.000 C 
ATOM     18  N   UNL     1      47.059   2.693  17.737  0.00  0.00    +0.000 N 
ATOM     19  O   UNL     1      49.202   2.392  17.067  0.00  0.00    +0.000 OA
ATOM     20  H   UNL     1      46.161   3.138  17.564  0.00  0.00    +0.000 HD
ATOM     21  H   UNL     1      47.203   2.122  18.555  0.00  0.00    +0.000 HD
ENDBRANCH  14  17
ENDBRANCH   1  11
BRANCH   1  22
ATOM     22  C   UNL     1      46.598   7.703  12.869  0.00  0.00    +0.000 C 
BRANCH  22  23
ATOM     23  C   UNL     1      47.706   8.537  12.228  0.00  0.00    +0.000 C 
BRANCH  23  24
ATOM     24  C   UNL     1      48.598   7.694  11.327  0.00  0.00    +0.000 C 
BRANCH  24  25
ATOM     25  C   UNL     1      50.029   7.735  11.841  0.00  0.00    +0.000 C 
BRANCH  25  26
ATOM     26  C   UNL     1      50.733   9.052  11.493  0.00  0.00    +0.000 C 
BRANCH  26  28
ATOM     27  C   UNL     1      53.035   9.544  11.010  0.00  0.00    +0.000 C 
ATOM     28  N   UNL     1      51.833   8.859  10.532  0.00  0.00    +0.000 NA
ATOM     29  C   UNL     1      52.130   7.439  10.329  0.00  0.00    +0.000 C 
ENDBRANCH  26  28
ENDBRANCH  25  26
ENDBRANCH  24  25
ENDBRANCH  23  24
ENDBRANCH  22  23
ENDBRANCH   1  22
TORSDOF 9
ENDMDL
MODEL 6
REMARK VINA RESULT:    -6.184      1.682      2.357
REMARK INTER + INTRA:         -10.214
REMARK INTER:                  -9.181
REMARK INTRA:                  -1.033
REMARK UNBOUND:                -0.777
REMARK  Name = 
REMARK  11 active torsions:
REMARK  status: ('A' for Active; 'I' for Inactive)
REMARK    1  A    between atoms: C_1  and  N_2
REMARK    2  A    between atoms: N_2  and  C_3
REMARK    3  A    between atoms: N_2  and  C_4
REMARK    4  A    between atoms: C_4  and  C_5
REMARK    5  A    between atoms: C_5  and  C_6
REMARK    6  A    between atoms: C_6  and  C_7
REMARK    7  A    between atoms: C_7  and  C_8
REMARK    8  A    between atoms: C_8  and  C_9
REMARK    9  A    between atoms: C_9  and  C_10
REMARK   10  A    between atoms: C_9  and  C_19
REMARK   11  A    between atoms: C_13  and  C_14
REMARK                            x       y       z     vdW  Elec       q    Type
REMARK                         _______ _______ _______ _____ _____    ______ ____
ROOT
ATOM      1  C   UNL     1      46.860   6.842  12.901  0.00  0.00    +0.000 C 
ENDROOT
BRANCH   1   2
ATOM      2  C   UNL     1      47.955   7.894  12.803  0.00  0.00    +0.000 A 
ATOM      3  C   UNL     1      49.107   7.661  12.079  0.00  0.00    +0.000 A 
ATOM      4  C   UNL     1      50.041   8.671  12.103  0.00  0.00    +0.000 A 
ATOM      5  N   UNL     1      49.883   9.819  12.787  0.00  0.00    +0.000 NA
ATOM      6  C   UNL     1      48.754   9.941  13.484  0.00  0.00    +0.000 A 
ATOM      7  N   UNL     1      48.561  11.083  14.231  0.00  0.00    +0.000 N 
ATOM      8  N   UNL     1      47.774   9.035  13.507  0.00  0.00    +0.000 NA
ATOM      9  H   UNL     1      49.111  11.847  13.868  0.00  0.00    +0.000 HD
ATOM     10  H   UNL     1      47.577  11.242  14.385  0.00  0.00    +0.000 HD
ENDBRANCH   1   2
BRANCH   1  11
ATOM     11  C   UNL     1      47.158   5.730  13.887  0.00  0.00    +0.000 A 
ATOM     12  C   UNL     1      47.877   5.941  15.051  0.00  0.00    +0.000 A 
ATOM     13  N   UNL     1      48.261   4.965  15.893  0.00  0.00    +0.000 NA
ATOM     14  C   UNL     1      47.901   3.712  15.530  0.00  0.00    +0.000 A 
ATOM     15  N   UNL     1      47.207   3.378  14.427  0.00  0.00    +0.000 NA
ATOM     16  C   UNL     1      46.853   4.403  13.628  0.00  0.00    +0.000 A 
BRANCH  14  17
ATOM     17  C   UNL     1      48.373   2.618  16.454  0.00  0.00    +0.000 C 
ATOM     18  N   UNL     1      47.750   2.565  17.676  0.00  0.00    +0.000 N 
ATOM     19  O   UNL     1      49.263   1.810  16.169  0.00  0.00    +0.000 OA
ATOM     20  H   UNL     1      47.030   3.247  17.901  0.00  0.00    +0.000 HD
ATOM     21  H   UNL     1      48.030   1.870  18.351  0.00  0.00    +0.000 HD
ENDBRANCH  14  17
ENDBRANCH   1  11
BRANCH   1  22
ATOM     22  C   UNL     1      46.587   6.263  11.491  0.00  0.00    +0.000 C 
BRANCH  22  23
ATOM     23  C   UNL     1      45.193   6.610  10.972  0.00  0.00    +0.000 C 
BRANCH  23  24
ATOM     24  C   UNL     1      44.131   6.444  12.051  0.00  0.00    +0.000 C 
BRANCH  24  25
ATOM     25  C   UNL     1      43.068   5.466  11.575  0.00  0.00    +0.000 C 
BRANCH  25  26
ATOM     26  C   UNL     1      43.549   4.614  10.395  0.00  0.00    +0.000 C 
BRANCH  26  28
ATOM     27  C   UNL     1      44.551   2.473   9.960  0.00  0.00    +0.000 C 
ATOM     28  N   UNL     1      43.490   3.171  10.689  0.00  0.00    +0.000 NA
ATOM     29  C   UNL     1      43.629   2.906  12.123  0.00  0.00    +0.000 C 
ENDBRANCH  26  28
ENDBRANCH  25  26
ENDBRANCH  24  25
ENDBRANCH  23  24
ENDBRANCH  22  23
ENDBRANCH   1  22
TORSDOF 9
ENDMDL
MODEL 7
REMARK VINA RESULT:    -6.075      2.632      5.920
REMARK INTER + INTRA:         -10.048
REMARK INTER:                  -9.040
REMARK INTRA:                  -1.007
REMARK UNBOUND:                -0.777
REMARK  Name = 
REMARK  11 active torsions:
REMARK  status: ('A' for Active; 'I' for Inactive)
REMARK    1  A    between atoms: C_1  and  N_2
REMARK    2  A    between atoms: N_2  and  C_3
REMARK    3  A    between atoms: N_2  and  C_4
REMARK    4  A    between atoms: C_4  and  C_5
REMARK    5  A    between atoms: C_5  and  C_6
REMARK    6  A    between atoms: C_6  and  C_7
REMARK    7  A    between atoms: C_7  and  C_8
REMARK    8  A    between atoms: C_8  and  C_9
REMARK    9  A    between atoms: C_9  and  C_10
REMARK   10  A    between atoms: C_9  and  C_19
REMARK   11  A    between atoms: C_13  and  C_14
REMARK                            x       y       z     vdW  Elec       q    Type
REMARK                         _______ _______ _______ _____ _____    ______ ____
ROOT
ATOM      1  C   UNL     1      47.224   7.510  12.306  0.00  0.00    +0.000 C 
ENDROOT
BRANCH   1   2
ATOM      2  C   UNL     1      46.646   8.899  12.075  0.00  0.00    +0.000 A 
ATOM      3  C   UNL     1      47.466   9.989  11.869  0.00  0.00    +0.000 A 
ATOM      4  C   UNL     1      46.826  11.198  11.717  0.00  0.00    +0.000 A 
ATOM      5  N   UNL     1      45.489  11.347  11.773  0.00  0.00    +0.000 NA
ATOM      6  C   UNL     1      44.781  10.244  12.011  0.00  0.00    +0.000 A 
ATOM      7  N   UNL     1      43.410  10.351  12.115  0.00  0.00    +0.000 N 
ATOM      8  N   UNL     1      45.300   9.022  12.146  0.00  0.00    +0.000 NA
ATOM      9  H   UNL     1      43.076  11.169  11.628  0.00  0.00    +0.000 HD
ATOM     10  H   UNL     1      42.971   9.467  11.908  0.00  0.00    +0.000 HD
ENDBRANCH   1   2
BRANCH   1  11
ATOM     11  C   UNL     1      46.276   6.380  11.954  0.00  0.00    +0.000 A 
ATOM     12  C   UNL     1      45.756   5.522  12.907  0.00  0.00    +0.000 A 
ATOM     13  N   UNL     1      45.007   4.441  12.626  0.00  0.00    +0.000 NA
ATOM     14  C   UNL     1      44.780   4.219  11.310  0.00  0.00    +0.000 A 
ATOM     15  N   UNL     1      45.231   4.976  10.293  0.00  0.00    +0.000 NA
ATOM     16  C   UNL     1      45.974   6.043  10.645  0.00  0.00    +0.000 A 
BRANCH  14  17
ATOM     17  C   UNL     1      43.978   2.982  10.999  0.00  0.00    +0.000 C 
ATOM     18  N   UNL     1      44.437   2.227   9.948  0.00  0.00    +0.000 N 
ATOM     19  O   UNL     1      42.965   2.641  11.619  0.00  0.00    +0.000 OA
ATOM     20  H   UNL     1      45.263   2.530   9.438  0.00  0.00    +0.000 HD
ATOM     21  H   UNL     1      43.937   1.396   9.672  0.00  0.00    +0.000 HD
ENDBRANCH  14  17
ENDBRANCH   1  11
BRANCH   1  22
ATOM     22  C   UNL     1      47.689   7.394  13.778  0.00  0.00    +0.000 C 
BRANCH  22  23
ATOM     23  C   UNL     1      49.168   7.032  13.902  0.00  0.00    +0.000 C 
BRANCH  23  24
ATOM     24  C   UNL     1      49.646   7.098  15.346  0.00  0.00    +0.000 C 
BRANCH  24  25
ATOM     25  C   UNL     1      48.655   6.375  16.246  0.00  0.00    +0.000 C 
BRANCH  25  26
ATOM     26  C   UNL     1      49.299   5.203  16.995  0.00  0.00    +0.000 C 
BRANCH  26  28
ATOM     27  C   UNL     1      48.326   3.229  17.960  0.00  0.00    +0.000 C 
ATOM     28  N   UNL     1      48.632   3.922  16.707  0.00  0.00    +0.000 NA
ATOM     29  C   UNL     1      47.396   4.116  15.943  0.00  0.00    +0.000 C 
ENDBRANCH  26  28
ENDBRANCH  25  26
ENDBRANCH  24  25
ENDBRANCH  23  24
ENDBRANCH  22  23
ENDBRANCH   1  22
TORSDOF 9
ENDMDL
MODEL 8
REMARK VINA RESULT:    -5.872      2.980      7.300
REMARK INTER + INTRA:          -9.738
REMARK INTER:                  -9.092
REMARK INTRA:                  -0.646
REMARK UNBOUND:                -0.777
REMARK  Name = 
REMARK  11 active torsions:
REMARK  status: ('A' for Active; 'I' for Inactive)
REMARK    1  A    between atoms: C_1  and  N_2
REMARK    2  A    between atoms: N_2  and  C_3
REMARK    3  A    between atoms: N_2  and  C_4
REMARK    4  A    between atoms: C_4  and  C_5
REMARK    5  A    between atoms: C_5  and  C_6
REMARK    6  A    between atoms: C_6  and  C_7
REMARK    7  A    between atoms: C_7  and  C_8
REMARK    8  A    between atoms: C_8  and  C_9
REMARK    9  A    between atoms: C_9  and  C_10
REMARK   10  A    between atoms: C_9  and  C_19
REMARK   11  A    between atoms: C_13  and  C_14
REMARK                            x       y       z     vdW  Elec       q    Type
REMARK                         _______ _______ _______ _____ _____    ______ ____
ROOT
ATOM      1  C   UNL     1      45.786   5.181  13.441  0.00  0.00    +0.000 C 
ENDROOT
BRANCH   1   2
ATOM      2  C   UNL     1      44.967   4.528  12.337  0.00  0.00    +0.000 A 
ATOM      3  C   UNL     1      44.025   3.561  12.623  0.00  0.00    +0.000 A 
ATOM      4  C   UNL     1      43.383   3.014  11.536  0.00  0.00    +0.000 A 
ATOM      5  N   UNL     1      43.638   3.366  10.262  0.00  0.00    +0.000 NA
ATOM      6  C   UNL     1      44.587   4.283  10.081  0.00  0.00    +0.000 A 
ATOM      7  N   UNL     1      44.913   4.650   8.793  0.00  0.00    +0.000 N 
ATOM      8  N   UNL     1      45.251   4.893  11.066  0.00  0.00    +0.000 NA
ATOM      9  H   UNL     1      44.145   4.469   8.164  0.00  0.00    +0.000 HD
ATOM     10  H   UNL     1      45.324   5.570   8.782  0.00  0.00    +0.000 HD
ENDBRANCH   1   2
BRANCH   1  11
ATOM     11  C   UNL     1      46.435   6.491  13.037  0.00  0.00    +0.000 A 
ATOM     12  C   UNL     1      45.715   7.665  12.902  0.00  0.00    +0.000 A 
ATOM     13  N   UNL     1      46.227   8.819  12.437  0.00  0.00    +0.000 NA
ATOM     14  C   UNL     1      47.534   8.774  12.086  0.00  0.00    +0.000 A 
ATOM     15  N   UNL     1      48.336   7.696  12.168  0.00  0.00    +0.000 NA
ATOM     16  C   UNL     1      47.760   6.575  12.643  0.00  0.00    +0.000 A 
BRANCH  14  17
ATOM     17  C   UNL     1      48.090  10.056  11.523  0.00  0.00    +0.000 C 
ATOM     18  N   UNL     1      49.446  10.069  11.307  0.00  0.00    +0.000 N 
ATOM     19  O   UNL     1      47.406  11.052  11.268  0.00  0.00    +0.000 OA
ATOM     20  H   UNL     1      49.997   9.246  11.538  0.00  0.00    +0.000 HD
ATOM     21  H   UNL     1      49.888  10.902  10.950  0.00  0.00    +0.000 HD
ENDBRANCH  14  17
ENDBRANCH   1  11
BRANCH   1  22
ATOM     22  C   UNL     1      46.852   4.176  13.942  0.00  0.00    +0.000 C 
BRANCH  22  23
ATOM     23  C   UNL     1      47.115   4.295  15.442  0.00  0.00    +0.000 C 
BRANCH  23  24
ATOM     24  C   UNL     1      47.869   3.086  15.980  0.00  0.00    +0.000 C 
BRANCH  24  25
ATOM     25  C   UNL     1      47.769   3.055  17.498  0.00  0.00    +0.000 C 
BRANCH  25  26
ATOM     26  C   UNL     1      49.109   3.369  18.174  0.00  0.00    +0.000 C 
BRANCH  26  28
ATOM     27  C   UNL     1      51.151   4.427  17.477  0.00  0.00    +0.000 C 
ATOM     28  N   UNL     1      50.238   3.310  17.229  0.00  0.00    +0.000 NA
ATOM     29  C   UNL     1      50.971   2.047  17.342  0.00  0.00    +0.000 C 
ENDBRANCH  26  28
ENDBRANCH  25  26
ENDBRANCH  24  25
ENDBRANCH  23  24
ENDBRANCH  22  23
ENDBRANCH   1  22
TORSDOF 9
ENDMDL
MODEL 9
REMARK VINA RESULT:    -5.531      2.855      5.746
REMARK INTER + INTRA:          -9.218
REMARK INTER:                  -8.537
REMARK INTRA:                  -0.682
REMARK UNBOUND:                -0.777
REMARK  Name = 
REMARK  11 active torsions:
REMARK  status: ('A' for Active; 'I' for Inactive)
REMARK    1  A    between atoms: C_1  and  N_2
REMARK    2  A    between atoms: N_2  and  C_3
REMARK    3  A    between atoms: N_2  and  C_4
REMARK    4  A    between atoms: C_4  and  C_5
REMARK    5  A    between atoms: C_5  and  C_6
REMARK    6  A    between atoms: C_6  and  C_7
REMARK    7  A    between atoms: C_7  and  C_8
REMARK    8  A    between atoms: C_8  and  C_9
REMARK    9  A    between atoms: C_9  and  C_10
REMARK   10  A    between atoms: C_9  and  C_19
REMARK   11  A    between atoms: C_13  and  C_14
REMARK                            x       y       z     vdW  Elec       q    Type
REMARK                         _______ _______ _______ _____ _____    ______ ____
ROOT
ATOM      1  C   UNL     1      46.668   5.773  12.932  0.00  0.00    +0.000 C 
ENDROOT
BRANCH   1   2
ATOM      2  C   UNL     1      45.388   5.066  12.510  0.00  0.00    +0.000 A 
ATOM      3  C   UNL     1      45.384   3.722  12.196  0.00  0.00    +0.000 A 
ATOM      4  C   UNL     1      44.176   3.208  11.785  0.00  0.00    +0.000 A 
ATOM      5  N   UNL     1      43.052   3.940  11.673  0.00  0.00    +0.000 NA
ATOM      6  C   UNL     1      43.159   5.235  11.965  0.00  0.00    +0.000 A 
ATOM      7  N   UNL     1      42.045   6.036  11.830  0.00  0.00    +0.000 N 
ATOM      8  N   UNL     1      44.275   5.827  12.397  0.00  0.00    +0.000 NA
ATOM      9  H   UNL     1      41.200   5.488  11.894  0.00  0.00    +0.000 HD
ATOM     10  H   UNL     1      42.124   6.852  12.417  0.00  0.00    +0.000 HD
ENDBRANCH   1   2
BRANCH   1  11
ATOM     11  C   UNL     1      47.252   5.267  14.236  0.00  0.00    +0.000 A 
ATOM     12  C   UNL     1      46.773   4.138  14.877  0.00  0.00    +0.000 A 
ATOM     13  N   UNL     1      47.184   3.720  16.087  0.00  0.00    +0.000 NA
ATOM     14  C   UNL     1      48.124   4.494  16.679  0.00  0.00    +0.000 A 
ATOM     15  N   UNL     1      48.665   5.612  16.162  0.00  0.00    +0.000 NA
ATOM     16  C   UNL     1      48.210   5.972  14.946  0.00  0.00    +0.000 A 
BRANCH  14  17
ATOM     17  C   UNL     1      48.548   4.047  18.054  0.00  0.00    +0.000 C 
ATOM     18  N   UNL     1      49.402   2.972  18.092  0.00  0.00    +0.000 N 
ATOM     19  O   UNL     1      48.167   4.581  19.101  0.00  0.00    +0.000 OA
ATOM     20  H   UNL     1      49.693   2.535  17.221  0.00  0.00    +0.000 HD
ATOM     21  H   UNL     1      49.710   2.609  18.980  0.00  0.00    +0.000 HD
ENDBRANCH  14  17
ENDBRANCH   1  11
BRANCH   1  22
ATOM     22  C   UNL     1      46.402   7.296  13.007  0.00  0.00    +0.000 C 
BRANCH  22  23
ATOM     23  C   UNL     1      47.106   8.072  11.895  0.00  0.00    +0.000 C 
BRANCH  23  24
ATOM     24  C   UNL     1      48.471   7.480  11.571  0.00  0.00    +0.000 C 
BRANCH  24  25
ATOM     25  C   UNL     1      49.550   8.528  11.796  0.00  0.00    +0.000 C 
BRANCH  25  26
ATOM     26  C   UNL     1      49.853   8.741  13.283  0.00  0.00    +0.000 C 
BRANCH  26  28
ATOM     27  C   UNL     1      51.983   9.812  13.580  0.00  0.00    +0.000 C 
ATOM     28  N   UNL     1      51.276   8.530  13.598  0.00  0.00    +0.000 NA
ATOM     29  C   UNL     1      51.452   7.895  14.907  0.00  0.00    +0.000 C 
ENDBRANCH  26  28
ENDBRANCH  25  26
ENDBRANCH  24  25
ENDBRANCH  23  24
ENDBRANCH  22  23
ENDBRANCH   1  22
TORSDOF 9
ENDMDL
