MODEL 1
REMARK VINA RESULT:    -8.448      0.000      0.000
REMARK INTER + INTRA:         -12.921
REMARK INTER:                 -12.153
REMARK INTRA:                  -0.769
REMARK UNBOUND:                -0.769
REMARK  Name = 
REMARK  8 active torsions:
REMARK  status: ('A' for Active; 'I' for Inactive)
REMARK    1  A    between atoms: C_2  and  C_3
REMARK    2  A    between atoms: N_7  and  C_8
REMARK    3  A    between atoms: C_8  and  C_9
REMARK    4  A    between atoms: C_9  and  C_10
REMARK    5  A    between atoms: C_9  and  C_12
REMARK    6  A    between atoms: C_10  and  O_11
REMARK    7  A    between atoms: C_17  and  O_18
REMARK    8  A    between atoms: O_18  and  C_19
REMARK                            x       y       z     vdW  Elec       q    Type
REMARK                         _______ _______ _______ _____ _____    ______ ____
ROOT
ATOM      1  C   UNL     1      43.882   4.547  12.545  0.00  0.00    +0.000 C 
ENDROOT
BRANCH   1   2
ATOM      2  C   UNL     1      45.280   5.154  12.679  0.00  0.00    +0.000 A 
ATOM      3  C   UNL     1      45.808   6.053  11.750  0.00  0.00    +0.000 A 
ATOM      4  C   UNL     1      47.070   6.613  11.958  0.00  0.00    +0.000 A 
ATOM      5  C   UNL     1      47.846   6.276  13.079  0.00  0.00    +0.000 A 
ATOM      6 CL   UNL     1      49.325   7.148  13.243  0.00  0.00    +0.000 Cl
ATOM      7  C   UNL     1      47.368   5.333  13.993  0.00  0.00    +0.000 A 
ATOM      8  C   UNL     1      46.083   4.796  13.782  0.00  0.00    +0.000 A 
BRANCH   7   9
ATOM      9  O   UNL     1      47.945   4.880  15.160  0.00  0.00    +0.000 OA
BRANCH   9  10
ATOM     10  C   UNL     1      47.176   4.184  16.170  0.00  0.00    +0.000 C 
ATOM     11  C   UNL     1      47.187   4.727  17.612  0.00  0.00    +0.000 C 
ATOM     12  N   UNL     1      47.556   3.402  18.132  0.00  0.00    +0.000 NA
ATOM     13  C   UNL     1      47.846   2.925  16.772  0.00  0.00    +0.000 C 
ATOM     14  H   UNL     1      46.792   2.907  18.591  0.00  0.00    +0.000 HD
ENDBRANCH   9  10
ENDBRANCH   7   9
ENDBRANCH   1   2
BRANCH   1  15
ATOM     15  C   UNL     1      43.821   3.480  11.422  0.00  0.00    +0.000 C 
BRANCH  15  20
ATOM     16  C   UNL     1      46.735   2.559   7.320  0.00  0.00    +0.000 A 
ATOM     17  C   UNL     1      46.140   1.663   8.203  0.00  0.00    +0.000 A 
ATOM     18  C   UNL     1      45.250   2.140   9.169  0.00  0.00    +0.000 A 
ATOM     19  C   UNL     1      44.976   3.502   9.245  0.00  0.00    +0.000 A 
ATOM     20  N   UNL     1      44.035   4.052  10.099  0.00  0.00    +0.000 N 
ATOM     21  N   UNL     1      45.562   4.379   8.406  0.00  0.00    +0.000 NA
ATOM     22  C   UNL     1      46.419   3.898   7.467  0.00  0.00    +0.000 A 
ATOM     23  H   UNL     1      44.185   5.061  10.075  0.00  0.00    +0.000 HD
BRANCH  16  25
ATOM     24  N   UNL     1      48.357   1.763   5.464  0.00  0.00    +0.000 NA
ATOM     25  C   UNL     1      47.625   2.122   6.293  0.00  0.00    +0.000 C 
ENDBRANCH  16  25
ENDBRANCH  15  20
ENDBRANCH   1  15
BRANCH   1  26
ATOM     26  C   UNL     1      42.715   5.549  12.409  0.00  0.00    +0.000 C 
BRANCH  26  27
ATOM     27  O   UNL     1      41.805   5.153  11.383  0.00  0.00    +0.000 OA
ATOM     28  H   UNL     1      41.861   5.808  10.665  0.00  0.00    +0.000 HD
ENDBRANCH  26  27
ENDBRANCH   1  26
TORSDOF 8
ENDMDL
MODEL 2
REMARK VINA RESULT:    -7.153      2.873      3.385
REMARK INTER + INTRA:         -11.058
REMARK INTER:                 -10.575
REMARK INTRA:                  -0.483
REMARK UNBOUND:                -0.769
REMARK  Name = 
REMARK  8 active torsions:
REMARK  status: ('A' for Active; 'I' for Inactive)
REMARK    1  A    between atoms: C_2  and  C_3
REMARK    2  A    between atoms: N_7  and  C_8
REMARK    3  A    between atoms: C_8  and  C_9
REMARK    4  A    between atoms: C_9  and  C_10
REMARK    5  A    between atoms: C_9  and  C_12
REMARK    6  A    between atoms: C_10  and  O_11
REMARK    7  A    between atoms: C_17  and  O_18
REMARK    8  A    between atoms: O_18  and  C_19
REMARK                            x       y       z     vdW  Elec       q    Type
REMARK                         _______ _______ _______ _____ _____    ______ ____
ROOT
ATOM      1  C   UNL     1      44.424   4.896  12.080  0.00  0.00    +0.000 C 
ENDROOT
BRANCH   1   2
ATOM      2  C   UNL     1      44.882   6.353  12.015  0.00  0.00    +0.000 A 
ATOM      3  C   UNL     1      44.168   7.344  11.339  0.00  0.00    +0.000 A 
ATOM      4  C   UNL     1      44.611   8.668  11.363  0.00  0.00    +0.000 A 
ATOM      5  C   UNL     1      45.787   9.034  12.038  0.00  0.00    +0.000 A 
ATOM      6 CL   UNL     1      46.126  10.725  12.067  0.00  0.00    +0.000 Cl
ATOM      7  C   UNL     1      46.555   8.054  12.672  0.00  0.00    +0.000 A 
ATOM      8  C   UNL     1      46.080   6.727  12.659  0.00  0.00    +0.000 A 
BRANCH   7   9
ATOM      9  O   UNL     1      47.715   8.193  13.404  0.00  0.00    +0.000 OA
BRANCH   9  10
ATOM     10  C   UNL     1      48.968   8.565  12.784  0.00  0.00    +0.000 C 
ATOM     11  C   UNL     1      49.596   7.607  11.752  0.00  0.00    +0.000 C 
ATOM     12  N   UNL     1      50.875   7.629  12.477  0.00  0.00    +0.000 NA
ATOM     13  C   UNL     1      50.238   8.291  13.625  0.00  0.00    +0.000 C 
ATOM     14  H   UNL     1      51.600   8.188  12.026  0.00  0.00    +0.000 HD
ENDBRANCH   9  10
ENDBRANCH   7   9
ENDBRANCH   1   2
BRANCH   1  15
ATOM     15  C   UNL     1      43.391   4.565  10.973  0.00  0.00    +0.000 C 
BRANCH  15  20
ATOM     16  C   UNL     1      46.649   2.730   7.483  0.00  0.00    +0.000 A 
ATOM     17  C   UNL     1      45.810   2.046   8.356  0.00  0.00    +0.000 A 
ATOM     18  C   UNL     1      44.883   2.762   9.119  0.00  0.00    +0.000 A 
ATOM     19  C   UNL     1      44.816   4.147   9.006  0.00  0.00    +0.000 A 
ATOM     20  N   UNL     1      43.866   4.927   9.643  0.00  0.00    +0.000 N 
ATOM     21  N   UNL     1      45.638   4.819   8.175  0.00  0.00    +0.000 NA
ATOM     22  C   UNL     1      46.528   4.108   7.434  0.00  0.00    +0.000 A 
ATOM     23  H   UNL     1      44.173   5.894   9.533  0.00  0.00    +0.000 HD
BRANCH  16  25
ATOM     24  N   UNL     1      48.363   1.487   5.989  0.00  0.00    +0.000 NA
ATOM     25  C   UNL     1      47.590   2.046   6.655  0.00  0.00    +0.000 C 
ENDBRANCH  16  25
ENDBRANCH  15  20
ENDBRANCH   1  15
BRANCH   1  26
ATOM     26  C   UNL     1      43.927   4.399  13.455  0.00  0.00    +0.000 C 
BRANCH  26  27
ATOM     27  O   UNL     1      42.597   4.844  13.721  0.00  0.00    +0.000 OA
ATOM     28  H   UNL     1      42.499   4.935  14.685  0.00  0.00    +0.000 HD
ENDBRANCH  26  27
ENDBRANCH   1  26
TORSDOF 8
ENDMDL
MODEL 3
REMARK VINA RESULT:    -6.874      1.652      1.923
REMARK INTER + INTRA:         -10.657
REMARK INTER:                  -9.691
REMARK INTRA:                  -0.965
REMARK UNBOUND:                -0.769
REMARK  Name = 
REMARK  8 active torsions:
REMARK  status: ('A' for Active; 'I' for Inactive)
REMARK    1  A    between atoms: C_2  and  C_3
REMARK    2  A    between atoms: N_7  and  C_8
REMARK    3  A    between atoms: C_8  and  C_9
REMARK    4  A    between atoms: C_9  and  C_10
REMARK    5  A    between atoms: C_9  and  C_12
REMARK    6  A    between atoms: C_10  and  O_11
REMARK    7  A    between atoms: C_17  and  O_18
REMARK    8  A    between atoms: O_18  and  C_19
REMARK                            x       y       z     vdW  Elec       q    Type
REMARK                         _______ _______ _______ _____ _____    ______ ____
ROOT
ATOM      1  C   UNL     1      44.284   4.594  12.250  0.00  0.00    +0.000 C 
ENDROOT
BRANCH   1   2
ATOM      2  C   UNL     1      45.557   5.436  12.141  0.00  0.00    +0.000 A 
ATOM      3  C   UNL     1      45.780   6.343  11.104  0.00  0.00    +0.000 A 
ATOM      4  C   UNL     1      46.939   7.121  11.090  0.00  0.00    +0.000 A 
ATOM      5  C   UNL     1      47.914   7.000  12.094  0.00  0.00    +0.000 A 
ATOM      6 CL   UNL     1      49.224   8.117  11.990  0.00  0.00    +0.000 Cl
ATOM      7  C   UNL     1      47.746   6.057  13.111  0.00  0.00    +0.000 A 
ATOM      8  C   UNL     1      46.560   5.297  13.123  0.00  0.00    +0.000 A 
BRANCH   7   9
ATOM      9  O   UNL     1      48.555   5.791  14.196  0.00  0.00    +0.000 OA
BRANCH   9  10
ATOM     10  C   UNL     1      48.261   6.315  15.513  0.00  0.00    +0.000 C 
ATOM     11  C   UNL     1      48.989   7.592  15.979  0.00  0.00    +0.000 C 
ATOM     12  N   UNL     1      49.409   6.926  17.221  0.00  0.00    +0.000 NA
ATOM     13  C   UNL     1      48.990   5.621  16.688  0.00  0.00    +0.000 C 
ATOM     14  H   UNL     1      48.889   7.221  18.048  0.00  0.00    +0.000 HD
ENDBRANCH   9  10
ENDBRANCH   7   9
ENDBRANCH   1   2
BRANCH   1  15
ATOM     15  C   UNL     1      43.945   3.885  10.914  0.00  0.00    +0.000 C 
BRANCH  15  20
ATOM     16  C   UNL     1      46.874   2.519   6.949  0.00  0.00    +0.000 A 
ATOM     17  C   UNL     1      46.539   3.790   7.406  0.00  0.00    +0.000 A 
ATOM     18  C   UNL     1      45.846   3.924   8.613  0.00  0.00    +0.000 A 
ATOM     19  C   UNL     1      45.491   2.791   9.337  0.00  0.00    +0.000 A 
ATOM     20  N   UNL     1      44.897   2.830  10.587  0.00  0.00    +0.000 N 
ATOM     21  N   UNL     1      45.796   1.556   8.892  0.00  0.00    +0.000 NA
ATOM     22  C   UNL     1      46.476   1.442   7.721  0.00  0.00    +0.000 A 
ATOM     23  H   UNL     1      44.584   1.879  10.782  0.00  0.00    +0.000 HD
BRANCH  16  25
ATOM     24  N   UNL     1      48.209   2.158   4.759  0.00  0.00    +0.000 NA
ATOM     25  C   UNL     1      47.610   2.326   5.741  0.00  0.00    +0.000 C 
ENDBRANCH  16  25
ENDBRANCH  15  20
ENDBRANCH   1  15
BRANCH   1  26
ATOM     26  C   UNL     1      43.040   5.312  12.818  0.00  0.00    +0.000 C 
BRANCH  26  27
ATOM     27  O   UNL     1      42.522   4.630  13.961  0.00  0.00    +0.000 OA
ATOM     28  H   UNL     1      42.016   3.861  13.645  0.00  0.00    +0.000 HD
ENDBRANCH  26  27
ENDBRANCH   1  26
TORSDOF 8
ENDMDL
MODEL 4
REMARK VINA RESULT:    -6.546      2.909      7.787
REMARK INTER + INTRA:         -10.184
REMARK INTER:                  -9.548
REMARK INTRA:                  -0.637
REMARK UNBOUND:                -0.769
REMARK  Name = 
REMARK  8 active torsions:
REMARK  status: ('A' for Active; 'I' for Inactive)
REMARK    1  A    between atoms: C_2  and  C_3
REMARK    2  A    between atoms: N_7  and  C_8
REMARK    3  A    between atoms: C_8  and  C_9
REMARK    4  A    between atoms: C_9  and  C_10
REMARK    5  A    between atoms: C_9  and  C_12
REMARK    6  A    between atoms: C_10  and  O_11
REMARK    7  A    between atoms: C_17  and  O_18
REMARK    8  A    between atoms: O_18  and  C_19
REMARK                            x       y       z     vdW  Elec       q    Type
REMARK                         _______ _______ _______ _____ _____    ______ ____
ROOT
ATOM      1  C   UNL     1      45.501   6.728  11.416  0.00  0.00    +0.000 C 
ENDROOT
BRANCH   1   2
ATOM      2  C   UNL     1      45.336   5.349  10.774  0.00  0.00    +0.000 A 
ATOM      3  C   UNL     1      44.844   4.243  11.469  0.00  0.00    +0.000 A 
ATOM      4  C   UNL     1      44.666   3.024  10.811  0.00  0.00    +0.000 A 
ATOM      5  C   UNL     1      44.996   2.870   9.455  0.00  0.00    +0.000 A 
ATOM      6 CL   UNL     1      44.605   1.336   8.769  0.00  0.00    +0.000 Cl
ATOM      7  C   UNL     1      45.549   3.942   8.750  0.00  0.00    +0.000 A 
ATOM      8  C   UNL     1      45.698   5.172   9.422  0.00  0.00    +0.000 A 
BRANCH   7   9
ATOM      9  O   UNL     1      45.918   4.018   7.424  0.00  0.00    +0.000 OA
BRANCH   9  10
ATOM     10  C   UNL     1      46.464   2.877   6.718  0.00  0.00    +0.000 C 
ATOM     11  C   UNL     1      47.951   2.526   6.920  0.00  0.00    +0.000 C 
ATOM     12  N   UNL     1      48.168   2.510   5.466  0.00  0.00    +0.000 NA
ATOM     13  C   UNL     1      46.853   3.128   5.241  0.00  0.00    +0.000 C 
ATOM     14  H   UNL     1      48.260   1.575   5.069  0.00  0.00    +0.000 HD
ENDBRANCH   9  10
ENDBRANCH   7   9
ENDBRANCH   1   2
BRANCH   1  15
ATOM     15  C   UNL     1      45.610   6.637  12.959  0.00  0.00    +0.000 C 
BRANCH  15  20
ATOM     16  C   UNL     1      48.374   4.353  16.606  0.00  0.00    +0.000 A 
ATOM     17  C   UNL     1      47.312   3.855  15.858  0.00  0.00    +0.000 A 
ATOM     18  C   UNL     1      46.806   4.612  14.797  0.00  0.00    +0.000 A 
ATOM     19  C   UNL     1      47.360   5.855  14.508  0.00  0.00    +0.000 A 
ATOM     20  N   UNL     1      46.993   6.627  13.419  0.00  0.00    +0.000 N 
ATOM     21  N   UNL     1      48.376   6.352  15.240  0.00  0.00    +0.000 NA
ATOM     22  C   UNL     1      48.863   5.601  16.263  0.00  0.00    +0.000 A 
ATOM     23  H   UNL     1      47.414   7.545  13.567  0.00  0.00    +0.000 HD
BRANCH  16  25
ATOM     24  N   UNL     1      49.430   2.997  18.545  0.00  0.00    +0.000 NA
ATOM     25  C   UNL     1      48.951   3.607  17.678  0.00  0.00    +0.000 C 
ENDBRANCH  16  25
ENDBRANCH  15  20
ENDBRANCH   1  15
BRANCH   1  26
ATOM     26  C   UNL     1      44.467   7.798  11.003  0.00  0.00    +0.000 C 
BRANCH  26  27
ATOM     27  O   UNL     1      43.136   7.285  11.056  0.00  0.00    +0.000 OA
ATOM     28  H   UNL     1      42.532   8.035  11.196  0.00  0.00    +0.000 HD
ENDBRANCH  26  27
ENDBRANCH   1  26
TORSDOF 8
ENDMDL
MODEL 5
REMARK VINA RESULT:    -6.523      3.458      8.282
REMARK INTER + INTRA:         -10.152
REMARK INTER:                  -9.497
REMARK INTRA:                  -0.654
REMARK UNBOUND:                -0.769
REMARK  Name = 
REMARK  8 active torsions:
REMARK  status: ('A' for Active; 'I' for Inactive)
REMARK    1  A    between atoms: C_2  and  C_3
REMARK    2  A    between atoms: N_7  and  C_8
REMARK    3  A    between atoms: C_8  and  C_9
REMARK    4  A    between atoms: C_9  and  C_10
REMARK    5  A    between atoms: C_9  and  C_12
REMARK    6  A    between atoms: C_10  and  O_11
REMARK    7  A    between atoms: C_17  and  O_18
REMARK    8  A    between atoms: O_18  and  C_19
REMARK                            x       y       z     vdW  Elec       q    Type
REMARK                         _______ _______ _______ _____ _____    ______ ____
ROOT
ATOM      1  C   UNL     1      45.610   6.587  11.153  0.00  0.00    +0.000 C 
ENDROOT
BRANCH   1   2
ATOM      2  C   UNL     1      45.416   5.201  10.536  0.00  0.00    +0.000 A 
ATOM      3  C   UNL     1      44.894   4.120  11.249  0.00  0.00    +0.000 A 
ATOM      4  C   UNL     1      44.692   2.893  10.613  0.00  0.00    +0.000 A 
ATOM      5  C   UNL     1      45.025   2.705   9.262  0.00  0.00    +0.000 A 
ATOM      6 CL   UNL     1      44.602   1.168   8.604  0.00  0.00    +0.000 Cl
ATOM      7  C   UNL     1      45.606   3.751   8.541  0.00  0.00    +0.000 A 
ATOM      8  C   UNL     1      45.781   4.989   9.190  0.00  0.00    +0.000 A 
BRANCH   7   9
ATOM      9  O   UNL     1      45.984   3.793   7.215  0.00  0.00    +0.000 OA
BRANCH   9  10
ATOM     10  C   UNL     1      46.476   2.619   6.525  0.00  0.00    +0.000 C 
ATOM     11  C   UNL     1      47.781   1.964   7.019  0.00  0.00    +0.000 C 
ATOM     12  N   UNL     1      48.342   2.006   5.661  0.00  0.00    +0.000 NA
ATOM     13  C   UNL     1      47.254   2.889   5.215  0.00  0.00    +0.000 C 
ATOM     14  H   UNL     1      48.362   1.102   5.189  0.00  0.00    +0.000 HD
ENDBRANCH   9  10
ENDBRANCH   7   9
ENDBRANCH   1   2
BRANCH   1  15
ATOM     15  C   UNL     1      47.032   6.764  11.742  0.00  0.00    +0.000 C 
BRANCH  15  20
ATOM     16  C   UNL     1      49.404   7.932  16.121  0.00  0.00    +0.000 A 
ATOM     17  C   UNL     1      48.835   8.774  15.171  0.00  0.00    +0.000 A 
ATOM     18  C   UNL     1      48.096   8.222  14.120  0.00  0.00    +0.000 A 
ATOM     19  C   UNL     1      47.945   6.842  14.030  0.00  0.00    +0.000 A 
ATOM     20  N   UNL     1      47.150   6.214  13.087  0.00  0.00    +0.000 N 
ATOM     21  N   UNL     1      48.508   6.019  14.937  0.00  0.00    +0.000 NA
ATOM     22  C   UNL     1      49.217   6.571  15.957  0.00  0.00    +0.000 A 
ATOM     23  H   UNL     1      47.379   5.222  13.138  0.00  0.00    +0.000 HD
BRANCH  16  25
ATOM     24  N   UNL     1      50.741   8.851  18.141  0.00  0.00    +0.000 NA
ATOM     25  C   UNL     1      50.140   8.443  17.233  0.00  0.00    +0.000 C 
ENDBRANCH  16  25
ENDBRANCH  15  20
ENDBRANCH   1  15
BRANCH   1  26
ATOM     26  C   UNL     1      44.538   7.034  12.171  0.00  0.00    +0.000 C 
BRANCH  26  27
ATOM     27  O   UNL     1      44.878   8.284  12.771  0.00  0.00    +0.000 OA
ATOM     28  H   UNL     1      45.782   8.209  13.126  0.00  0.00    +0.000 HD
ENDBRANCH  26  27
ENDBRANCH   1  26
TORSDOF 8
ENDMDL
MODEL 6
REMARK VINA RESULT:    -6.137      3.639      7.809
REMARK INTER + INTRA:          -9.596
REMARK INTER:                  -8.755
REMARK INTRA:                  -0.841
REMARK UNBOUND:                -0.769
REMARK  Name = 
REMARK  8 active torsions:
REMARK  status: ('A' for Active; 'I' for Inactive)
REMARK    1  A    between atoms: C_2  and  C_3
REMARK    2  A    between atoms: N_7  and  C_8
REMARK    3  A    between atoms: C_8  and  C_9
REMARK    4  A    between atoms: C_9  and  C_10
REMARK    5  A    between atoms: C_9  and  C_12
REMARK    6  A    between atoms: C_10  and  O_11
REMARK    7  A    between atoms: C_17  and  O_18
REMARK    8  A    between atoms: O_18  and  C_19
REMARK                            x       y       z     vdW  Elec       q    Type
REMARK                         _______ _______ _______ _____ _____    ______ ____
ROOT
ATOM      1  C   UNL     1      48.936   7.000  14.609  0.00  0.00    +0.000 C 
ENDROOT
BRANCH   1   2
ATOM      2  C   UNL     1      47.689   7.339  13.791  0.00  0.00    +0.000 A 
ATOM      3  C   UNL     1      47.188   8.637  13.676  0.00  0.00    +0.000 A 
ATOM      4  C   UNL     1      46.076   8.891  12.869  0.00  0.00    +0.000 A 
ATOM      5  C   UNL     1      45.424   7.858  12.177  0.00  0.00    +0.000 A 
ATOM      6 CL   UNL     1      44.144   8.360  11.135  0.00  0.00    +0.000 Cl
ATOM      7  C   UNL     1      45.866   6.540  12.321  0.00  0.00    +0.000 A 
ATOM      8  C   UNL     1      47.003   6.305  13.120  0.00  0.00    +0.000 A 
BRANCH   7   9
ATOM      9  O   UNL     1      45.395   5.391  11.723  0.00  0.00    +0.000 OA
BRANCH   9  10
ATOM     10  C   UNL     1      44.177   4.746  12.164  0.00  0.00    +0.000 C 
ATOM     11  C   UNL     1      44.160   3.210  12.297  0.00  0.00    +0.000 C 
ATOM     12  N   UNL     1      42.948   3.129  11.469  0.00  0.00    +0.000 NA
ATOM     13  C   UNL     1      43.097   4.538  11.075  0.00  0.00    +0.000 C 
ATOM     14  H   UNL     1      42.096   2.934  11.994  0.00  0.00    +0.000 HD
ENDBRANCH   9  10
ENDBRANCH   7   9
ENDBRANCH   1   2
BRANCH   1  15
ATOM     15  C   UNL     1      48.660   7.058  16.133  0.00  0.00    +0.000 C 
BRANCH  15  20
ATOM     16  C   UNL     1      50.848   2.628  17.458  0.00  0.00    +0.000 A 
ATOM     17  C   UNL     1      51.333   3.926  17.581  0.00  0.00    +0.000 A 
ATOM     18  C   UNL     1      50.489   5.004  17.294  0.00  0.00    +0.000 A 
ATOM     19  C   UNL     1      49.182   4.768  16.880  0.00  0.00    +0.000 A 
ATOM     20  N   UNL     1      48.248   5.768  16.673  0.00  0.00    +0.000 N 
ATOM     21  N   UNL     1      48.711   3.513  16.742  0.00  0.00    +0.000 NA
ATOM     22  C   UNL     1      49.540   2.476  17.032  0.00  0.00    +0.000 A 
ATOM     23  H   UNL     1      47.458   5.326  16.202  0.00  0.00    +0.000 HD
BRANCH  16  25
ATOM     24  N   UNL     1      52.314   0.571  18.034  0.00  0.00    +0.000 NA
ATOM     25  C   UNL     1      51.656   1.493  17.770  0.00  0.00    +0.000 C 
ENDBRANCH  16  25
ENDBRANCH  15  20
ENDBRANCH   1  15
BRANCH   1  26
ATOM     26  C   UNL     1      50.217   7.787  14.256  0.00  0.00    +0.000 C 
BRANCH  26  27
ATOM     27  O   UNL     1      50.628   7.538  12.912  0.00  0.00    +0.000 OA
ATOM     28  H   UNL     1      50.459   8.344  12.394  0.00  0.00    +0.000 HD
ENDBRANCH  26  27
ENDBRANCH   1  26
TORSDOF 8
ENDMDL
MODEL 7
REMARK VINA RESULT:    -6.114      3.770      5.510
REMARK INTER + INTRA:          -9.564
REMARK INTER:                  -8.612
REMARK INTRA:                  -0.951
REMARK UNBOUND:                -0.769
REMARK  Name = 
REMARK  8 active torsions:
REMARK  status: ('A' for Active; 'I' for Inactive)
REMARK    1  A    between atoms: C_2  and  C_3
REMARK    2  A    between atoms: N_7  and  C_8
REMARK    3  A    between atoms: C_8  and  C_9
REMARK    4  A    between atoms: C_9  and  C_10
REMARK    5  A    between atoms: C_9  and  C_12
REMARK    6  A    between atoms: C_10  and  O_11
REMARK    7  A    between atoms: C_17  and  O_18
REMARK    8  A    between atoms: O_18  and  C_19
REMARK                            x       y       z     vdW  Elec       q    Type
REMARK                         _______ _______ _______ _____ _____    ______ ____
ROOT
ATOM      1  C   UNL     1      48.805   7.778  14.669  0.00  0.00    +0.000 C 
ENDROOT
BRANCH   1   2
ATOM      2  C   UNL     1      49.705   6.976  15.611  0.00  0.00    +0.000 A 
ATOM      3  C   UNL     1      51.088   7.161  15.678  0.00  0.00    +0.000 A 
ATOM      4  C   UNL     1      51.848   6.435  16.598  0.00  0.00    +0.000 A 
ATOM      5  C   UNL     1      51.256   5.493  17.454  0.00  0.00    +0.000 A 
ATOM      6 CL   UNL     1      52.319   4.772  18.607  0.00  0.00    +0.000 Cl
ATOM      7  C   UNL     1      49.885   5.243  17.367  0.00  0.00    +0.000 A 
ATOM      8  C   UNL     1      49.128   6.001  16.451  0.00  0.00    +0.000 A 
BRANCH   7   9
ATOM      9  O   UNL     1      49.103   4.390  18.118  0.00  0.00    +0.000 OA
BRANCH   9  10
ATOM     10  C   UNL     1      49.014   2.976  17.819  0.00  0.00    +0.000 C 
ATOM     11  C   UNL     1      50.251   2.264  17.238  0.00  0.00    +0.000 C 
ATOM     12  N   UNL     1      49.449   1.726  16.129  0.00  0.00    +0.000 NA
ATOM     13  C   UNL     1      48.332   2.618  16.477  0.00  0.00    +0.000 C 
ATOM     14  H   UNL     1      49.230   0.734  16.217  0.00  0.00    +0.000 HD
ENDBRANCH   9  10
ENDBRANCH   7   9
ENDBRANCH   1   2
BRANCH   1  15
ATOM     15  C   UNL     1      48.786   7.180  13.240  0.00  0.00    +0.000 C 
BRANCH  15  20
ATOM     16  C   UNL     1      44.838   4.178  11.991  0.00  0.00    +0.000 A 
ATOM     17  C   UNL     1      45.672   4.126  13.103  0.00  0.00    +0.000 A 
ATOM     18  C   UNL     1      46.595   5.154  13.317  0.00  0.00    +0.000 A 
ATOM     19  C   UNL     1      46.677   6.209  12.414  0.00  0.00    +0.000 A 
ATOM     20  N   UNL     1      47.485   7.318  12.596  0.00  0.00    +0.000 N 
ATOM     21  N   UNL     1      45.884   6.258  11.325  0.00  0.00    +0.000 NA
ATOM     22  C   UNL     1      44.987   5.255  11.135  0.00  0.00    +0.000 A 
ATOM     23  H   UNL     1      47.485   7.819  11.708  0.00  0.00    +0.000 HD
BRANCH  16  25
ATOM     24  N   UNL     1      43.048   2.358  11.547  0.00  0.00    +0.000 NA
ATOM     25  C   UNL     1      43.855   3.172  11.743  0.00  0.00    +0.000 C 
ENDBRANCH  16  25
ENDBRANCH  15  20
ENDBRANCH   1  15
BRANCH   1  26
ATOM     26  C   UNL     1      49.056   9.301  14.621  0.00  0.00    +0.000 C 
BRANCH  26  27
ATOM     27  O   UNL     1      47.997   9.983  13.949  0.00  0.00    +0.000 OA
ATOM     28  H   UNL     1      47.739  10.745  14.496  0.00  0.00    +0.000 HD
ENDBRANCH  26  27
ENDBRANCH   1  26
TORSDOF 8
ENDMDL
MODEL 8
REMARK VINA RESULT:    -6.113      3.714      5.477
REMARK INTER + INTRA:          -9.561
REMARK INTER:                  -8.460
REMARK INTRA:                  -1.102
REMARK UNBOUND:                -0.769
REMARK  Name = 
REMARK  8 active torsions:
REMARK  status: ('A' for Active; 'I' for Inactive)
REMARK    1  A    between atoms: C_2  and  C_3
REMARK    2  A    between atoms: N_7  and  C_8
REMARK    3  A    between atoms: C_8  and  C_9
REMARK    4  A    between atoms: C_9  and  C_10
REMARK    5  A    between atoms: C_9  and  C_12
REMARK    6  A    between atoms: C_10  and  O_11
REMARK    7  A    between atoms: C_17  and  O_18
REMARK    8  A    between atoms: O_18  and  C_19
REMARK                            x       y       z     vdW  Elec       q    Type
REMARK                         _______ _______ _______ _____ _____    ______ ____
ROOT
ATOM      1  C   UNL     1      49.197   8.349  13.904  0.00  0.00    +0.000 C 
ENDROOT
BRANCH   1   2
ATOM      2  C   UNL     1      49.008   7.852  15.339  0.00  0.00    +0.000 A 
ATOM      3  C   UNL     1      48.517   8.663  16.363  0.00  0.00    +0.000 A 
ATOM      4  C   UNL     1      48.317   8.135  17.641  0.00  0.00    +0.000 A 
ATOM      5  C   UNL     1      48.623   6.797  17.935  0.00  0.00    +0.000 A 
ATOM      6 CL   UNL     1      48.205   6.277  19.526  0.00  0.00    +0.000 Cl
ATOM      7  C   UNL     1      49.174   5.979  16.946  0.00  0.00    +0.000 A 
ATOM      8  C   UNL     1      49.346   6.520  15.656  0.00  0.00    +0.000 A 
BRANCH   7   9
ATOM      9  O   UNL     1      49.521   4.646  17.009  0.00  0.00    +0.000 OA
BRANCH   9  10
ATOM     10  C   UNL     1      48.549   3.594  16.804  0.00  0.00    +0.000 C 
ATOM     11  C   UNL     1      47.075   3.984  16.575  0.00  0.00    +0.000 C 
ATOM     12  N   UNL     1      46.644   3.068  17.642  0.00  0.00    +0.000 NA
ATOM     13  C   UNL     1      48.035   2.897  18.087  0.00  0.00    +0.000 C 
ATOM     14  H   UNL     1      46.208   2.210  17.304  0.00  0.00    +0.000 HD
ENDBRANCH   9  10
ENDBRANCH   7   9
ENDBRANCH   1   2
BRANCH   1  15
ATOM     15  C   UNL     1      48.938   7.228  12.866  0.00  0.00    +0.000 C 
BRANCH  15  20
ATOM     16  C   UNL     1      44.899   4.241  11.902  0.00  0.00    +0.000 A 
ATOM     17  C   UNL     1      45.748   4.253  13.004  0.00  0.00    +0.000 A 
ATOM     18  C   UNL     1      46.699   5.270  13.126  0.00  0.00    +0.000 A 
ATOM     19  C   UNL     1      46.793   6.251  12.144  0.00  0.00    +0.000 A 
ATOM     20  N   UNL     1      47.631   7.349  12.231  0.00  0.00    +0.000 N 
ATOM     21  N   UNL     1      45.986   6.236  11.065  0.00  0.00    +0.000 NA
ATOM     22  C   UNL     1      45.061   5.245  10.964  0.00  0.00    +0.000 A 
ATOM     23  H   UNL     1      47.630   7.781  11.306  0.00  0.00    +0.000 HD
BRANCH  16  25
ATOM     24  N   UNL     1      43.061   2.436  11.625  0.00  0.00    +0.000 NA
ATOM     25  C   UNL     1      43.888   3.245  11.744  0.00  0.00    +0.000 C 
ENDBRANCH  16  25
ENDBRANCH  15  20
ENDBRANCH   1  15
BRANCH   1  26
ATOM     26  C   UNL     1      50.528   9.073  13.604  0.00  0.00    +0.000 C 
BRANCH  26  27
ATOM     27  O   UNL     1      51.604   8.146  13.457  0.00  0.00    +0.000 OA
ATOM     28  H   UNL     1      51.220   7.269  13.283  0.00  0.00    +0.000 HD
ENDBRANCH  26  27
ENDBRANCH   1  26
TORSDOF 8
ENDMDL
MODEL 9
REMARK VINA RESULT:    -6.067      3.347      8.355
REMARK INTER + INTRA:          -9.496
REMARK INTER:                  -8.625
REMARK INTRA:                  -0.871
REMARK UNBOUND:                -0.769
REMARK  Name = 
REMARK  8 active torsions:
REMARK  status: ('A' for Active; 'I' for Inactive)
REMARK    1  A    between atoms: C_2  and  C_3
REMARK    2  A    between atoms: N_7  and  C_8
REMARK    3  A    between atoms: C_8  and  C_9
REMARK    4  A    between atoms: C_9  and  C_10
REMARK    5  A    between atoms: C_9  and  C_12
REMARK    6  A    between atoms: C_10  and  O_11
REMARK    7  A    between atoms: C_17  and  O_18
REMARK    8  A    between atoms: O_18  and  C_19
REMARK                            x       y       z     vdW  Elec       q    Type
REMARK                         _______ _______ _______ _____ _____    ______ ____
ROOT
ATOM      1  C   UNL     1      47.311   7.102  11.888  0.00  0.00    +0.000 C 
ENDROOT
BRANCH   1   2
ATOM      2  C   UNL     1      46.353   5.910  11.860  0.00  0.00    +0.000 A 
ATOM      3  C   UNL     1      46.099   5.115  12.979  0.00  0.00    +0.000 A 
ATOM      4  C   UNL     1      45.172   4.073  12.903  0.00  0.00    +0.000 A 
ATOM      5  C   UNL     1      44.495   3.781  11.708  0.00  0.00    +0.000 A 
ATOM      6 CL   UNL     1      43.302   2.541  11.819  0.00  0.00    +0.000 Cl
ATOM      7  C   UNL     1      44.775   4.521  10.556  0.00  0.00    +0.000 A 
ATOM      8  C   UNL     1      45.694   5.584  10.656  0.00  0.00    +0.000 A 
BRANCH   7   9
ATOM      9  O   UNL     1      44.217   4.423   9.299  0.00  0.00    +0.000 OA
BRANCH   9  10
ATOM     10  C   UNL     1      44.623   3.396   8.362  0.00  0.00    +0.000 C 
ATOM     11  C   UNL     1      45.285   2.116   8.910  0.00  0.00    +0.000 C 
ATOM     12  N   UNL     1      46.414   2.276   7.982  0.00  0.00    +0.000 NA
ATOM     13  C   UNL     1      45.973   3.639   7.647  0.00  0.00    +0.000 C 
ATOM     14  H   UNL     1      46.399   1.631   7.192  0.00  0.00    +0.000 HD
ENDBRANCH   9  10
ENDBRANCH   7   9
ENDBRANCH   1   2
BRANCH   1  15
ATOM     15  C   UNL     1      48.519   6.852  12.826  0.00  0.00    +0.000 C 
BRANCH  15  20
ATOM     16  C   UNL     1      48.634   7.758  17.858  0.00  0.00    +0.000 A 
ATOM     17  C   UNL     1      49.018   6.621  17.155  0.00  0.00    +0.000 A 
ATOM     18  C   UNL     1      49.046   6.656  15.758  0.00  0.00    +0.000 A 
ATOM     19  C   UNL     1      48.681   7.819  15.087  0.00  0.00    +0.000 A 
ATOM     20  N   UNL     1      48.775   7.978  13.715  0.00  0.00    +0.000 N 
ATOM     21  N   UNL     1      48.291   8.919  15.761  0.00  0.00    +0.000 NA
ATOM     22  C   UNL     1      48.277   8.872  17.119  0.00  0.00    +0.000 A 
ATOM     23  H   UNL     1      48.271   8.837  13.494  0.00  0.00    +0.000 HD
BRANCH  16  25
ATOM     24  N   UNL     1      48.608   7.803  20.448  0.00  0.00    +0.000 NA
ATOM     25  C   UNL     1      48.620   7.789  19.286  0.00  0.00    +0.000 C 
ENDBRANCH  16  25
ENDBRANCH  15  20
ENDBRANCH   1  15
BRANCH   1  26
ATOM     26  C   UNL     1      46.673   8.480  12.175  0.00  0.00    +0.000 C 
BRANCH  26  27
ATOM     27  O   UNL     1      45.756   8.413  13.267  0.00  0.00    +0.000 OA
ATOM     28  H   UNL     1      46.252   8.590  14.085  0.00  0.00    +0.000 HD
ENDBRANCH  26  27
ENDBRANCH   1  26
TORSDOF 8
ENDMDL
