MODEL 1
REMARK VINA RESULT:    -8.456      0.000      0.000
REMARK INTER + INTRA:         -11.017
REMARK INTER:                 -10.434
REMARK INTRA:                  -0.584
REMARK UNBOUND:                -0.584
REMARK  Name = 
REMARK  4 active torsions:
REMARK  status: ('A' for Active; 'I' for Inactive)
REMARK    1  A    between atoms: C_2  and  C_4
REMARK    2  A    between atoms: C_7  and  C_8
REMARK    3  A    between atoms: C_8  and  N_9
REMARK    4  A    between atoms: N_9  and  C_10
REMARK                            x       y       z     vdW  Elec       q    Type
REMARK                         _______ _______ _______ _____ _____    ______ ____
ROOT
ATOM      1  N   UNL     1      43.762   4.279  11.498  0.00  0.00    +0.000 N 
ATOM      2  H   UNL     1      43.488   3.298  11.521  0.00  0.00    +0.000 HD
ENDROOT
BRANCH   1   3
ATOM      3  C   UNL     1      44.889   4.510  12.299  0.00  0.00    +0.000 A 
ATOM      4  C   UNL     1      45.654   3.508  12.878  0.00  0.00    +0.000 A 
ATOM      5  C   UNL     1      46.815   3.864  13.546  0.00  0.00    +0.000 A 
ATOM      6  N   UNL     1      47.272   5.131  13.653  0.00  0.00    +0.000 NA
ATOM      7  C   UNL     1      46.555   6.116  13.082  0.00  0.00    +0.000 A 
ATOM      8  N   UNL     1      47.028   7.403  13.132  0.00  0.00    +0.000 N 
ATOM      9  C   UNL     1      46.168   8.583  13.217  0.00  0.00    +0.000 C 
ATOM     10  C   UNL     1      46.706   9.633  12.231  0.00  0.00    +0.000 C 
ATOM     11  O   UNL     1      48.082   9.952  12.507  0.00  0.00    +0.000 OA
ATOM     12  C   UNL     1      48.905   8.769  12.433  0.00  0.00    +0.000 C 
ATOM     13  C   UNL     1      48.439   7.676  13.417  0.00  0.00    +0.000 C 
ATOM     14  C   UNL     1      45.382   5.817  12.384  0.00  0.00    +0.000 A 
ENDBRANCH   1   3
BRANCH   1  15
ATOM     15  C   UNL     1      43.768   4.769  10.119  0.00  0.00    +0.000 C 
BRANCH  15  19
ATOM     16  C   UNL     1      46.470   2.515   7.690  0.00  0.00    +0.000 A 
ATOM     17  C   UNL     1      45.644   1.836   8.585  0.00  0.00    +0.000 A 
ATOM     18  C   UNL     1      44.765   2.564   9.387  0.00  0.00    +0.000 A 
ATOM     19  C   UNL     1      44.731   3.956   9.273  0.00  0.00    +0.000 A 
ATOM     20  N   UNL     1      45.545   4.632   8.422  0.00  0.00    +0.000 NA
ATOM     21  C   UNL     1      46.397   3.902   7.658  0.00  0.00    +0.000 A 
BRANCH  16  23
ATOM     22  N   UNL     1      48.502   2.558   6.359  0.00  0.00    +0.000 N 
ATOM     23  C   UNL     1      47.427   1.834   6.796  0.00  0.00    +0.000 C 
ATOM     24  O   UNL     1      47.286   0.660   6.485  0.00  0.00    +0.000 OA
ATOM     25  H   UNL     1      49.201   2.047   5.833  0.00  0.00    +0.000 HD
ATOM     26  H   UNL     1      48.783   3.429   6.784  0.00  0.00    +0.000 HD
ENDBRANCH  16  23
ENDBRANCH  15  19
ENDBRANCH   1  15
TORSDOF 4
ENDMDL
MODEL 2
REMARK VINA RESULT:    -8.315      2.371      3.333
REMARK INTER + INTRA:         -10.843
REMARK INTER:                 -10.421
REMARK INTRA:                  -0.422
REMARK UNBOUND:                -0.584
REMARK  Name = 
REMARK  4 active torsions:
REMARK  status: ('A' for Active; 'I' for Inactive)
REMARK    1  A    between atoms: C_2  and  C_4
REMARK    2  A    between atoms: C_7  and  C_8
REMARK    3  A    between atoms: C_8  and  N_9
REMARK    4  A    between atoms: N_9  and  C_10
REMARK                            x       y       z     vdW  Elec       q    Type
REMARK                         _______ _______ _______ _____ _____    ______ ____
ROOT
ATOM      1  N   UNL     1      44.378   4.515  11.822  0.00  0.00    +0.000 N 
ATOM      2  H   UNL     1      44.364   3.517  12.023  0.00  0.00    +0.000 HD
ENDROOT
BRANCH   1   3
ATOM      3  C   UNL     1      45.544   5.117  12.316  0.00  0.00    +0.000 A 
ATOM      4  C   UNL     1      46.134   6.245  11.764  0.00  0.00    +0.000 A 
ATOM      5  C   UNL     1      47.215   6.814  12.419  0.00  0.00    +0.000 A 
ATOM      6  N   UNL     1      47.723   6.358  13.585  0.00  0.00    +0.000 NA
ATOM      7  C   UNL     1      47.154   5.275  14.147  0.00  0.00    +0.000 A 
ATOM      8  N   UNL     1      47.619   4.826  15.356  0.00  0.00    +0.000 N 
ATOM      9  C   UNL     1      47.643   3.417  15.748  0.00  0.00    +0.000 C 
ATOM     10  C   UNL     1      47.132   3.318  17.193  0.00  0.00    +0.000 C 
ATOM     11  O   UNL     1      47.918   4.133  18.082  0.00  0.00    +0.000 OA
ATOM     12  C   UNL     1      47.892   5.514  17.666  0.00  0.00    +0.000 C 
ATOM     13  C   UNL     1      48.417   5.696  16.226  0.00  0.00    +0.000 C 
ATOM     14  C   UNL     1      46.053   4.665  13.539  0.00  0.00    +0.000 A 
ENDBRANCH   1   3
BRANCH   1  15
ATOM     15  C   UNL     1      44.002   4.755  10.427  0.00  0.00    +0.000 C 
BRANCH  15  19
ATOM     16  C   UNL     1      46.448   2.478   7.760  0.00  0.00    +0.000 A 
ATOM     17  C   UNL     1      45.675   1.804   8.705  0.00  0.00    +0.000 A 
ATOM     18  C   UNL     1      44.881   2.539   9.585  0.00  0.00    +0.000 A 
ATOM     19  C   UNL     1      44.875   3.933   9.496  0.00  0.00    +0.000 A 
ATOM     20  N   UNL     1      45.638   4.604   8.595  0.00  0.00    +0.000 NA
ATOM     21  C   UNL     1      46.409   3.866   7.756  0.00  0.00    +0.000 A 
BRANCH  16  23
ATOM     22  N   UNL     1      48.346   2.507   6.243  0.00  0.00    +0.000 N 
ATOM     23  C   UNL     1      47.314   1.789   6.783  0.00  0.00    +0.000 C 
ATOM     24  O   UNL     1      47.142   0.613   6.493  0.00  0.00    +0.000 OA
ATOM     25  H   UNL     1      48.990   1.991   5.656  0.00  0.00    +0.000 HD
ATOM     26  H   UNL     1      48.667   3.380   6.635  0.00  0.00    +0.000 HD
ENDBRANCH  16  23
ENDBRANCH  15  19
ENDBRANCH   1  15
TORSDOF 4
ENDMDL
MODEL 3
REMARK VINA RESULT:    -7.617      1.646      2.526
REMARK INTER + INTRA:          -9.982
REMARK INTER:                  -9.568
REMARK INTRA:                  -0.414
REMARK UNBOUND:                -0.584
REMARK  Name = 
REMARK  4 active torsions:
REMARK  status: ('A' for Active; 'I' for Inactive)
REMARK    1  A    between atoms: C_2  and  C_4
REMARK    2  A    between atoms: C_7  and  C_8
REMARK    3  A    between atoms: C_8  and  N_9
REMARK    4  A    between atoms: N_9  and  C_10
REMARK                            x       y       z     vdW  Elec       q    Type
REMARK                         _______ _______ _______ _____ _____    ______ ____
ROOT
ATOM      1  N   UNL     1      44.466   5.069  11.541  0.00  0.00    +0.000 N 
ATOM      2  H   UNL     1      45.157   4.357  11.774  0.00  0.00    +0.000 HD
ENDROOT
BRANCH   1   3
ATOM      3  C   UNL     1      44.979   6.359  11.738  0.00  0.00    +0.000 A 
ATOM      4  C   UNL     1      44.370   7.518  11.282  0.00  0.00    +0.000 A 
ATOM      5  C   UNL     1      44.914   8.739  11.648  0.00  0.00    +0.000 A 
ATOM      6  N   UNL     1      45.993   8.882  12.448  0.00  0.00    +0.000 NA
ATOM      7  C   UNL     1      46.588   7.769  12.917  0.00  0.00    +0.000 A 
ATOM      8  N   UNL     1      47.652   7.890  13.774  0.00  0.00    +0.000 N 
ATOM      9  C   UNL     1      48.773   6.951  13.818  0.00  0.00    +0.000 C 
ATOM     10  C   UNL     1      49.081   6.650  15.293  0.00  0.00    +0.000 C 
ATOM     11  O   UNL     1      49.364   7.856  16.025  0.00  0.00    +0.000 OA
ATOM     12  C   UNL     1      48.251   8.771  15.952  0.00  0.00    +0.000 C 
ATOM     13  C   UNL     1      47.899   9.141  14.497  0.00  0.00    +0.000 C 
ATOM     14  C   UNL     1      46.077   6.509  12.592  0.00  0.00    +0.000 A 
ENDBRANCH   1   3
BRANCH   1  15
ATOM     15  C   UNL     1      43.830   4.755  10.260  0.00  0.00    +0.000 C 
BRANCH  15  19
ATOM     16  C   UNL     1      46.465   2.504   7.757  0.00  0.00    +0.000 A 
ATOM     17  C   UNL     1      45.689   1.827   8.696  0.00  0.00    +0.000 A 
ATOM     18  C   UNL     1      44.832   2.554   9.523  0.00  0.00    +0.000 A 
ATOM     19  C   UNL     1      44.771   3.942   9.388  0.00  0.00    +0.000 A 
ATOM     20  N   UNL     1      45.536   4.617   8.492  0.00  0.00    +0.000 NA
ATOM     21  C   UNL     1      46.368   3.888   7.705  0.00  0.00    +0.000 A 
BRANCH  16  23
ATOM     22  N   UNL     1      48.466   2.542   6.378  0.00  0.00    +0.000 N 
ATOM     23  C   UNL     1      47.395   1.823   6.834  0.00  0.00    +0.000 C 
ATOM     24  O   UNL     1      47.238   0.652   6.516  0.00  0.00    +0.000 OA
ATOM     25  H   UNL     1      49.148   2.030   5.831  0.00  0.00    +0.000 HD
ATOM     26  H   UNL     1      48.763   3.407   6.804  0.00  0.00    +0.000 HD
ENDBRANCH  16  23
ENDBRANCH  15  19
ENDBRANCH   1  15
TORSDOF 4
ENDMDL
MODEL 4
REMARK VINA RESULT:    -7.161      4.290      7.886
REMARK INTER + INTRA:          -9.419
REMARK INTER:                  -9.071
REMARK INTRA:                  -0.348
REMARK UNBOUND:                -0.584
REMARK  Name = 
REMARK  4 active torsions:
REMARK  status: ('A' for Active; 'I' for Inactive)
REMARK    1  A    between atoms: C_2  and  C_4
REMARK    2  A    between atoms: C_7  and  C_8
REMARK    3  A    between atoms: C_8  and  N_9
REMARK    4  A    between atoms: N_9  and  C_10
REMARK                            x       y       z     vdW  Elec       q    Type
REMARK                         _______ _______ _______ _____ _____    ______ ____
ROOT
ATOM      1  N   UNL     1      46.836   3.742  15.045  0.00  0.00    +0.000 N 
ATOM      2  H   UNL     1      46.053   3.114  15.221  0.00  0.00    +0.000 HD
ENDROOT
BRANCH   1   3
ATOM      3  C   UNL     1      46.552   4.624  13.992  0.00  0.00    +0.000 A 
ATOM      4  C   UNL     1      46.991   5.938  13.937  0.00  0.00    +0.000 A 
ATOM      5  C   UNL     1      46.746   6.669  12.785  0.00  0.00    +0.000 A 
ATOM      6  N   UNL     1      46.126   6.178  11.690  0.00  0.00    +0.000 NA
ATOM      7  C   UNL     1      45.709   4.898  11.717  0.00  0.00    +0.000 A 
ATOM      8  N   UNL     1      45.124   4.363  10.598  0.00  0.00    +0.000 N 
ATOM      9  C   UNL     1      44.064   3.356  10.636  0.00  0.00    +0.000 C 
ATOM     10  C   UNL     1      44.393   2.280   9.589  0.00  0.00    +0.000 C 
ATOM     11  O   UNL     1      44.538   2.855   8.277  0.00  0.00    +0.000 OA
ATOM     12  C   UNL     1      45.578   3.855   8.270  0.00  0.00    +0.000 C 
ATOM     13  C   UNL     1      45.302   4.986   9.283  0.00  0.00    +0.000 C 
ATOM     14  C   UNL     1      45.938   4.108  12.846  0.00  0.00    +0.000 A 
ENDBRANCH   1   3
BRANCH   1  15
ATOM     15  C   UNL     1      47.336   4.292  16.306  0.00  0.00    +0.000 C 
BRANCH  15  19
ATOM     16  C   UNL     1      50.989   2.359  17.401  0.00  0.00    +0.000 A 
ATOM     17  C   UNL     1      50.767   3.668  17.828  0.00  0.00    +0.000 A 
ATOM     18  C   UNL     1      49.581   4.309  17.468  0.00  0.00    +0.000 A 
ATOM     19  C   UNL     1      48.644   3.624  16.692  0.00  0.00    +0.000 A 
ATOM     20  N   UNL     1      48.856   2.358  16.252  0.00  0.00    +0.000 NA
ATOM     21  C   UNL     1      50.021   1.758  16.608  0.00  0.00    +0.000 A 
BRANCH  16  23
ATOM     22  N   UNL     1      52.045   0.299  18.141  0.00  0.00    +0.000 N 
ATOM     23  C   UNL     1      52.207   1.596  17.735  0.00  0.00    +0.000 C 
ATOM     24  O   UNL     1      53.322   2.087  17.620  0.00  0.00    +0.000 OA
ATOM     25  H   UNL     1      52.893  -0.240  18.265  0.00  0.00    +0.000 HD
ATOM     26  H   UNL     1      51.183  -0.209  18.009  0.00  0.00    +0.000 HD
ENDBRANCH  16  23
ENDBRANCH  15  19
ENDBRANCH   1  15
TORSDOF 4
ENDMDL
MODEL 5
REMARK VINA RESULT:    -6.192      2.057      3.040
REMARK INTER + INTRA:          -8.224
REMARK INTER:                  -7.893
REMARK INTRA:                  -0.331
REMARK UNBOUND:                -0.584
REMARK  Name = 
REMARK  4 active torsions:
REMARK  status: ('A' for Active; 'I' for Inactive)
REMARK    1  A    between atoms: C_2  and  C_4
REMARK    2  A    between atoms: C_7  and  C_8
REMARK    3  A    between atoms: C_8  and  N_9
REMARK    4  A    between atoms: N_9  and  C_10
REMARK                            x       y       z     vdW  Elec       q    Type
REMARK                         _______ _______ _______ _____ _____    ______ ____
ROOT
ATOM      1  N   UNL     1      45.672   5.673  11.270  0.00  0.00    +0.000 N 
ATOM      2  H   UNL     1      46.571   5.220  11.120  0.00  0.00    +0.000 HD
ENDROOT
BRANCH   1   3
ATOM      3  C   UNL     1      45.829   7.044  11.524  0.00  0.00    +0.000 A 
ATOM      4  C   UNL     1      44.790   7.963  11.512  0.00  0.00    +0.000 A 
ATOM      5  C   UNL     1      45.057   9.267  11.899  0.00  0.00    +0.000 A 
ATOM      6  N   UNL     1      46.265   9.704  12.317  0.00  0.00    +0.000 NA
ATOM      7  C   UNL     1      47.282   8.823  12.354  0.00  0.00    +0.000 A 
ATOM      8  N   UNL     1      48.503   9.231  12.825  0.00  0.00    +0.000 N 
ATOM      9  C   UNL     1      49.780   8.719  12.328  0.00  0.00    +0.000 C 
ATOM     10  C   UNL     1      50.681   8.434  13.540  0.00  0.00    +0.000 C 
ATOM     11  O   UNL     1      50.855   9.613  14.349  0.00  0.00    +0.000 OA
ATOM     12  C   UNL     1      49.582  10.107  14.813  0.00  0.00    +0.000 C 
ATOM     13  C   UNL     1      48.629  10.439  13.645  0.00  0.00    +0.000 C 
ATOM     14  C   UNL     1      47.071   7.491  11.987  0.00  0.00    +0.000 A 
ENDBRANCH   1   3
BRANCH   1  15
ATOM     15  C   UNL     1      44.717   5.255  10.242  0.00  0.00    +0.000 C 
BRANCH  15  19
ATOM     16  C   UNL     1      46.429   2.165   7.834  0.00  0.00    +0.000 A 
ATOM     17  C   UNL     1      46.708   3.494   7.520  0.00  0.00    +0.000 A 
ATOM     18  C   UNL     1      46.147   4.509   8.296  0.00  0.00    +0.000 A 
ATOM     19  C   UNL     1      45.322   4.170   9.369  0.00  0.00    +0.000 A 
ATOM     20  N   UNL     1      45.023   2.881   9.674  0.00  0.00    +0.000 NA
ATOM     21  C   UNL     1      45.575   1.912   8.899  0.00  0.00    +0.000 A 
BRANCH  16  23
ATOM     22  N   UNL     1      46.798  -0.226   7.608  0.00  0.00    +0.000 N 
ATOM     23  C   UNL     1      46.979   1.023   7.079  0.00  0.00    +0.000 C 
ATOM     24  O   UNL     1      47.544   1.178   6.004  0.00  0.00    +0.000 OA
ATOM     25  H   UNL     1      47.089  -1.004   7.028  0.00  0.00    +0.000 HD
ATOM     26  H   UNL     1      46.135  -0.415   8.345  0.00  0.00    +0.000 HD
ENDBRANCH  16  23
ENDBRANCH  15  19
ENDBRANCH   1  15
TORSDOF 4
ENDMDL
MODEL 6
REMARK VINA RESULT:    -6.159      4.175      5.450
REMARK INTER + INTRA:          -8.183
REMARK INTER:                  -7.846
REMARK INTRA:                  -0.337
REMARK UNBOUND:                -0.584
REMARK  Name = 
REMARK  4 active torsions:
REMARK  status: ('A' for Active; 'I' for Inactive)
REMARK    1  A    between atoms: C_2  and  C_4
REMARK    2  A    between atoms: C_7  and  C_8
REMARK    3  A    between atoms: C_8  and  N_9
REMARK    4  A    between atoms: N_9  and  C_10
REMARK                            x       y       z     vdW  Elec       q    Type
REMARK                         _______ _______ _______ _____ _____    ______ ____
ROOT
ATOM      1  N   UNL     1      46.991   3.803  15.449  0.00  0.00    +0.000 N 
ATOM      2  H   UNL     1      47.414   3.009  14.972  0.00  0.00    +0.000 HD
ENDROOT
BRANCH   1   3
ATOM      3  C   UNL     1      47.488   3.936  16.754  0.00  0.00    +0.000 A 
ATOM      4  C   UNL     1      47.818   2.868  17.575  0.00  0.00    +0.000 A 
ATOM      5  C   UNL     1      48.414   3.133  18.797  0.00  0.00    +0.000 A 
ATOM      6  N   UNL     1      48.724   4.372  19.239  0.00  0.00    +0.000 NA
ATOM      7  C   UNL     1      48.429   5.421  18.449  0.00  0.00    +0.000 A 
ATOM      8  N   UNL     1      48.782   6.683  18.854  0.00  0.00    +0.000 N 
ATOM      9  C   UNL     1      48.006   7.884  18.546  0.00  0.00    +0.000 C 
ATOM     10  C   UNL     1      48.986   8.982  18.106  0.00  0.00    +0.000 C 
ATOM     11  O   UNL     1      49.979   9.232  19.118  0.00  0.00    +0.000 OA
ATOM     12  C   UNL     1      50.719   8.030  19.415  0.00  0.00    +0.000 C 
ATOM     13  C   UNL     1      49.800   6.885  19.889  0.00  0.00    +0.000 C 
ATOM     14  C   UNL     1      47.838   5.215  17.200  0.00  0.00    +0.000 A 
ENDBRANCH   1   3
BRANCH   1  15
ATOM     15  C   UNL     1      46.993   4.977  14.574  0.00  0.00    +0.000 C 
BRANCH  15  19
ATOM     16  C   UNL     1      44.980   4.054  10.917  0.00  0.00    +0.000 A 
ATOM     17  C   UNL     1      45.586   5.302  11.054  0.00  0.00    +0.000 A 
ATOM     18  C   UNL     1      46.238   5.615  12.247  0.00  0.00    +0.000 A 
ATOM     19  C   UNL     1      46.271   4.670  13.275  0.00  0.00    +0.000 A 
ATOM     20  N   UNL     1      45.666   3.459  13.164  0.00  0.00    +0.000 NA
ATOM     21  C   UNL     1      45.031   3.182  11.996  0.00  0.00    +0.000 A 
BRANCH  16  23
ATOM     22  N   UNL     1      43.943   4.600   8.789  0.00  0.00    +0.000 N 
ATOM     23  C   UNL     1      44.273   3.628   9.694  0.00  0.00    +0.000 C 
ATOM     24  O   UNL     1      44.022   2.451   9.477  0.00  0.00    +0.000 OA
ATOM     25  H   UNL     1      43.553   4.279   7.911  0.00  0.00    +0.000 HD
ATOM     26  H   UNL     1      44.345   5.525   8.811  0.00  0.00    +0.000 HD
ENDBRANCH  16  23
ENDBRANCH  15  19
ENDBRANCH   1  15
TORSDOF 4
ENDMDL
MODEL 7
REMARK VINA RESULT:    -5.916      3.879      8.430
REMARK INTER + INTRA:          -7.883
REMARK INTER:                  -7.299
REMARK INTRA:                  -0.584
REMARK UNBOUND:                -0.584
REMARK  Name = 
REMARK  4 active torsions:
REMARK  status: ('A' for Active; 'I' for Inactive)
REMARK    1  A    between atoms: C_2  and  C_4
REMARK    2  A    between atoms: C_7  and  C_8
REMARK    3  A    between atoms: C_8  and  N_9
REMARK    4  A    between atoms: N_9  and  C_10
REMARK                            x       y       z     vdW  Elec       q    Type
REMARK                         _______ _______ _______ _____ _____    ______ ____
ROOT
ATOM      1  N   UNL     1      49.205   6.985  13.677  0.00  0.00    +0.000 N 
ATOM      2  H   UNL     1      49.313   5.973  13.730  0.00  0.00    +0.000 HD
ENDROOT
BRANCH   1   3
ATOM      3  C   UNL     1      47.874   7.341  13.420  0.00  0.00    +0.000 A 
ATOM      4  C   UNL     1      47.421   8.648  13.321  0.00  0.00    +0.000 A 
ATOM      5  C   UNL     1      46.106   8.867  12.942  0.00  0.00    +0.000 A 
ATOM      6  N   UNL     1      45.232   7.885  12.633  0.00  0.00    +0.000 NA
ATOM      7  C   UNL     1      45.656   6.609  12.704  0.00  0.00    +0.000 A 
ATOM      8  N   UNL     1      44.801   5.599  12.344  0.00  0.00    +0.000 N 
ATOM      9  C   UNL     1      44.798   4.275  12.966  0.00  0.00    +0.000 C 
ATOM     10  C   UNL     1      44.689   3.227  11.847  0.00  0.00    +0.000 C 
ATOM     11  O   UNL     1      43.515   3.443  11.042  0.00  0.00    +0.000 OA
ATOM     12  C   UNL     1      43.535   4.760  10.454  0.00  0.00    +0.000 C 
ATOM     13  C   UNL     1      43.618   5.870  11.522  0.00  0.00    +0.000 C 
ATOM     14  C   UNL     1      46.975   6.328  13.069  0.00  0.00    +0.000 A 
ENDBRANCH   1   3
BRANCH   1  15
ATOM     15  C   UNL     1      49.899   7.625  14.796  0.00  0.00    +0.000 C 
BRANCH  15  19
ATOM     16  C   UNL     1      48.657   5.831  18.472  0.00  0.00    +0.000 A 
ATOM     17  C   UNL     1      48.471   7.202  18.297  0.00  0.00    +0.000 A 
ATOM     18  C   UNL     1      48.881   7.797  17.104  0.00  0.00    +0.000 A 
ATOM     19  C   UNL     1      49.465   7.005  16.112  0.00  0.00    +0.000 A 
ATOM     20  N   UNL     1      49.671   5.674  16.277  0.00  0.00    +0.000 NA
ATOM     21  C   UNL     1      49.271   5.120  17.450  0.00  0.00    +0.000 A 
BRANCH  16  23
ATOM     22  N   UNL     1      48.555   3.778  19.768  0.00  0.00    +0.000 N 
ATOM     23  C   UNL     1      48.250   5.110  19.694  0.00  0.00    +0.000 C 
ATOM     24  O   UNL     1      47.696   5.684  20.621  0.00  0.00    +0.000 OA
ATOM     25  H   UNL     1      48.363   3.324  20.653  0.00  0.00    +0.000 HD
ATOM     26  H   UNL     1      49.219   3.336  19.150  0.00  0.00    +0.000 HD
ENDBRANCH  16  23
ENDBRANCH  15  19
ENDBRANCH   1  15
TORSDOF 4
ENDMDL
MODEL 8
REMARK VINA RESULT:    -5.747      4.476      6.312
REMARK INTER + INTRA:          -7.674
REMARK INTER:                  -7.192
REMARK INTRA:                  -0.482
REMARK UNBOUND:                -0.584
REMARK  Name = 
REMARK  4 active torsions:
REMARK  status: ('A' for Active; 'I' for Inactive)
REMARK    1  A    between atoms: C_2  and  C_4
REMARK    2  A    between atoms: C_7  and  C_8
REMARK    3  A    between atoms: C_8  and  N_9
REMARK    4  A    between atoms: N_9  and  C_10
REMARK                            x       y       z     vdW  Elec       q    Type
REMARK                         _______ _______ _______ _____ _____    ______ ____
ROOT
ATOM      1  N   UNL     1      46.690   3.787  15.493  0.00  0.00    +0.000 N 
ATOM      2  H   UNL     1      46.064   2.997  15.641  0.00  0.00    +0.000 HD
ENDROOT
BRANCH   1   3
ATOM      3  C   UNL     1      47.682   3.843  16.483  0.00  0.00    +0.000 A 
ATOM      4  C   UNL     1      48.563   2.809  16.763  0.00  0.00    +0.000 A 
ATOM      5  C   UNL     1      49.576   3.035  17.682  0.00  0.00    +0.000 A 
ATOM      6  N   UNL     1      49.783   4.212  18.311  0.00  0.00    +0.000 NA
ATOM      7  C   UNL     1      48.950   5.234  18.039  0.00  0.00    +0.000 A 
ATOM      8  N   UNL     1      49.173   6.453  18.626  0.00  0.00    +0.000 N 
ATOM      9  C   UNL     1      48.108   7.381  19.007  0.00  0.00    +0.000 C 
ATOM     10  C   UNL     1      48.528   8.791  18.566  0.00  0.00    +0.000 C 
ATOM     11  O   UNL     1      49.794   9.163  19.143  0.00  0.00    +0.000 OA
ATOM     12  C   UNL     1      50.822   8.225  18.767  0.00  0.00    +0.000 C 
ATOM     13  C   UNL     1      50.480   6.785  19.201  0.00  0.00    +0.000 C 
ATOM     14  C   UNL     1      47.917   5.070  17.113  0.00  0.00    +0.000 A 
ENDBRANCH   1   3
BRANCH   1  15
ATOM     15  C   UNL     1      47.097   3.851  14.087  0.00  0.00    +0.000 C 
BRANCH  15  19
ATOM     16  C   UNL     1      45.237   7.169  12.135  0.00  0.00    +0.000 A 
ATOM     17  C   UNL     1      46.620   7.183  12.314  0.00  0.00    +0.000 A 
ATOM     18  C   UNL     1      47.234   6.109  12.958  0.00  0.00    +0.000 A 
ATOM     19  C   UNL     1      46.450   5.043  13.404  0.00  0.00    +0.000 A 
ATOM     20  N   UNL     1      45.101   5.025  13.256  0.00  0.00    +0.000 NA
ATOM     21  C   UNL     1      44.526   6.086  12.634  0.00  0.00    +0.000 A 
BRANCH  16  23
ATOM     22  N   UNL     1      43.247   7.964  10.989  0.00  0.00    +0.000 N 
ATOM     23  C   UNL     1      44.497   8.255  11.462  0.00  0.00    +0.000 C 
ATOM     24  O   UNL     1      44.965   9.380  11.361  0.00  0.00    +0.000 OA
ATOM     25  H   UNL     1      42.714   8.744  10.624  0.00  0.00    +0.000 HD
ATOM     26  H   UNL     1      42.736   7.139  11.269  0.00  0.00    +0.000 HD
ENDBRANCH  16  23
ENDBRANCH  15  19
ENDBRANCH   1  15
TORSDOF 4
ENDMDL
MODEL 9
REMARK VINA RESULT:    -5.590      5.274      6.875
REMARK INTER + INTRA:          -7.480
REMARK INTER:                  -7.178
REMARK INTRA:                  -0.303
REMARK UNBOUND:                -0.584
REMARK  Name = 
REMARK  4 active torsions:
REMARK  status: ('A' for Active; 'I' for Inactive)
REMARK    1  A    between atoms: C_2  and  C_4
REMARK    2  A    between atoms: C_7  and  C_8
REMARK    3  A    between atoms: C_8  and  N_9
REMARK    4  A    between atoms: N_9  and  C_10
REMARK                            x       y       z     vdW  Elec       q    Type
REMARK                         _______ _______ _______ _____ _____    ______ ____
ROOT
ATOM      1  N   UNL     1      47.891   5.475  15.880  0.00  0.00    +0.000 N 
ATOM      2  H   UNL     1      47.364   6.332  15.720  0.00  0.00    +0.000 HD
ENDROOT
BRANCH   1   3
ATOM      3  C   UNL     1      48.412   5.433  17.181  0.00  0.00    +0.000 A 
ATOM      4  C   UNL     1      47.638   5.328  18.327  0.00  0.00    +0.000 A 
ATOM      5  C   UNL     1      48.280   5.173  19.546  0.00  0.00    +0.000 A 
ATOM      6  N   UNL     1      49.620   5.089  19.694  0.00  0.00    +0.000 NA
ATOM      7  C   UNL     1      50.388   5.170  18.592  0.00  0.00    +0.000 A 
ATOM      8  N   UNL     1      51.747   5.034  18.712  0.00  0.00    +0.000 N 
ATOM      9  C   UNL     1      52.714   5.734  17.866  0.00  0.00    +0.000 C 
ATOM     10  C   UNL     1      53.794   4.725  17.446  0.00  0.00    +0.000 C 
ATOM     11  O   UNL     1      54.423   4.126  18.594  0.00  0.00    +0.000 OA
ATOM     12  C   UNL     1      53.448   3.457  19.421  0.00  0.00    +0.000 C 
ATOM     13  C   UNL     1      52.340   4.417  19.902  0.00  0.00    +0.000 C 
ATOM     14  C   UNL     1      49.797   5.315  17.334  0.00  0.00    +0.000 A 
ENDBRANCH   1   3
BRANCH   1  15
ATOM     15  C   UNL     1      47.137   4.320  15.388  0.00  0.00    +0.000 C 
BRANCH  15  19
ATOM     16  C   UNL     1      45.677   5.012  11.429  0.00  0.00    +0.000 A 
ATOM     17  C   UNL     1      46.499   5.971  12.020  0.00  0.00    +0.000 A 
ATOM     18  C   UNL     1      46.973   5.757  13.314  0.00  0.00    +0.000 A 
ATOM     19  C   UNL     1      46.616   4.586  13.986  0.00  0.00    +0.000 A 
ATOM     20  N   UNL     1      45.800   3.654  13.433  0.00  0.00    +0.000 NA
ATOM     21  C   UNL     1      45.345   3.889  12.175  0.00  0.00    +0.000 A 
BRANCH  16  23
ATOM     22  N   UNL     1      43.795   4.906   9.896  0.00  0.00    +0.000 N 
ATOM     23  C   UNL     1      45.132   5.144  10.064  0.00  0.00    +0.000 C 
ATOM     24  O   UNL     1      45.836   5.487   9.124  0.00  0.00    +0.000 OA
ATOM     25  H   UNL     1      43.419   5.101   8.976  0.00  0.00    +0.000 HD
ATOM     26  H   UNL     1      43.147   4.868  10.668  0.00  0.00    +0.000 HD
ENDBRANCH  16  23
ENDBRANCH  15  19
ENDBRANCH   1  15
TORSDOF 4
ENDMDL
