MODEL 1
REMARK VINA RESULT:    -7.883      0.000      0.000
REMARK INTER + INTRA:         -11.126
REMARK INTER:                 -10.417
REMARK INTRA:                  -0.709
REMARK UNBOUND:                -0.709
REMARK  Name = 
REMARK  9 active torsions:
REMARK  status: ('A' for Active; 'I' for Inactive)
REMARK    1  A    between atoms: C_1  and  C_2
REMARK    2  A    between atoms: C_2  and  C_3
REMARK    3  A    between atoms: C_2  and  C_4
REMARK    4  A    between atoms: C_2  and  C_5
REMARK    5  A    between atoms: C_5  and  O_6
REMARK    6  A    between atoms: C_5  and  C_7
REMARK    7  A    between atoms: C_10  and  C_11
REMARK    8  A    between atoms: C_11  and  N_12
REMARK    9  A    between atoms: C_17  and  C_18
REMARK                            x       y       z     vdW  Elec       q    Type
REMARK                         _______ _______ _______ _____ _____    ______ ____
ROOT
ATOM      1  C   UNL     1      43.881   5.758  10.674  0.00  0.00    +0.000 C 
ENDROOT
BRANCH   1   2
ATOM      2  N   UNL     1      44.248   4.381  10.355  0.00  0.00    +0.000 N 
ATOM      3  C   UNL     1      43.667   3.265  10.915  0.00  0.00    +0.000 A 
ATOM      4  C   UNL     1      44.166   2.152  10.274  0.00  0.00    +0.000 A 
ATOM      5  C   UNL     1      45.070   2.602   9.276  0.00  0.00    +0.000 A 
ATOM      6  C   UNL     1      45.857   1.967   8.295  0.00  0.00    +0.000 A 
ATOM      7  C   UNL     1      46.618   2.775   7.448  0.00  0.00    +0.000 A 
ATOM      8  C   UNL     1      46.560   4.157   7.625  0.00  0.00    +0.000 A 
ATOM      9  N   UNL     1      45.819   4.822   8.557  0.00  0.00    +0.000 NA
ATOM     10  C   UNL     1      45.101   3.995   9.345  0.00  0.00    +0.000 A 
BRANCH   7  11
ATOM     11  C   UNL     1      47.473   2.244   6.354  0.00  0.00    +0.000 C 
ATOM     12  N   UNL     1      47.722   3.038   5.266  0.00  0.00    +0.000 N 
ATOM     13  O   UNL     1      47.957   1.121   6.412  0.00  0.00    +0.000 OA
ATOM     14  H   UNL     1      47.355   3.965   5.118  0.00  0.00    +0.000 HD
ATOM     15  H   UNL     1      48.306   2.645   4.542  0.00  0.00    +0.000 HD
ENDBRANCH   7  11
ENDBRANCH   1   2
BRANCH   1  19
ATOM     16  C   UNL     1      46.875   7.791  13.109  0.00  0.00    +0.000 A 
ATOM     17  C   UNL     1      46.960   6.417  12.832  0.00  0.00    +0.000 A 
ATOM     18  C   UNL     1      46.002   5.769  12.043  0.00  0.00    +0.000 A 
ATOM     19  C   UNL     1      44.927   6.476  11.495  0.00  0.00    +0.000 A 
ATOM     20  C   UNL     1      44.856   7.856  11.728  0.00  0.00    +0.000 A 
ATOM     21  C   UNL     1      45.821   8.505  12.517  0.00  0.00    +0.000 A 
BRANCH  16  22
ATOM     22  C   UNL     1      47.871   8.412  14.087  0.00  0.00    +0.000 C 
BRANCH  22  24
ATOM     23  C   UNL     1      48.665  10.758  13.532  0.00  0.00    +0.000 C 
ATOM     24  C   UNL     1      49.054   9.259  13.508  0.00  0.00    +0.000 C 
ATOM     25  C   UNL     1      49.371   8.891  12.048  0.00  0.00    +0.000 C 
ATOM     26  C   UNL     1      50.326   9.110  14.363  0.00  0.00    +0.000 C 
ENDBRANCH  22  24
BRANCH  22  27
ATOM     27  O   UNL     1      47.169   9.162  15.087  0.00  0.00    +0.000 OA
ATOM     28  H   UNL     1      47.676   9.966  15.271  0.00  0.00    +0.000 HD
ENDBRANCH  22  27
ENDBRANCH  16  22
ENDBRANCH   1  19
TORSDOF 6
ENDMDL
MODEL 2
REMARK VINA RESULT:    -7.193      1.418      2.031
REMARK INTER + INTRA:         -10.215
REMARK INTER:                  -9.616
REMARK INTRA:                  -0.599
REMARK UNBOUND:                -0.709
REMARK  Name = 
REMARK  9 active torsions:
REMARK  status: ('A' for Active; 'I' for Inactive)
REMARK    1  A    between atoms: C_1  and  C_2
REMARK    2  A    between atoms: C_2  and  C_3
REMARK    3  A    between atoms: C_2  and  C_4
REMARK    4  A    between atoms: C_2  and  C_5
REMARK    5  A    between atoms: C_5  and  O_6
REMARK    6  A    between atoms: C_5  and  C_7
REMARK    7  A    between atoms: C_10  and  C_11
REMARK    8  A    between atoms: C_11  and  N_12
REMARK    9  A    between atoms: C_17  and  C_18
REMARK                            x       y       z     vdW  Elec       q    Type
REMARK                         _______ _______ _______ _____ _____    ______ ____
ROOT
ATOM      1  C   UNL     1      44.422   6.278  11.220  0.00  0.00    +0.000 C 
ENDROOT
BRANCH   1   2
ATOM      2  N   UNL     1      44.464   4.880  10.799  0.00  0.00    +0.000 N 
ATOM      3  C   UNL     1      43.709   3.871  11.354  0.00  0.00    +0.000 A 
ATOM      4  C   UNL     1      43.909   2.726  10.614  0.00  0.00    +0.000 A 
ATOM      5  C   UNL     1      44.803   3.050   9.559  0.00  0.00    +0.000 A 
ATOM      6  C   UNL     1      45.356   2.336   8.478  0.00  0.00    +0.000 A 
ATOM      7  C   UNL     1      46.199   3.027   7.606  0.00  0.00    +0.000 A 
ATOM      8  C   UNL     1      46.447   4.376   7.857  0.00  0.00    +0.000 A 
ATOM      9  N   UNL     1      45.941   5.113   8.886  0.00  0.00    +0.000 NA
ATOM     10  C   UNL     1      45.132   4.398   9.696  0.00  0.00    +0.000 A 
BRANCH   7  11
ATOM     11  C   UNL     1      46.832   2.409   6.411  0.00  0.00    +0.000 C 
ATOM     12  N   UNL     1      47.091   3.195   5.320  0.00  0.00    +0.000 N 
ATOM     13  O   UNL     1      47.126   1.221   6.389  0.00  0.00    +0.000 OA
ATOM     14  H   UNL     1      46.869   4.175   5.235  0.00  0.00    +0.000 HD
ATOM     15  H   UNL     1      47.521   2.742   4.525  0.00  0.00    +0.000 HD
ENDBRANCH   7  11
ENDBRANCH   1   2
BRANCH   1  19
ATOM     16  C   UNL     1      47.901   7.495  13.554  0.00  0.00    +0.000 A 
ATOM     17  C   UNL     1      46.876   8.400  13.231  0.00  0.00    +0.000 A 
ATOM     18  C   UNL     1      45.757   8.004  12.489  0.00  0.00    +0.000 A 
ATOM     19  C   UNL     1      45.618   6.684  12.049  0.00  0.00    +0.000 A 
ATOM     20  C   UNL     1      46.612   5.762  12.402  0.00  0.00    +0.000 A 
ATOM     21  C   UNL     1      47.733   6.160  13.151  0.00  0.00    +0.000 A 
BRANCH  16  22
ATOM     22  C   UNL     1      49.160   8.017  14.244  0.00  0.00    +0.000 C 
BRANCH  22  24
ATOM     23  C   UNL     1      48.292   9.031  16.403  0.00  0.00    +0.000 C 
ATOM     24  C   UNL     1      49.232   7.953  15.807  0.00  0.00    +0.000 C 
ATOM     25  C   UNL     1      50.648   8.239  16.335  0.00  0.00    +0.000 C 
ATOM     26  C   UNL     1      48.749   6.591  16.339  0.00  0.00    +0.000 C 
ENDBRANCH  22  24
BRANCH  22  27
ATOM     27  O   UNL     1      50.321   7.403  13.670  0.00  0.00    +0.000 OA
ATOM     28  H   UNL     1      51.039   8.053  13.675  0.00  0.00    +0.000 HD
ENDBRANCH  22  27
ENDBRANCH  16  22
ENDBRANCH   1  19
TORSDOF 6
ENDMDL
MODEL 3
REMARK VINA RESULT:    -6.757      1.236      1.652
REMARK INTER + INTRA:          -9.639
REMARK INTER:                  -9.116
REMARK INTRA:                  -0.523
REMARK UNBOUND:                -0.709
REMARK  Name = 
REMARK  9 active torsions:
REMARK  status: ('A' for Active; 'I' for Inactive)
REMARK    1  A    between atoms: C_1  and  C_2
REMARK    2  A    between atoms: C_2  and  C_3
REMARK    3  A    between atoms: C_2  and  C_4
REMARK    4  A    between atoms: C_2  and  C_5
REMARK    5  A    between atoms: C_5  and  O_6
REMARK    6  A    between atoms: C_5  and  C_7
REMARK    7  A    between atoms: C_10  and  C_11
REMARK    8  A    between atoms: C_11  and  N_12
REMARK    9  A    between atoms: C_17  and  C_18
REMARK                            x       y       z     vdW  Elec       q    Type
REMARK                         _______ _______ _______ _____ _____    ______ ____
ROOT
ATOM      1  C   UNL     1      43.852   6.184  11.789  0.00  0.00    +0.000 C 
ENDROOT
BRANCH   1   2
ATOM      2  N   UNL     1      43.983   4.783  11.397  0.00  0.00    +0.000 N 
ATOM      3  C   UNL     1      43.309   3.737  11.986  0.00  0.00    +0.000 A 
ATOM      4  C   UNL     1      43.575   2.593  11.266  0.00  0.00    +0.000 A 
ATOM      5  C   UNL     1      44.425   2.954  10.188  0.00  0.00    +0.000 A 
ATOM      6  C   UNL     1      45.007   2.256   9.112  0.00  0.00    +0.000 A 
ATOM      7  C   UNL     1      45.785   2.985   8.209  0.00  0.00    +0.000 A 
ATOM      8  C   UNL     1      45.944   4.352   8.428  0.00  0.00    +0.000 A 
ATOM      9  N   UNL     1      45.406   5.075   9.451  0.00  0.00    +0.000 NA
ATOM     10  C   UNL     1      44.663   4.325  10.291  0.00  0.00    +0.000 A 
BRANCH   7  11
ATOM     11  C   UNL     1      46.438   2.385   7.015  0.00  0.00    +0.000 C 
ATOM     12  N   UNL     1      47.083   1.185   7.148  0.00  0.00    +0.000 N 
ATOM     13  O   UNL     1      46.404   2.941   5.925  0.00  0.00    +0.000 OA
ATOM     14  H   UNL     1      47.181   0.662   8.004  0.00  0.00    +0.000 HD
ATOM     15  H   UNL     1      47.515   0.807   6.317  0.00  0.00    +0.000 HD
ENDBRANCH   7  11
ENDBRANCH   1   2
BRANCH   1  19
ATOM     16  C   UNL     1      47.551   7.881  13.359  0.00  0.00    +0.000 A 
ATOM     17  C   UNL     1      46.484   8.696  12.944  0.00  0.00    +0.000 A 
ATOM     18  C   UNL     1      45.295   8.148  12.449  0.00  0.00    +0.000 A 
ATOM     19  C   UNL     1      45.127   6.762  12.358  0.00  0.00    +0.000 A 
ATOM     20  C   UNL     1      46.168   5.939  12.808  0.00  0.00    +0.000 A 
ATOM     21  C   UNL     1      47.359   6.491  13.309  0.00  0.00    +0.000 A 
BRANCH  16  22
ATOM     22  C   UNL     1      48.872   8.538  13.758  0.00  0.00    +0.000 C 
BRANCH  22  24
ATOM     23  C   UNL     1      49.236  10.081  11.777  0.00  0.00    +0.000 C 
ATOM     24  C   UNL     1      49.870   8.951  12.625  0.00  0.00    +0.000 C 
ATOM     25  C   UNL     1      50.183   7.785  11.673  0.00  0.00    +0.000 C 
ATOM     26  C   UNL     1      51.184   9.507  13.206  0.00  0.00    +0.000 C 
ENDBRANCH  22  24
BRANCH  22  27
ATOM     27  O   UNL     1      48.620   9.651  14.626  0.00  0.00    +0.000 OA
ATOM     28  H   UNL     1      48.279   9.308  15.464  0.00  0.00    +0.000 HD
ENDBRANCH  22  27
ENDBRANCH  16  22
ENDBRANCH   1  19
TORSDOF 6
ENDMDL
MODEL 4
REMARK VINA RESULT:    -6.325      2.453      7.570
REMARK INTER + INTRA:          -9.067
REMARK INTER:                  -8.553
REMARK INTRA:                  -0.514
REMARK UNBOUND:                -0.709
REMARK  Name = 
REMARK  9 active torsions:
REMARK  status: ('A' for Active; 'I' for Inactive)
REMARK    1  A    between atoms: C_1  and  C_2
REMARK    2  A    between atoms: C_2  and  C_3
REMARK    3  A    between atoms: C_2  and  C_4
REMARK    4  A    between atoms: C_2  and  C_5
REMARK    5  A    between atoms: C_5  and  O_6
REMARK    6  A    between atoms: C_5  and  C_7
REMARK    7  A    between atoms: C_10  and  C_11
REMARK    8  A    between atoms: C_11  and  N_12
REMARK    9  A    between atoms: C_17  and  C_18
REMARK                            x       y       z     vdW  Elec       q    Type
REMARK                         _______ _______ _______ _____ _____    ______ ____
ROOT
ATOM      1  C   UNL     1      43.757   5.479  11.958  0.00  0.00    +0.000 C 
ENDROOT
BRANCH   1   2
ATOM      2  N   UNL     1      44.633   6.633  12.148  0.00  0.00    +0.000 N 
ATOM      3  C   UNL     1      44.325   7.921  11.772  0.00  0.00    +0.000 A 
ATOM      4  C   UNL     1      45.320   8.754  12.234  0.00  0.00    +0.000 A 
ATOM      5  C   UNL     1      46.260   7.952  12.933  0.00  0.00    +0.000 A 
ATOM      6  C   UNL     1      47.450   8.212  13.641  0.00  0.00    +0.000 A 
ATOM      7  C   UNL     1      48.101   7.131  14.238  0.00  0.00    +0.000 A 
ATOM      8  C   UNL     1      47.542   5.861  14.094  0.00  0.00    +0.000 A 
ATOM      9  N   UNL     1      46.397   5.554  13.421  0.00  0.00    +0.000 NA
ATOM     10  C   UNL     1      45.807   6.634  12.867  0.00  0.00    +0.000 A 
BRANCH   7  11
ATOM     11  C   UNL     1      49.349   7.261  15.035  0.00  0.00    +0.000 C 
ATOM     12  N   UNL     1      50.538   7.433  14.378  0.00  0.00    +0.000 N 
ATOM     13  O   UNL     1      49.330   7.220  16.259  0.00  0.00    +0.000 OA
ATOM     14  H   UNL     1      50.658   7.460  13.378  0.00  0.00    +0.000 HD
ATOM     15  H   UNL     1      51.366   7.517  14.951  0.00  0.00    +0.000 HD
ENDBRANCH   7  11
ENDBRANCH   1   2
BRANCH   1  19
ATOM     16  C   UNL     1      45.134   2.872   8.744  0.00  0.00    +0.000 A 
ATOM     17  C   UNL     1      45.303   2.528  10.095  0.00  0.00    +0.000 A 
ATOM     18  C   UNL     1      44.853   3.363  11.125  0.00  0.00    +0.000 A 
ATOM     19  C   UNL     1      44.208   4.571  10.839  0.00  0.00    +0.000 A 
ATOM     20  C   UNL     1      43.995   4.903   9.494  0.00  0.00    +0.000 A 
ATOM     21  C   UNL     1      44.444   4.062   8.462  0.00  0.00    +0.000 A 
BRANCH  16  22
ATOM     22  C   UNL     1      45.768   1.989   7.670  0.00  0.00    +0.000 C 
BRANCH  22  24
ATOM     23  C   UNL     1      47.174   4.055   7.229  0.00  0.00    +0.000 C 
ATOM     24  C   UNL     1      46.883   2.608   6.761  0.00  0.00    +0.000 C 
ATOM     25  C   UNL     1      46.454   2.681   5.286  0.00  0.00    +0.000 C 
ATOM     26  C   UNL     1      48.203   1.824   6.875  0.00  0.00    +0.000 C 
ENDBRANCH  22  24
BRANCH  22  27
ATOM     27  O   UNL     1      46.231   0.765   8.256  0.00  0.00    +0.000 OA
ATOM     28  H   UNL     1      45.793   0.030   7.803  0.00  0.00    +0.000 HD
ENDBRANCH  22  27
ENDBRANCH  16  22
ENDBRANCH   1  19
TORSDOF 6
ENDMDL
MODEL 5
REMARK VINA RESULT:    -6.246      4.514      8.517
REMARK INTER + INTRA:          -8.963
REMARK INTER:                  -8.010
REMARK INTRA:                  -0.953
REMARK UNBOUND:                -0.709
REMARK  Name = 
REMARK  9 active torsions:
REMARK  status: ('A' for Active; 'I' for Inactive)
REMARK    1  A    between atoms: C_1  and  C_2
REMARK    2  A    between atoms: C_2  and  C_3
REMARK    3  A    between atoms: C_2  and  C_4
REMARK    4  A    between atoms: C_2  and  C_5
REMARK    5  A    between atoms: C_5  and  O_6
REMARK    6  A    between atoms: C_5  and  C_7
REMARK    7  A    between atoms: C_10  and  C_11
REMARK    8  A    between atoms: C_11  and  N_12
REMARK    9  A    between atoms: C_17  and  C_18
REMARK                            x       y       z     vdW  Elec       q    Type
REMARK                         _______ _______ _______ _____ _____    ______ ____
ROOT
ATOM      1  C   UNL     1      49.233   8.657  14.348  0.00  0.00    +0.000 C 
ENDROOT
BRANCH   1   2
ATOM      2  N   UNL     1      48.979   8.500  15.777  0.00  0.00    +0.000 N 
ATOM      3  C   UNL     1      48.582   9.514  16.620  0.00  0.00    +0.000 A 
ATOM      4  C   UNL     1      48.307   8.967  17.854  0.00  0.00    +0.000 A 
ATOM      5  C   UNL     1      48.525   7.568  17.759  0.00  0.00    +0.000 A 
ATOM      6  C   UNL     1      48.391   6.484  18.649  0.00  0.00    +0.000 A 
ATOM      7  C   UNL     1      48.680   5.206  18.166  0.00  0.00    +0.000 A 
ATOM      8  C   UNL     1      49.088   5.079  16.839  0.00  0.00    +0.000 A 
ATOM      9  N   UNL     1      49.236   6.091  15.938  0.00  0.00    +0.000 NA
ATOM     10  C   UNL     1      48.942   7.302  16.455  0.00  0.00    +0.000 A 
BRANCH   7  11
ATOM     11  C   UNL     1      48.558   3.970  18.983  0.00  0.00    +0.000 C 
ATOM     12  N   UNL     1      48.651   4.068  20.346  0.00  0.00    +0.000 N 
ATOM     13  O   UNL     1      48.373   2.878  18.462  0.00  0.00    +0.000 OA
ATOM     14  H   UNL     1      48.821   4.915  20.864  0.00  0.00    +0.000 HD
ATOM     15  H   UNL     1      48.564   3.208  20.870  0.00  0.00    +0.000 HD
ENDBRANCH   7  11
ENDBRANCH   1   2
BRANCH   1  19
ATOM     16  C   UNL     1      45.908   7.207  11.924  0.00  0.00    +0.000 A 
ATOM     17  C   UNL     1      45.746   8.254  12.847  0.00  0.00    +0.000 A 
ATOM     18  C   UNL     1      46.817   8.722  13.617  0.00  0.00    +0.000 A 
ATOM     19  C   UNL     1      48.093   8.165  13.486  0.00  0.00    +0.000 A 
ATOM     20  C   UNL     1      48.276   7.150  12.538  0.00  0.00    +0.000 A 
ATOM     21  C   UNL     1      47.201   6.683  11.762  0.00  0.00    +0.000 A 
BRANCH  16  22
ATOM     22  C   UNL     1      44.676   6.647  11.215  0.00  0.00    +0.000 C 
BRANCH  22  24
ATOM     23  C   UNL     1      42.571   5.300  11.657  0.00  0.00    +0.000 C 
ATOM     24  C   UNL     1      44.119   5.258  11.676  0.00  0.00    +0.000 C 
ATOM     25  C   UNL     1      44.550   4.906  13.110  0.00  0.00    +0.000 C 
ATOM     26  C   UNL     1      44.551   4.132  10.718  0.00  0.00    +0.000 C 
ENDBRANCH  22  24
BRANCH  22  27
ATOM     27  O   UNL     1      43.628   7.625  11.216  0.00  0.00    +0.000 OA
ATOM     28  H   UNL     1      43.295   7.709  12.121  0.00  0.00    +0.000 HD
ENDBRANCH  22  27
ENDBRANCH  16  22
ENDBRANCH   1  19
TORSDOF 6
ENDMDL
MODEL 6
REMARK VINA RESULT:    -5.992      3.245      8.042
REMARK INTER + INTRA:          -8.627
REMARK INTER:                  -8.637
REMARK INTRA:                   0.010
REMARK UNBOUND:                -0.709
REMARK  Name = 
REMARK  9 active torsions:
REMARK  status: ('A' for Active; 'I' for Inactive)
REMARK    1  A    between atoms: C_1  and  C_2
REMARK    2  A    between atoms: C_2  and  C_3
REMARK    3  A    between atoms: C_2  and  C_4
REMARK    4  A    between atoms: C_2  and  C_5
REMARK    5  A    between atoms: C_5  and  O_6
REMARK    6  A    between atoms: C_5  and  C_7
REMARK    7  A    between atoms: C_10  and  C_11
REMARK    8  A    between atoms: C_11  and  N_12
REMARK    9  A    between atoms: C_17  and  C_18
REMARK                            x       y       z     vdW  Elec       q    Type
REMARK                         _______ _______ _______ _____ _____    ______ ____
ROOT
ATOM      1  C   UNL     1      44.844   5.580  12.753  0.00  0.00    +0.000 C 
ENDROOT
BRANCH   1   2
ATOM      2  N   UNL     1      46.129   6.046  13.267  0.00  0.00    +0.000 N 
ATOM      3  C   UNL     1      46.756   7.208  12.875  0.00  0.00    +0.000 A 
ATOM      4  C   UNL     1      47.867   7.386  13.670  0.00  0.00    +0.000 A 
ATOM      5  C   UNL     1      47.913   6.307  14.591  0.00  0.00    +0.000 A 
ATOM      6  C   UNL     1      48.767   5.948  15.652  0.00  0.00    +0.000 A 
ATOM      7  C   UNL     1      48.459   4.791  16.371  0.00  0.00    +0.000 A 
ATOM      8  C   UNL     1      47.334   4.059  15.996  0.00  0.00    +0.000 A 
ATOM      9  N   UNL     1      46.476   4.360  14.979  0.00  0.00    +0.000 NA
ATOM     10  C   UNL     1      46.817   5.487  14.320  0.00  0.00    +0.000 A 
BRANCH   7  11
ATOM     11  C   UNL     1      49.256   4.307  17.529  0.00  0.00    +0.000 C 
ATOM     12  N   UNL     1      49.674   3.003  17.544  0.00  0.00    +0.000 N 
ATOM     13  O   UNL     1      49.545   5.049  18.459  0.00  0.00    +0.000 OA
ATOM     14  H   UNL     1      49.472   2.313  16.838  0.00  0.00    +0.000 HD
ATOM     15  H   UNL     1      50.213   2.708  18.346  0.00  0.00    +0.000 HD
ENDBRANCH   7  11
ENDBRANCH   1   2
BRANCH   1  19
ATOM     16  C   UNL     1      45.282   3.192   9.128  0.00  0.00    +0.000 A 
ATOM     17  C   UNL     1      45.047   2.597  10.379  0.00  0.00    +0.000 A 
ATOM     18  C   UNL     1      44.898   3.367  11.539  0.00  0.00    +0.000 A 
ATOM     19  C   UNL     1      44.971   4.763  11.488  0.00  0.00    +0.000 A 
ATOM     20  C   UNL     1      45.163   5.369  10.240  0.00  0.00    +0.000 A 
ATOM     21  C   UNL     1      45.308   4.595   9.075  0.00  0.00    +0.000 A 
BRANCH  16  22
ATOM     22  C   UNL     1      45.573   2.296   7.925  0.00  0.00    +0.000 C 
BRANCH  22  24
ATOM     23  C   UNL     1      47.927   1.750   7.149  0.00  0.00    +0.000 C 
ATOM     24  C   UNL     1      46.728   2.710   6.951  0.00  0.00    +0.000 C 
ATOM     25  C   UNL     1      47.234   4.137   7.224  0.00  0.00    +0.000 C 
ATOM     26  C   UNL     1      46.293   2.592   5.479  0.00  0.00    +0.000 C 
ENDBRANCH  22  24
BRANCH  22  27
ATOM     27  O   UNL     1      45.753   0.942   8.359  0.00  0.00    +0.000 OA
ATOM     28  H   UNL     1      44.882   0.521   8.402  0.00  0.00    +0.000 HD
ENDBRANCH  22  27
ENDBRANCH  16  22
ENDBRANCH   1  19
TORSDOF 6
ENDMDL
MODEL 7
REMARK VINA RESULT:    -5.833      6.309      8.804
REMARK INTER + INTRA:          -8.417
REMARK INTER:                  -7.954
REMARK INTRA:                  -0.463
REMARK UNBOUND:                -0.709
REMARK  Name = 
REMARK  9 active torsions:
REMARK  status: ('A' for Active; 'I' for Inactive)
REMARK    1  A    between atoms: C_1  and  C_2
REMARK    2  A    between atoms: C_2  and  C_3
REMARK    3  A    between atoms: C_2  and  C_4
REMARK    4  A    between atoms: C_2  and  C_5
REMARK    5  A    between atoms: C_5  and  O_6
REMARK    6  A    between atoms: C_5  and  C_7
REMARK    7  A    between atoms: C_10  and  C_11
REMARK    8  A    between atoms: C_11  and  N_12
REMARK    9  A    between atoms: C_17  and  C_18
REMARK                            x       y       z     vdW  Elec       q    Type
REMARK                         _______ _______ _______ _____ _____    ______ ____
ROOT
ATOM      1  C   UNL     1      48.272   4.755  17.622  0.00  0.00    +0.000 C 
ENDROOT
BRANCH   1   2
ATOM      2  N   UNL     1      49.709   4.681  17.871  0.00  0.00    +0.000 N 
ATOM      3  C   UNL     1      50.456   5.678  18.459  0.00  0.00    +0.000 A 
ATOM      4  C   UNL     1      51.734   5.200  18.656  0.00  0.00    +0.000 A 
ATOM      5  C   UNL     1      51.765   3.860  18.190  0.00  0.00    +0.000 A 
ATOM      6  C   UNL     1      52.748   2.851  18.146  0.00  0.00    +0.000 A 
ATOM      7  C   UNL     1      52.381   1.608  17.626  0.00  0.00    +0.000 A 
ATOM      8  C   UNL     1      51.072   1.440  17.176  0.00  0.00    +0.000 A 
ATOM      9  N   UNL     1      50.085   2.380  17.193  0.00  0.00    +0.000 NA
ATOM     10  C   UNL     1      50.491   3.559  17.708  0.00  0.00    +0.000 A 
BRANCH   7  11
ATOM     11  C   UNL     1      53.306   0.446  17.542  0.00  0.00    +0.000 C 
ATOM     12  N   UNL     1      53.191  -0.557  18.467  0.00  0.00    +0.000 N 
ATOM     13  O   UNL     1      54.156   0.372  16.665  0.00  0.00    +0.000 OA
ATOM     14  H   UNL     1      52.538  -0.577  19.234  0.00  0.00    +0.000 HD
ATOM     15  H   UNL     1      53.835  -1.330  18.380  0.00  0.00    +0.000 HD
ENDBRANCH   7  11
ENDBRANCH   1   2
BRANCH   1  19
ATOM     16  C   UNL     1      47.248   5.629  13.473  0.00  0.00    +0.000 A 
ATOM     17  C   UNL     1      48.027   6.510  14.241  0.00  0.00    +0.000 A 
ATOM     18  C   UNL     1      48.361   6.223  15.570  0.00  0.00    +0.000 A 
ATOM     19  C   UNL     1      47.934   5.037  16.177  0.00  0.00    +0.000 A 
ATOM     20  C   UNL     1      47.193   4.131  15.407  0.00  0.00    +0.000 A 
ATOM     21  C   UNL     1      46.862   4.419  14.072  0.00  0.00    +0.000 A 
BRANCH  16  22
ATOM     22  C   UNL     1      46.802   6.061  12.077  0.00  0.00    +0.000 C 
BRANCH  22  24
ATOM     23  C   UNL     1      44.922   7.619  11.385  0.00  0.00    +0.000 C 
ATOM     24  C   UNL     1      45.267   6.163  11.786  0.00  0.00    +0.000 C 
ATOM     25  C   UNL     1      44.417   5.815  13.020  0.00  0.00    +0.000 C 
ATOM     26  C   UNL     1      44.855   5.263  10.607  0.00  0.00    +0.000 C 
ENDBRANCH  22  24
BRANCH  22  27
ATOM     27  O   UNL     1      47.457   7.281  11.711  0.00  0.00    +0.000 OA
ATOM     28  H   UNL     1      46.864   8.017  11.922  0.00  0.00    +0.000 HD
ENDBRANCH  22  27
ENDBRANCH  16  22
ENDBRANCH   1  19
TORSDOF 6
ENDMDL
MODEL 8
REMARK VINA RESULT:    -5.741      4.117      6.317
REMARK INTER + INTRA:          -8.295
REMARK INTER:                  -7.428
REMARK INTRA:                  -0.867
REMARK UNBOUND:                -0.709
REMARK  Name = 
REMARK  9 active torsions:
REMARK  status: ('A' for Active; 'I' for Inactive)
REMARK    1  A    between atoms: C_1  and  C_2
REMARK    2  A    between atoms: C_2  and  C_3
REMARK    3  A    between atoms: C_2  and  C_4
REMARK    4  A    between atoms: C_2  and  C_5
REMARK    5  A    between atoms: C_5  and  O_6
REMARK    6  A    between atoms: C_5  and  C_7
REMARK    7  A    between atoms: C_10  and  C_11
REMARK    8  A    between atoms: C_11  and  N_12
REMARK    9  A    between atoms: C_17  and  C_18
REMARK                            x       y       z     vdW  Elec       q    Type
REMARK                         _______ _______ _______ _____ _____    ______ ____
ROOT
ATOM      1  C   UNL     1      48.745   7.820  13.535  0.00  0.00    +0.000 C 
ENDROOT
BRANCH   1   2
ATOM      2  N   UNL     1      47.340   7.841  13.136  0.00  0.00    +0.000 N 
ATOM      3  C   UNL     1      46.649   8.971  12.758  0.00  0.00    +0.000 A 
ATOM      4  C   UNL     1      45.401   8.585  12.319  0.00  0.00    +0.000 A 
ATOM      5  C   UNL     1      45.332   7.171  12.415  0.00  0.00    +0.000 A 
ATOM      6  C   UNL     1      44.356   6.205  12.099  0.00  0.00    +0.000 A 
ATOM      7  C   UNL     1      44.677   4.863  12.312  0.00  0.00    +0.000 A 
ATOM      8  C   UNL     1      45.936   4.559  12.829  0.00  0.00    +0.000 A 
ATOM      9  N   UNL     1      46.914   5.451  13.153  0.00  0.00    +0.000 NA
ATOM     10  C   UNL     1      46.554   6.731  12.925  0.00  0.00    +0.000 A 
BRANCH   7  11
ATOM     11  C   UNL     1      43.756   3.738  12.000  0.00  0.00    +0.000 C 
ATOM     12  N   UNL     1      44.022   2.502  12.527  0.00  0.00    +0.000 N 
ATOM     13  O   UNL     1      42.772   3.898  11.290  0.00  0.00    +0.000 OA
ATOM     14  H   UNL     1      44.814   2.267  13.104  0.00  0.00    +0.000 HD
ATOM     15  H   UNL     1      43.376   1.761  12.294  0.00  0.00    +0.000 HD
ENDBRANCH   7  11
ENDBRANCH   1   2
BRANCH   1  19
ATOM     16  C   UNL     1      49.252   7.469  17.853  0.00  0.00    +0.000 A 
ATOM     17  C   UNL     1      49.860   6.567  16.964  0.00  0.00    +0.000 A 
ATOM     18  C   UNL     1      49.702   6.688  15.578  0.00  0.00    +0.000 A 
ATOM     19  C   UNL     1      48.936   7.722  15.031  0.00  0.00    +0.000 A 
ATOM     20  C   UNL     1      48.360   8.652  15.906  0.00  0.00    +0.000 A 
ATOM     21  C   UNL     1      48.523   8.532  17.297  0.00  0.00    +0.000 A 
BRANCH  16  22
ATOM     22  C   UNL     1      49.346   7.205  19.355  0.00  0.00    +0.000 C 
BRANCH  22  24
ATOM     23  C   UNL     1      48.788   5.149  20.734  0.00  0.00    +0.000 C 
ATOM     24  C   UNL     1      48.192   6.401  20.044  0.00  0.00    +0.000 C 
ATOM     25  C   UNL     1      47.143   5.910  19.031  0.00  0.00    +0.000 C 
ATOM     26  C   UNL     1      47.500   7.233  21.139  0.00  0.00    +0.000 C 
ENDBRANCH  22  24
BRANCH  22  27
ATOM     27  O   UNL     1      50.614   6.615  19.668  0.00  0.00    +0.000 OA
ATOM     28  H   UNL     1      51.309   7.201  19.335  0.00  0.00    +0.000 HD
ENDBRANCH  22  27
ENDBRANCH  16  22
ENDBRANCH   1  19
TORSDOF 6
ENDMDL
MODEL 9
REMARK VINA RESULT:    -5.733      3.539      5.374
REMARK INTER + INTRA:          -8.285
REMARK INTER:                  -7.648
REMARK INTRA:                  -0.637
REMARK UNBOUND:                -0.709
REMARK  Name = 
REMARK  9 active torsions:
REMARK  status: ('A' for Active; 'I' for Inactive)
REMARK    1  A    between atoms: C_1  and  C_2
REMARK    2  A    between atoms: C_2  and  C_3
REMARK    3  A    between atoms: C_2  and  C_4
REMARK    4  A    between atoms: C_2  and  C_5
REMARK    5  A    between atoms: C_5  and  O_6
REMARK    6  A    between atoms: C_5  and  C_7
REMARK    7  A    between atoms: C_10  and  C_11
REMARK    8  A    between atoms: C_11  and  N_12
REMARK    9  A    between atoms: C_17  and  C_18
REMARK                            x       y       z     vdW  Elec       q    Type
REMARK                         _______ _______ _______ _____ _____    ______ ____
ROOT
ATOM      1  C   UNL     1      47.460   8.390  12.205  0.00  0.00    +0.000 C 
ENDROOT
BRANCH   1   2
ATOM      2  N   UNL     1      47.237   7.041  12.719  0.00  0.00    +0.000 N 
ATOM      3  C   UNL     1      47.664   6.589  13.948  0.00  0.00    +0.000 A 
ATOM      4  C   UNL     1      47.154   5.324  14.143  0.00  0.00    +0.000 A 
ATOM      5  C   UNL     1      46.374   4.997  13.003  0.00  0.00    +0.000 A 
ATOM      6  C   UNL     1      45.593   3.887  12.625  0.00  0.00    +0.000 A 
ATOM      7  C   UNL     1      44.927   3.948  11.399  0.00  0.00    +0.000 A 
ATOM      8  C   UNL     1      45.078   5.095  10.621  0.00  0.00    +0.000 A 
ATOM      9  N   UNL     1      45.821   6.193  10.937  0.00  0.00    +0.000 NA
ATOM     10  C   UNL     1      46.440   6.084  12.131  0.00  0.00    +0.000 A 
BRANCH   7  11
ATOM     11  C   UNL     1      44.048   2.864  10.885  0.00  0.00    +0.000 C 
ATOM     12  N   UNL     1      44.476   2.117   9.820  0.00  0.00    +0.000 N 
ATOM     13  O   UNL     1      42.962   2.628  11.397  0.00  0.00    +0.000 OA
ATOM     14  H   UNL     1      45.342   2.246   9.321  0.00  0.00    +0.000 HD
ATOM     15  H   UNL     1      43.854   1.390   9.497  0.00  0.00    +0.000 HD
ENDBRANCH   7  11
ENDBRANCH   1   2
BRANCH   1  19
ATOM     16  C   UNL     1      51.618   9.071  11.079  0.00  0.00    +0.000 A 
ATOM     17  C   UNL     1      51.049   7.786  11.055  0.00  0.00    +0.000 A 
ATOM     18  C   UNL     1      49.711   7.572  11.409  0.00  0.00    +0.000 A 
ATOM     19  C   UNL     1      48.891   8.639  11.792  0.00  0.00    +0.000 A 
ATOM     20  C   UNL     1      49.436   9.929  11.778  0.00  0.00    +0.000 A 
ATOM     21  C   UNL     1      50.778  10.143  11.418  0.00  0.00    +0.000 A 
BRANCH  16  22
ATOM     22  C   UNL     1      53.116   9.221  10.817  0.00  0.00    +0.000 C 
BRANCH  22  24
ATOM     23  C   UNL     1      52.596  10.245   8.554  0.00  0.00    +0.000 C 
ATOM     24  C   UNL     1      53.602   9.363   9.335  0.00  0.00    +0.000 C 
ATOM     25  C   UNL     1      53.675   8.005   8.616  0.00  0.00    +0.000 C 
ATOM     26  C   UNL     1      54.971  10.063   9.255  0.00  0.00    +0.000 C 
ENDBRANCH  22  24
BRANCH  22  27
ATOM     27  O   UNL     1      53.646  10.287  11.615  0.00  0.00    +0.000 OA
ATOM     28  H   UNL     1      53.176  10.292  12.462  0.00  0.00    +0.000 HD
ENDBRANCH  22  27
ENDBRANCH  16  22
ENDBRANCH   1  19
TORSDOF 6
ENDMDL
