MODEL 1
REMARK VINA RESULT:    -8.029      0.000      0.000
REMARK INTER + INTRA:         -11.548
REMARK INTER:                 -10.845
REMARK INTRA:                  -0.703
REMARK UNBOUND:                -0.703
REMARK  Name = 
REMARK  6 active torsions:
REMARK  status: ('A' for Active; 'I' for Inactive)
REMARK    1  A    between atoms: C_2  and  C_25
REMARK    2  A    between atoms: N_3  and  C_4
REMARK    3  A    between atoms: C_4  and  C_5
REMARK    4  A    between atoms: C_8  and  C_9
REMARK    5  A    between atoms: C_9  and  N_10
REMARK    6  A    between atoms: C_11  and  C_13
REMARK                            x       y       z     vdW  Elec       q    Type
REMARK                         _______ _______ _______ _____ _____    ______ ____
ROOT
ATOM      1  C   UNL     1      44.649   5.302  11.188  0.00  0.00    +0.000 A 
ATOM      2  C   UNL     1      45.606   4.721  12.022  0.00  0.00    +0.000 A 
ATOM      3  C   UNL     1      46.443   5.528  12.788  0.00  0.00    +0.000 A 
ATOM      4  C   UNL     1      46.306   6.912  12.703  0.00  0.00    +0.000 A 
ATOM      5  N   UNL     1      45.351   7.498  11.936  0.00  0.00    +0.000 NA
ATOM      6  C   UNL     1      44.549   6.688  11.206  0.00  0.00    +0.000 A 
ENDROOT
BRANCH   1   7
ATOM      7  C   UNL     1      43.768   4.468  10.308  0.00  0.00    +0.000 C 
BRANCH   7  10
ATOM      8  O   UNL     1      45.599   5.045   8.299  0.00  0.00    +0.000 OA
ATOM      9  C   UNL     1      45.413   3.868   8.596  0.00  0.00    +0.000 C 
ATOM     10  N   UNL     1      44.515   3.484   9.567  0.00  0.00    +0.000 N 
ATOM     11  H   UNL     1      44.528   2.531   9.898  0.00  0.00    +0.000 HD
BRANCH   9  12
ATOM     12  C   UNL     1      46.132   2.785   7.966  0.00  0.00    +0.000 A 
ATOM     13  C   UNL     1      47.036   2.760   6.912  0.00  0.00    +0.000 A 
ATOM     14  C   UNL     1      47.442   1.419   6.710  0.00  0.00    +0.000 A 
ATOM     15  C   UNL     1      46.788   0.650   7.642  0.00  0.00    +0.000 A 
ATOM     16  N   UNL     1      46.011   1.481   8.404  0.00  0.00    +0.000 N 
ATOM     17  H   UNL     1      45.422   1.201   9.180  0.00  0.00    +0.000 HD
ENDBRANCH   9  12
ENDBRANCH   7  10
ENDBRANCH   1   7
BRANCH   4  18
ATOM     18  C   UNL     1      47.234   7.817  13.475  0.00  0.00    +0.000 C 
BRANCH  18  19
ATOM     19  N   UNL     1      47.654   7.237  14.730  0.00  0.00    +0.000 N 
ATOM     20  C   UNL     1      48.952   6.889  14.986  0.00  0.00    +0.000 C 
ATOM     21  O   UNL     1      49.842   7.038  14.153  0.00  0.00    +0.000 OA
ATOM     22  H   UNL     1      46.907   6.903  15.333  0.00  0.00    +0.000 HD
BRANCH  20  23
ATOM     23  C   UNL     1      49.244   6.393  16.338  0.00  0.00    +0.000 A 
ATOM     24  C   UNL     1      50.110   7.105  17.157  0.00  0.00    +0.000 A 
ATOM     25  S   UNL     1      50.315   6.414  18.702  0.00  0.00    +0.000 S 
ATOM     26  C   UNL     1      49.287   5.114  18.318  0.00  0.00    +0.000 A 
ATOM     27  N   UNL     1      49.050   4.120  19.215  0.00  0.00    +0.000 NA
ATOM     28  C   UNL     1      48.278   3.181  18.780  0.00  0.00    +0.000 A 
ATOM     29  N   UNL     1      47.711   3.153  17.532  0.00  0.00    +0.000 N 
ATOM     30  C   UNL     1      47.877   4.161  16.615  0.00  0.00    +0.000 A 
ATOM     31  O   UNL     1      47.282   4.149  15.543  0.00  0.00    +0.000 OA
ATOM     32  C   UNL     1      48.770   5.222  17.038  0.00  0.00    +0.000 A 
ATOM     33  H   UNL     1      47.094   2.401  17.261  0.00  0.00    +0.000 HD
ENDBRANCH  20  23
ENDBRANCH  18  19
ENDBRANCH   4  18
TORSDOF 6
ENDMDL
MODEL 2
REMARK VINA RESULT:    -7.965      2.069      3.668
REMARK INTER + INTRA:         -11.462
REMARK INTER:                 -10.444
REMARK INTRA:                  -1.018
REMARK UNBOUND:                -0.703
REMARK  Name = 
REMARK  6 active torsions:
REMARK  status: ('A' for Active; 'I' for Inactive)
REMARK    1  A    between atoms: C_2  and  C_25
REMARK    2  A    between atoms: N_3  and  C_4
REMARK    3  A    between atoms: C_4  and  C_5
REMARK    4  A    between atoms: C_8  and  C_9
REMARK    5  A    between atoms: C_9  and  N_10
REMARK    6  A    between atoms: C_11  and  C_13
REMARK                            x       y       z     vdW  Elec       q    Type
REMARK                         _______ _______ _______ _____ _____    ______ ____
ROOT
ATOM      1  C   UNL     1      44.870   4.337  11.591  0.00  0.00    +0.000 A 
ATOM      2  C   UNL     1      45.132   5.603  12.117  0.00  0.00    +0.000 A 
ATOM      3  C   UNL     1      45.861   5.729  13.297  0.00  0.00    +0.000 A 
ATOM      4  C   UNL     1      46.316   4.577  13.933  0.00  0.00    +0.000 A 
ATOM      5  N   UNL     1      46.116   3.338  13.415  0.00  0.00    +0.000 NA
ATOM      6  C   UNL     1      45.407   3.246  12.264  0.00  0.00    +0.000 A 
ENDROOT
BRANCH   1   7
ATOM      7  C   UNL     1      44.043   4.159  10.354  0.00  0.00    +0.000 C 
BRANCH   7  10
ATOM      8  O   UNL     1      45.828   5.201   8.498  0.00  0.00    +0.000 OA
ATOM      9  C   UNL     1      45.609   3.993   8.478  0.00  0.00    +0.000 C 
ATOM     10  N   UNL     1      44.729   3.389   9.348  0.00  0.00    +0.000 N 
ATOM     11  H   UNL     1      44.716   2.382   9.412  0.00  0.00    +0.000 HD
BRANCH   9  12
ATOM     12  C   UNL     1      46.267   3.099   7.554  0.00  0.00    +0.000 A 
ATOM     13  C   UNL     1      46.760   3.290   6.270  0.00  0.00    +0.000 A 
ATOM     14  C   UNL     1      47.316   2.067   5.824  0.00  0.00    +0.000 A 
ATOM     15  C   UNL     1      47.161   1.154   6.839  0.00  0.00    +0.000 A 
ATOM     16  N   UNL     1      46.539   1.786   7.883  0.00  0.00    +0.000 N 
ATOM     17  H   UNL     1      46.301   1.370   8.775  0.00  0.00    +0.000 HD
ENDBRANCH   9  12
ENDBRANCH   7  10
ENDBRANCH   1   7
BRANCH   4  18
ATOM     18  C   UNL     1      47.059   4.674  15.242  0.00  0.00    +0.000 C 
BRANCH  18  19
ATOM     19  N   UNL     1      47.866   5.869  15.332  0.00  0.00    +0.000 N 
ATOM     20  C   UNL     1      49.022   5.926  16.061  0.00  0.00    +0.000 C 
ATOM     21  O   UNL     1      49.439   4.962  16.697  0.00  0.00    +0.000 OA
ATOM     22  H   UNL     1      47.426   6.723  15.005  0.00  0.00    +0.000 HD
BRANCH  20  23
ATOM     23  C   UNL     1      49.783   7.181  15.987  0.00  0.00    +0.000 A 
ATOM     24  C   UNL     1      50.233   7.780  17.156  0.00  0.00    +0.000 A 
ATOM     25  S   UNL     1      51.125   9.209  16.894  0.00  0.00    +0.000 S 
ATOM     26  C   UNL     1      50.906   9.103  15.211  0.00  0.00    +0.000 A 
ATOM     27  N   UNL     1      51.405  10.055  14.378  0.00  0.00    +0.000 NA
ATOM     28  C   UNL     1      51.136   9.867  13.129  0.00  0.00    +0.000 A 
ATOM     29  N   UNL     1      50.423   8.805  12.637  0.00  0.00    +0.000 N 
ATOM     30  C   UNL     1      49.948   7.792  13.433  0.00  0.00    +0.000 A 
ATOM     31  O   UNL     1      49.394   6.812  12.949  0.00  0.00    +0.000 OA
ATOM     32  C   UNL     1      50.187   7.976  14.851  0.00  0.00    +0.000 A 
ATOM     33  H   UNL     1      50.268   8.701  11.644  0.00  0.00    +0.000 HD
ENDBRANCH  20  23
ENDBRANCH  18  19
ENDBRANCH   4  18
TORSDOF 6
ENDMDL
MODEL 3
REMARK VINA RESULT:    -7.756      2.502      3.222
REMARK INTER + INTRA:         -11.180
REMARK INTER:                 -10.389
REMARK INTRA:                  -0.791
REMARK UNBOUND:                -0.703
REMARK  Name = 
REMARK  6 active torsions:
REMARK  status: ('A' for Active; 'I' for Inactive)
REMARK    1  A    between atoms: C_2  and  C_25
REMARK    2  A    between atoms: N_3  and  C_4
REMARK    3  A    between atoms: C_4  and  C_5
REMARK    4  A    between atoms: C_8  and  C_9
REMARK    5  A    between atoms: C_9  and  N_10
REMARK    6  A    between atoms: C_11  and  C_13
REMARK                            x       y       z     vdW  Elec       q    Type
REMARK                         _______ _______ _______ _____ _____    ______ ____
ROOT
ATOM      1  C   UNL     1      45.170   4.452  11.621  0.00  0.00    +0.000 A 
ATOM      2  C   UNL     1      45.586   5.636  12.234  0.00  0.00    +0.000 A 
ATOM      3  C   UNL     1      46.298   5.587  13.429  0.00  0.00    +0.000 A 
ATOM      4  C   UNL     1      46.580   4.346  13.994  0.00  0.00    +0.000 A 
ATOM      5  N   UNL     1      46.229   3.181  13.393  0.00  0.00    +0.000 NA
ATOM      6  C   UNL     1      45.541   3.259  12.229  0.00  0.00    +0.000 A 
ENDROOT
BRANCH   1   7
ATOM      7  C   UNL     1      44.355   4.467  10.364  0.00  0.00    +0.000 C 
BRANCH   7  10
ATOM      8  O   UNL     1      46.183   5.413   8.498  0.00  0.00    +0.000 OA
ATOM      9  C   UNL     1      45.862   4.228   8.448  0.00  0.00    +0.000 C 
ATOM     10  N   UNL     1      44.952   3.674   9.320  0.00  0.00    +0.000 N 
ATOM     11  H   UNL     1      44.856   2.670   9.355  0.00  0.00    +0.000 HD
BRANCH   9  12
ATOM     12  C   UNL     1      46.423   3.311   7.483  0.00  0.00    +0.000 A 
ATOM     13  C   UNL     1      46.629   1.938   7.518  0.00  0.00    +0.000 A 
ATOM     14  C   UNL     1      47.212   1.548   6.289  0.00  0.00    +0.000 A 
ATOM     15  C   UNL     1      47.347   2.681   5.523  0.00  0.00    +0.000 A 
ATOM     16  N   UNL     1      46.857   3.737   6.243  0.00  0.00    +0.000 N 
ATOM     17  H   UNL     1      46.813   4.701   5.934  0.00  0.00    +0.000 HD
ENDBRANCH   9  12
ENDBRANCH   7  10
ENDBRANCH   1   7
BRANCH   4  18
ATOM     18  C   UNL     1      47.300   4.258  15.318  0.00  0.00    +0.000 C 
BRANCH  18  19
ATOM     19  N   UNL     1      47.627   5.558  15.856  0.00  0.00    +0.000 N 
ATOM     20  C   UNL     1      48.797   5.811  16.519  0.00  0.00    +0.000 C 
ATOM     21  O   UNL     1      49.640   4.939  16.707  0.00  0.00    +0.000 OA
ATOM     22  H   UNL     1      46.857   6.220  15.908  0.00  0.00    +0.000 HD
BRANCH  20  23
ATOM     23  C   UNL     1      49.029   7.202  16.932  0.00  0.00    +0.000 A 
ATOM     24  C   UNL     1      49.843   8.020  16.160  0.00  0.00    +0.000 A 
ATOM     25  S   UNL     1      49.983   9.610  16.759  0.00  0.00    +0.000 S 
ATOM     26  C   UNL     1      48.994   9.252  18.096  0.00  0.00    +0.000 A 
ATOM     27  N   UNL     1      48.729  10.192  19.042  0.00  0.00    +0.000 NA
ATOM     28  C   UNL     1      47.993   9.774  20.018  0.00  0.00    +0.000 A 
ATOM     29  N   UNL     1      47.488   8.505  20.126  0.00  0.00    +0.000 N 
ATOM     30  C   UNL     1      47.684   7.540  19.168  0.00  0.00    +0.000 A 
ATOM     31  O   UNL     1      47.143   6.443  19.252  0.00  0.00    +0.000 OA
ATOM     32  C   UNL     1      48.539   7.944  18.070  0.00  0.00    +0.000 A 
ATOM     33  H   UNL     1      46.896   8.247  20.903  0.00  0.00    +0.000 HD
ENDBRANCH  20  23
ENDBRANCH  18  19
ENDBRANCH   4  18
TORSDOF 6
ENDMDL
MODEL 4
REMARK VINA RESULT:    -7.425      1.572      1.803
REMARK INTER + INTRA:         -10.733
REMARK INTER:                  -9.793
REMARK INTRA:                  -0.940
REMARK UNBOUND:                -0.703
REMARK  Name = 
REMARK  6 active torsions:
REMARK  status: ('A' for Active; 'I' for Inactive)
REMARK    1  A    between atoms: C_2  and  C_25
REMARK    2  A    between atoms: N_3  and  C_4
REMARK    3  A    between atoms: C_4  and  C_5
REMARK    4  A    between atoms: C_8  and  C_9
REMARK    5  A    between atoms: C_9  and  N_10
REMARK    6  A    between atoms: C_11  and  C_13
REMARK                            x       y       z     vdW  Elec       q    Type
REMARK                         _______ _______ _______ _____ _____    ______ ____
ROOT
ATOM      1  C   UNL     1      45.413   4.638  11.918  0.00  0.00    +0.000 A 
ATOM      2  C   UNL     1      45.872   4.237  13.175  0.00  0.00    +0.000 A 
ATOM      3  C   UNL     1      46.752   5.048  13.886  0.00  0.00    +0.000 A 
ATOM      4  C   UNL     1      47.160   6.254  13.321  0.00  0.00    +0.000 A 
ATOM      5  N   UNL     1      46.690   6.688  12.124  0.00  0.00    +0.000 NA
ATOM      6  C   UNL     1      45.832   5.880  11.457  0.00  0.00    +0.000 A 
ENDROOT
BRANCH   1   7
ATOM      7  C   UNL     1      44.509   3.766  11.100  0.00  0.00    +0.000 C 
BRANCH   7  10
ATOM      8  O   UNL     1      44.606   4.474   8.415  0.00  0.00    +0.000 OA
ATOM      9  C   UNL     1      45.229   3.479   8.777  0.00  0.00    +0.000 C 
ATOM     10  N   UNL     1      45.228   3.042  10.083  0.00  0.00    +0.000 N 
ATOM     11  H   UNL     1      45.890   2.335  10.363  0.00  0.00    +0.000 HD
BRANCH   9  12
ATOM     12  C   UNL     1      46.030   2.692   7.869  0.00  0.00    +0.000 A 
ATOM     13  C   UNL     1      46.444   1.367   7.906  0.00  0.00    +0.000 A 
ATOM     14  C   UNL     1      47.214   1.112   6.745  0.00  0.00    +0.000 A 
ATOM     15  C   UNL     1      47.253   2.276   6.018  0.00  0.00    +0.000 A 
ATOM     16  N   UNL     1      46.527   3.221   6.693  0.00  0.00    +0.000 N 
ATOM     17  H   UNL     1      46.366   4.176   6.395  0.00  0.00    +0.000 HD
ENDBRANCH   9  12
ENDBRANCH   7  10
ENDBRANCH   1   7
BRANCH   4  18
ATOM     18  C   UNL     1      48.157   7.131  14.039  0.00  0.00    +0.000 C 
BRANCH  18  19
ATOM     19  N   UNL     1      48.122   6.950  15.471  0.00  0.00    +0.000 N 
ATOM     20  C   UNL     1      48.932   7.648  16.324  0.00  0.00    +0.000 C 
ATOM     21  O   UNL     1      49.751   8.468  15.919  0.00  0.00    +0.000 OA
ATOM     22  H   UNL     1      47.622   6.128  15.799  0.00  0.00    +0.000 HD
BRANCH  20  23
ATOM     23  C   UNL     1      48.721   7.422  17.761  0.00  0.00    +0.000 A 
ATOM     24  C   UNL     1      48.395   8.492  18.584  0.00  0.00    +0.000 A 
ATOM     25  S   UNL     1      48.153   8.055  20.213  0.00  0.00    +0.000 S 
ATOM     26  C   UNL     1      48.517   6.425  19.887  0.00  0.00    +0.000 A 
ATOM     27  N   UNL     1      48.523   5.497  20.882  0.00  0.00    +0.000 NA
ATOM     28  C   UNL     1      48.849   4.307  20.499  0.00  0.00    +0.000 A 
ATOM     29  N   UNL     1      49.158   3.960  19.210  0.00  0.00    +0.000 N 
ATOM     30  C   UNL     1      49.112   4.851  18.165  0.00  0.00    +0.000 A 
ATOM     31  O   UNL     1      49.305   4.487  17.011  0.00  0.00    +0.000 OA
ATOM     32  C   UNL     1      48.791   6.212  18.547  0.00  0.00    +0.000 A 
ATOM     33  H   UNL     1      49.380   3.005  18.970  0.00  0.00    +0.000 HD
ENDBRANCH  20  23
ENDBRANCH  18  19
ENDBRANCH   4  18
TORSDOF 6
ENDMDL
MODEL 5
REMARK VINA RESULT:    -7.209      3.758      8.335
REMARK INTER + INTRA:         -10.440
REMARK INTER:                  -9.375
REMARK INTRA:                  -1.065
REMARK UNBOUND:                -0.703
REMARK  Name = 
REMARK  6 active torsions:
REMARK  status: ('A' for Active; 'I' for Inactive)
REMARK    1  A    between atoms: C_2  and  C_25
REMARK    2  A    between atoms: N_3  and  C_4
REMARK    3  A    between atoms: C_4  and  C_5
REMARK    4  A    between atoms: C_8  and  C_9
REMARK    5  A    between atoms: C_9  and  N_10
REMARK    6  A    between atoms: C_11  and  C_13
REMARK                            x       y       z     vdW  Elec       q    Type
REMARK                         _______ _______ _______ _____ _____    ______ ____
ROOT
ATOM      1  C   UNL     1      49.790   4.678  17.628  0.00  0.00    +0.000 A 
ATOM      2  C   UNL     1      50.583   5.776  17.286  0.00  0.00    +0.000 A 
ATOM      3  C   UNL     1      50.187   6.627  16.258  0.00  0.00    +0.000 A 
ATOM      4  C   UNL     1      48.996   6.361  15.585  0.00  0.00    +0.000 A 
ATOM      5  N   UNL     1      48.185   5.329  15.932  0.00  0.00    +0.000 NA
ATOM      6  C   UNL     1      48.594   4.521  16.938  0.00  0.00    +0.000 A 
ENDROOT
BRANCH   1   7
ATOM      7  C   UNL     1      50.211   3.710  18.691  0.00  0.00    +0.000 C 
BRANCH   7  10
ATOM      8  O   UNL     1      50.589   1.393  17.204  0.00  0.00    +0.000 OA
ATOM      9  C   UNL     1      51.579   1.968  17.646  0.00  0.00    +0.000 C 
ATOM     10  N   UNL     1      51.491   3.113  18.406  0.00  0.00    +0.000 N 
ATOM     11  H   UNL     1      52.328   3.643  18.593  0.00  0.00    +0.000 HD
BRANCH   9  12
ATOM     12  C   UNL     1      52.924   1.505  17.393  0.00  0.00    +0.000 A 
ATOM     13  C   UNL     1      54.150   2.156  17.414  0.00  0.00    +0.000 A 
ATOM     14  C   UNL     1      55.156   1.214  17.091  0.00  0.00    +0.000 A 
ATOM     15  C   UNL     1      54.534   0.007  16.885  0.00  0.00    +0.000 A 
ATOM     16  N   UNL     1      53.191   0.186  17.081  0.00  0.00    +0.000 N 
ATOM     17  H   UNL     1      52.477  -0.530  17.010  0.00  0.00    +0.000 HD
ENDBRANCH   9  12
ENDBRANCH   7  10
ENDBRANCH   1   7
BRANCH   4  18
ATOM     18  C   UNL     1      48.565   7.230  14.429  0.00  0.00    +0.000 C 
BRANCH  18  19
ATOM     19  N   UNL     1      47.289   6.830  13.883  0.00  0.00    +0.000 N 
ATOM     20  C   UNL     1      46.997   6.914  12.549  0.00  0.00    +0.000 C 
ATOM     21  O   UNL     1      47.804   7.349  11.732  0.00  0.00    +0.000 OA
ATOM     22  H   UNL     1      46.546   6.685  14.560  0.00  0.00    +0.000 HD
BRANCH  20  23
ATOM     23  C   UNL     1      45.691   6.388  12.129  0.00  0.00    +0.000 A 
ATOM     24  C   UNL     1      44.767   7.240  11.537  0.00  0.00    +0.000 A 
ATOM     25  S   UNL     1      43.318   6.467  11.080  0.00  0.00    +0.000 S 
ATOM     26  C   UNL     1      43.856   4.975  11.694  0.00  0.00    +0.000 A 
ATOM     27  N   UNL     1      43.061   3.871  11.648  0.00  0.00    +0.000 NA
ATOM     28  C   UNL     1      43.582   2.816  12.180  0.00  0.00    +0.000 A 
ATOM     29  N   UNL     1      44.830   2.761  12.743  0.00  0.00    +0.000 N 
ATOM     30  C   UNL     1      45.687   3.834  12.763  0.00  0.00    +0.000 A 
ATOM     31  O   UNL     1      46.830   3.726  13.193  0.00  0.00    +0.000 OA
ATOM     32  C   UNL     1      45.136   5.058  12.215  0.00  0.00    +0.000 A 
ATOM     33  H   UNL     1      45.191   1.897  13.120  0.00  0.00    +0.000 HD
ENDBRANCH  20  23
ENDBRANCH  18  19
ENDBRANCH   4  18
TORSDOF 6
ENDMDL
MODEL 6
REMARK VINA RESULT:    -7.120      1.639      2.193
REMARK INTER + INTRA:         -10.320
REMARK INTER:                  -9.271
REMARK INTRA:                  -1.050
REMARK UNBOUND:                -0.703
REMARK  Name = 
REMARK  6 active torsions:
REMARK  status: ('A' for Active; 'I' for Inactive)
REMARK    1  A    between atoms: C_2  and  C_25
REMARK    2  A    between atoms: N_3  and  C_4
REMARK    3  A    between atoms: C_4  and  C_5
REMARK    4  A    between atoms: C_8  and  C_9
REMARK    5  A    between atoms: C_9  and  N_10
REMARK    6  A    between atoms: C_11  and  C_13
REMARK                            x       y       z     vdW  Elec       q    Type
REMARK                         _______ _______ _______ _____ _____    ______ ____
ROOT
ATOM      1  C   UNL     1      45.927   7.255  11.904  0.00  0.00    +0.000 A 
ATOM      2  C   UNL     1      45.681   8.357  12.726  0.00  0.00    +0.000 A 
ATOM      3  C   UNL     1      46.702   8.875  13.518  0.00  0.00    +0.000 A 
ATOM      4  C   UNL     1      47.959   8.276  13.473  0.00  0.00    +0.000 A 
ATOM      5  N   UNL     1      48.235   7.235  12.646  0.00  0.00    +0.000 NA
ATOM      6  C   UNL     1      47.223   6.754  11.884  0.00  0.00    +0.000 A 
ENDROOT
BRANCH   1   7
ATOM      7  C   UNL     1      44.840   6.635  11.080  0.00  0.00    +0.000 C 
BRANCH   7  10
ATOM      8  O   UNL     1      43.444   4.319  10.442  0.00  0.00    +0.000 OA
ATOM      9  C   UNL     1      44.563   4.475   9.959  0.00  0.00    +0.000 C 
ATOM     10  N   UNL     1      45.335   5.582  10.230  0.00  0.00    +0.000 N 
ATOM     11  H   UNL     1      46.162   5.751   9.676  0.00  0.00    +0.000 HD
BRANCH   9  12
ATOM     12  C   UNL     1      45.158   3.520   9.053  0.00  0.00    +0.000 A 
ATOM     13  C   UNL     1      45.716   3.663   7.789  0.00  0.00    +0.000 A 
ATOM     14  C   UNL     1      46.158   2.390   7.356  0.00  0.00    +0.000 A 
ATOM     15  C   UNL     1      45.871   1.495   8.357  0.00  0.00    +0.000 A 
ATOM     16  N   UNL     1      45.281   2.185   9.383  0.00  0.00    +0.000 N 
ATOM     17  H   UNL     1      44.968   1.793  10.263  0.00  0.00    +0.000 HD
ENDBRANCH   9  12
ENDBRANCH   7  10
ENDBRANCH   1   7
BRANCH   4  18
ATOM     18  C   UNL     1      49.072   8.777  14.360  0.00  0.00    +0.000 C 
BRANCH  18  19
ATOM     19  N   UNL     1      49.221   7.986  15.560  0.00  0.00    +0.000 N 
ATOM     20  C   UNL     1      48.592   8.299  16.734  0.00  0.00    +0.000 C 
ATOM     21  O   UNL     1      47.868   9.285  16.841  0.00  0.00    +0.000 OA
ATOM     22  H   UNL     1      49.980   7.311  15.552  0.00  0.00    +0.000 HD
BRANCH  20  23
ATOM     23  C   UNL     1      48.768   7.354  17.845  0.00  0.00    +0.000 A 
ATOM     24  C   UNL     1      49.106   7.831  19.104  0.00  0.00    +0.000 A 
ATOM     25  S   UNL     1      49.239   6.610  20.286  0.00  0.00    +0.000 S 
ATOM     26  C   UNL     1      48.892   5.394  19.148  0.00  0.00    +0.000 A 
ATOM     27  N   UNL     1      48.877   4.082  19.508  0.00  0.00    +0.000 NA
ATOM     28  C   UNL     1      48.633   3.266  18.537  0.00  0.00    +0.000 A 
ATOM     29  N   UNL     1      48.389   3.643  17.243  0.00  0.00    +0.000 N 
ATOM     30  C   UNL     1      48.339   4.957  16.846  0.00  0.00    +0.000 A 
ATOM     31  O   UNL     1      48.029   5.263  15.700  0.00  0.00    +0.000 OA
ATOM     32  C   UNL     1      48.648   5.915  17.889  0.00  0.00    +0.000 A 
ATOM     33  H   UNL     1      48.179   2.956  16.534  0.00  0.00    +0.000 HD
ENDBRANCH  20  23
ENDBRANCH  18  19
ENDBRANCH   4  18
TORSDOF 6
ENDMDL
MODEL 7
REMARK VINA RESULT:    -7.060      1.881      2.436
REMARK INTER + INTRA:         -10.239
REMARK INTER:                  -9.418
REMARK INTRA:                  -0.821
REMARK UNBOUND:                -0.703
REMARK  Name = 
REMARK  6 active torsions:
REMARK  status: ('A' for Active; 'I' for Inactive)
REMARK    1  A    between atoms: C_2  and  C_25
REMARK    2  A    between atoms: N_3  and  C_4
REMARK    3  A    between atoms: C_4  and  C_5
REMARK    4  A    between atoms: C_8  and  C_9
REMARK    5  A    between atoms: C_9  and  N_10
REMARK    6  A    between atoms: C_11  and  C_13
REMARK                            x       y       z     vdW  Elec       q    Type
REMARK                         _______ _______ _______ _____ _____    ______ ____
ROOT
ATOM      1  C   UNL     1      45.131   4.612  11.360  0.00  0.00    +0.000 A 
ATOM      2  C   UNL     1      45.215   4.552  12.753  0.00  0.00    +0.000 A 
ATOM      3  C   UNL     1      45.889   5.549  13.453  0.00  0.00    +0.000 A 
ATOM      4  C   UNL     1      46.472   6.594  12.740  0.00  0.00    +0.000 A 
ATOM      5  N   UNL     1      46.362   6.700  11.392  0.00  0.00    +0.000 NA
ATOM      6  C   UNL     1      45.697   5.718  10.738  0.00  0.00    +0.000 A 
ENDROOT
BRANCH   1   7
ATOM      7  C   UNL     1      44.461   3.530  10.569  0.00  0.00    +0.000 C 
BRANCH   7  10
ATOM      8  O   UNL     1      44.525   4.215   7.877  0.00  0.00    +0.000 OA
ATOM      9  C   UNL     1      45.312   3.362   8.279  0.00  0.00    +0.000 C 
ATOM     10  N   UNL     1      45.344   2.946   9.591  0.00  0.00    +0.000 N 
ATOM     11  H   UNL     1      46.118   2.382   9.908  0.00  0.00    +0.000 HD
BRANCH   9  12
ATOM     12  C   UNL     1      46.284   2.733   7.414  0.00  0.00    +0.000 A 
ATOM     13  C   UNL     1      46.851   1.465   7.422  0.00  0.00    +0.000 A 
ATOM     14  C   UNL     1      47.750   1.377   6.332  0.00  0.00    +0.000 A 
ATOM     15  C   UNL     1      47.715   2.583   5.675  0.00  0.00    +0.000 A 
ATOM     16  N   UNL     1      46.820   3.391   6.324  0.00  0.00    +0.000 N 
ATOM     17  H   UNL     1      46.573   4.338   6.063  0.00  0.00    +0.000 HD
ENDBRANCH   9  12
ENDBRANCH   7  10
ENDBRANCH   1   7
BRANCH   4  18
ATOM     18  C   UNL     1      47.259   7.660  13.462  0.00  0.00    +0.000 C 
BRANCH  18  19
ATOM     19  N   UNL     1      47.626   7.265  14.803  0.00  0.00    +0.000 N 
ATOM     20  C   UNL     1      48.903   6.916  15.147  0.00  0.00    +0.000 C 
ATOM     21  O   UNL     1      49.818   6.905  14.328  0.00  0.00    +0.000 OA
ATOM     22  H   UNL     1      46.853   7.053  15.426  0.00  0.00    +0.000 HD
BRANCH  20  23
ATOM     23  C   UNL     1      49.143   6.623  16.566  0.00  0.00    +0.000 A 
ATOM     24  C   UNL     1      49.778   5.441  16.925  0.00  0.00    +0.000 A 
ATOM     25  S   UNL     1      50.009   5.270  18.605  0.00  0.00    +0.000 S 
ATOM     26  C   UNL     1      49.230   6.749  18.918  0.00  0.00    +0.000 A 
ATOM     27  N   UNL     1      49.058   7.193  20.193  0.00  0.00    +0.000 NA
ATOM     28  C   UNL     1      48.421   8.313  20.286  0.00  0.00    +0.000 A 
ATOM     29  N   UNL     1      47.952   9.035  19.219  0.00  0.00    +0.000 N 
ATOM     30  C   UNL     1      48.151   8.653  17.915  0.00  0.00    +0.000 A 
ATOM     31  O   UNL     1      47.799   9.368  16.984  0.00  0.00    +0.000 OA
ATOM     32  C   UNL     1      48.826   7.380  17.754  0.00  0.00    +0.000 A 
ATOM     33  H   UNL     1      47.484   9.919  19.358  0.00  0.00    +0.000 HD
ENDBRANCH  20  23
ENDBRANCH  18  19
ENDBRANCH   4  18
TORSDOF 6
ENDMDL
MODEL 8
REMARK VINA RESULT:    -6.792      2.244      3.564
REMARK INTER + INTRA:          -9.878
REMARK INTER:                  -8.883
REMARK INTRA:                  -0.994
REMARK UNBOUND:                -0.703
REMARK  Name = 
REMARK  6 active torsions:
REMARK  status: ('A' for Active; 'I' for Inactive)
REMARK    1  A    between atoms: C_2  and  C_25
REMARK    2  A    between atoms: N_3  and  C_4
REMARK    3  A    between atoms: C_4  and  C_5
REMARK    4  A    between atoms: C_8  and  C_9
REMARK    5  A    between atoms: C_9  and  N_10
REMARK    6  A    between atoms: C_11  and  C_13
REMARK                            x       y       z     vdW  Elec       q    Type
REMARK                         _______ _______ _______ _____ _____    ______ ____
ROOT
ATOM      1  C   UNL     1      45.895   5.348  11.844  0.00  0.00    +0.000 A 
ATOM      2  C   UNL     1      46.906   6.136  12.400  0.00  0.00    +0.000 A 
ATOM      3  C   UNL     1      47.371   5.865  13.684  0.00  0.00    +0.000 A 
ATOM      4  C   UNL     1      46.812   4.804  14.392  0.00  0.00    +0.000 A 
ATOM      5  N   UNL     1      45.864   3.995  13.855  0.00  0.00    +0.000 NA
ATOM      6  C   UNL     1      45.433   4.280  12.603  0.00  0.00    +0.000 A 
ENDROOT
BRANCH   1   7
ATOM      7  C   UNL     1      45.331   5.643  10.487  0.00  0.00    +0.000 C 
BRANCH   7  10
ATOM      8  O   UNL     1      44.192   3.348   9.413  0.00  0.00    +0.000 OA
ATOM      9  C   UNL     1      45.282   3.714   8.980  0.00  0.00    +0.000 C 
ATOM     10  N   UNL     1      45.930   4.829   9.461  0.00  0.00    +0.000 N 
ATOM     11  H   UNL     1      46.727   5.188   8.957  0.00  0.00    +0.000 HD
BRANCH   9  12
ATOM     12  C   UNL     1      45.968   3.017   7.917  0.00  0.00    +0.000 A 
ATOM     13  C   UNL     1      46.513   1.742   7.843  0.00  0.00    +0.000 A 
ATOM     14  C   UNL     1      47.067   1.573   6.551  0.00  0.00    +0.000 A 
ATOM     15  C   UNL     1      46.849   2.738   5.858  0.00  0.00    +0.000 A 
ATOM     16  N   UNL     1      46.175   3.599   6.682  0.00  0.00    +0.000 N 
ATOM     17  H   UNL     1      45.866   4.534   6.443  0.00  0.00    +0.000 HD
ENDBRANCH   9  12
ENDBRANCH   7  10
ENDBRANCH   1   7
BRANCH   4  18
ATOM     18  C   UNL     1      47.253   4.518  15.807  0.00  0.00    +0.000 C 
BRANCH  18  19
ATOM     19  N   UNL     1      48.164   5.517  16.315  0.00  0.00    +0.000 N 
ATOM     20  C   UNL     1      48.149   5.936  17.617  0.00  0.00    +0.000 C 
ATOM     21  O   UNL     1      47.347   5.494  18.435  0.00  0.00    +0.000 OA
ATOM     22  H   UNL     1      48.672   6.048  15.613  0.00  0.00    +0.000 HD
BRANCH  20  23
ATOM     23  C   UNL     1      49.193   6.893  18.010  0.00  0.00    +0.000 A 
ATOM     24  C   UNL     1      50.067   6.570  19.040  0.00  0.00    +0.000 A 
ATOM     25  S   UNL     1      51.237   7.772  19.348  0.00  0.00    +0.000 S 
ATOM     26  C   UNL     1      50.591   8.786  18.145  0.00  0.00    +0.000 A 
ATOM     27  N   UNL     1      51.122  10.016  17.908  0.00  0.00    +0.000 NA
ATOM     28  C   UNL     1      50.513  10.692  16.991  0.00  0.00    +0.000 A 
ATOM     29  N   UNL     1      49.429  10.244  16.281  0.00  0.00    +0.000 N 
ATOM     30  C   UNL     1      48.895   8.990  16.448  0.00  0.00    +0.000 A 
ATOM     31  O   UNL     1      47.984   8.588  15.733  0.00  0.00    +0.000 OA
ATOM     32  C   UNL     1      49.516   8.203  17.496  0.00  0.00    +0.000 A 
ATOM     33  H   UNL     1      49.013  10.812  15.557  0.00  0.00    +0.000 HD
ENDBRANCH  20  23
ENDBRANCH  18  19
ENDBRANCH   4  18
TORSDOF 6
ENDMDL
MODEL 9
REMARK VINA RESULT:    -6.530      1.996      2.776
REMARK INTER + INTRA:          -9.524
REMARK INTER:                  -8.480
REMARK INTRA:                  -1.044
REMARK UNBOUND:                -0.703
REMARK  Name = 
REMARK  6 active torsions:
REMARK  status: ('A' for Active; 'I' for Inactive)
REMARK    1  A    between atoms: C_2  and  C_25
REMARK    2  A    between atoms: N_3  and  C_4
REMARK    3  A    between atoms: C_4  and  C_5
REMARK    4  A    between atoms: C_8  and  C_9
REMARK    5  A    between atoms: C_9  and  N_10
REMARK    6  A    between atoms: C_11  and  C_13
REMARK                            x       y       z     vdW  Elec       q    Type
REMARK                         _______ _______ _______ _____ _____    ______ ____
ROOT
ATOM      1  C   UNL     1      46.280   7.710  12.132  0.00  0.00    +0.000 A 
ATOM      2  C   UNL     1      46.362   8.528  13.261  0.00  0.00    +0.000 A 
ATOM      3  C   UNL     1      47.604   8.820  13.820  0.00  0.00    +0.000 A 
ATOM      4  C   UNL     1      48.748   8.283  13.234  0.00  0.00    +0.000 A 
ATOM      5  N   UNL     1      48.697   7.526  12.109  0.00  0.00    +0.000 NA
ATOM      6  C   UNL     1      47.476   7.262  11.585  0.00  0.00    +0.000 A 
ENDROOT
BRANCH   1   7
ATOM      7  C   UNL     1      44.959   7.329  11.536  0.00  0.00    +0.000 C 
BRANCH   7  10
ATOM      8  O   UNL     1      44.224   4.699  12.048  0.00  0.00    +0.000 OA
ATOM      9  C   UNL     1      44.674   4.971  10.939  0.00  0.00    +0.000 C 
ATOM     10  N   UNL     1      45.079   6.242  10.598  0.00  0.00    +0.000 N 
ATOM     11  H   UNL     1      45.272   6.453   9.630  0.00  0.00    +0.000 HD
BRANCH   9  12
ATOM     12  C   UNL     1      44.802   3.987   9.890  0.00  0.00    +0.000 A 
ATOM     13  C   UNL     1      44.887   4.107   8.509  0.00  0.00    +0.000 A 
ATOM     14  C   UNL     1      45.005   2.808   7.959  0.00  0.00    +0.000 A 
ATOM     15  C   UNL     1      44.997   1.919   9.006  0.00  0.00    +0.000 A 
ATOM     16  N   UNL     1      44.888   2.636  10.167  0.00  0.00    +0.000 N 
ATOM     17  H   UNL     1      44.867   2.254  11.105  0.00  0.00    +0.000 HD
ENDBRANCH   9  12
ENDBRANCH   7  10
ENDBRANCH   1   7
BRANCH   4  18
ATOM     18  C   UNL     1      50.104   8.533  13.847  0.00  0.00    +0.000 C 
BRANCH  18  19
ATOM     19  N   UNL     1      50.562   7.421  14.648  0.00  0.00    +0.000 N 
ATOM     20  C   UNL     1      50.858   7.541  15.978  0.00  0.00    +0.000 C 
ATOM     21  O   UNL     1      50.763   8.611  16.572  0.00  0.00    +0.000 OA
ATOM     22  H   UNL     1      50.859   6.599  14.130  0.00  0.00    +0.000 HD
BRANCH  20  23
ATOM     23  C   UNL     1      51.227   6.305  16.681  0.00  0.00    +0.000 A 
ATOM     24  C   UNL     1      52.509   6.167  17.199  0.00  0.00    +0.000 A 
ATOM     25  S   UNL     1      52.764   4.690  18.012  0.00  0.00    +0.000 S 
ATOM     26  C   UNL     1      51.184   4.163  17.665  0.00  0.00    +0.000 A 
ATOM     27  N   UNL     1      50.754   2.935  18.060  0.00  0.00    +0.000 NA
ATOM     28  C   UNL     1      49.546   2.652  17.701  0.00  0.00    +0.000 A 
ATOM     29  N   UNL     1      48.726   3.490  16.992  0.00  0.00    +0.000 N 
ATOM     30  C   UNL     1      49.098   4.759  16.621  0.00  0.00    +0.000 A 
ATOM     31  O   UNL     1      48.308   5.516  16.068  0.00  0.00    +0.000 OA
ATOM     32  C   UNL     1      50.462   5.113  16.964  0.00  0.00    +0.000 A 
ATOM     33  H   UNL     1      47.780   3.219  16.764  0.00  0.00    +0.000 HD
ENDBRANCH  20  23
ENDBRANCH  18  19
ENDBRANCH   4  18
TORSDOF 6
ENDMDL
