MODEL 1
REMARK VINA RESULT:    -7.823      0.000      0.000
REMARK INTER + INTRA:         -12.112
REMARK INTER:                 -11.253
REMARK INTRA:                  -0.859
REMARK UNBOUND:                -0.859
REMARK  Name = 
REMARK  8 active torsions:
REMARK  status: ('A' for Active; 'I' for Inactive)
REMARK    1  A    between atoms: C_2  and  C_20
REMARK    2  A    between atoms: N_3  and  C_4
REMARK    3  A    between atoms: C_4  and  C_5
REMARK    4  A    between atoms: C_8  and  C_9
REMARK    5  A    between atoms: C_9  and  C_10
REMARK    6  A    between atoms: C_10  and  C_11
REMARK    7  A    between atoms: C_11  and  O_12
REMARK    8  A    between atoms: C_11  and  C_13
REMARK                            x       y       z     vdW  Elec       q    Type
REMARK                         _______ _______ _______ _____ _____    ______ ____
ROOT
ATOM      1  C   UNL     1      46.386   7.308  12.743  0.00  0.00    +0.000 A 
ATOM      2  C   UNL     1      45.254   7.853  12.120  0.00  0.00    +0.000 A 
ATOM      3  C   UNL     1      44.394   7.044  11.375  0.00  0.00    +0.000 A 
ATOM      4  C   UNL     1      44.647   5.674  11.239  0.00  0.00    +0.000 A 
ATOM      5  C   UNL     1      45.766   5.125  11.878  0.00  0.00    +0.000 A 
ATOM      6  C   UNL     1      46.622   5.933  12.633  0.00  0.00    +0.000 A 
ENDROOT
BRANCH   1   7
ATOM      7  C   UNL     1      47.312   8.186  13.541  0.00  0.00    +0.000 C 
BRANCH   7  10
ATOM      8  O   UNL     1      49.790   7.046  14.093  0.00  0.00    +0.000 OA
ATOM      9  C   UNL     1      48.950   7.086  14.990  0.00  0.00    +0.000 C 
ATOM     10  N   UNL     1      47.681   7.564  14.786  0.00  0.00    +0.000 N 
ATOM     11  H   UNL     1      47.089   7.764  15.586  0.00  0.00    +0.000 HD
BRANCH   9  12
ATOM     12  C   UNL     1      49.227   6.564  16.330  0.00  0.00    +0.000 A 
ATOM     13  C   UNL     1      49.969   7.302  17.234  0.00  0.00    +0.000 A 
ATOM     14  S   UNL     1      50.239   6.487  18.710  0.00  0.00    +0.000 S 
ATOM     15  C   UNL     1      49.317   5.148  18.205  0.00  0.00    +0.000 A 
ATOM     16  N   UNL     1      49.132   4.071  19.016  0.00  0.00    +0.000 NA
ATOM     17  C   UNL     1      48.371   3.152  18.519  0.00  0.00    +0.000 A 
ATOM     18  N   UNL     1      47.774   3.214  17.286  0.00  0.00    +0.000 N 
ATOM     19  C   UNL     1      47.960   4.262  16.420  0.00  0.00    +0.000 A 
ATOM     20  O   UNL     1      47.455   4.265  15.302  0.00  0.00    +0.000 OA
ATOM     21  C   UNL     1      48.811   5.320  16.930  0.00  0.00    +0.000 A 
ATOM     22  H   UNL     1      47.193   2.461  16.953  0.00  0.00    +0.000 HD
ENDBRANCH   9  12
ENDBRANCH   7  10
ENDBRANCH   1   7
BRANCH   4  23
ATOM     23  C   UNL     1      43.723   4.786  10.438  0.00  0.00    +0.000 C 
BRANCH  23  24
ATOM     24  C   UNL     1      44.410   3.578   9.794  0.00  0.00    +0.000 C 
BRANCH  24  25
ATOM     25  C   UNL     1      44.913   3.856   8.375  0.00  0.00    +0.000 C 
BRANCH  25  26
ATOM     26  C   UNL     1      45.858   2.792   7.915  0.00  0.00    +0.000 A 
ATOM     27  N   UNL     1      45.911   1.543   8.344  0.00  0.00    +0.000 NA
ATOM     28  C   UNL     1      46.934   0.956   7.644  0.00  0.00    +0.000 A 
ATOM     29  C   UNL     1      47.519   1.859   6.787  0.00  0.00    +0.000 A 
ATOM     30  N   UNL     1      46.825   3.024   6.972  0.00  0.00    +0.000 N 
ATOM     31  H   UNL     1      46.999   3.905   6.506  0.00  0.00    +0.000 HD
ENDBRANCH  25  26
BRANCH  25  32
ATOM     32  O   UNL     1      45.636   5.086   8.352  0.00  0.00    +0.000 OA
ATOM     33  H   UNL     1      45.265   5.589   7.603  0.00  0.00    +0.000 HD
ENDBRANCH  25  32
ENDBRANCH  24  25
ENDBRANCH  23  24
ENDBRANCH   4  23
TORSDOF 8
ENDMDL
MODEL 2
REMARK VINA RESULT:    -7.736      1.394      1.853
REMARK INTER + INTRA:         -11.987
REMARK INTER:                 -11.049
REMARK INTRA:                  -0.938
REMARK UNBOUND:                -0.859
REMARK  Name = 
REMARK  8 active torsions:
REMARK  status: ('A' for Active; 'I' for Inactive)
REMARK    1  A    between atoms: C_2  and  C_20
REMARK    2  A    between atoms: N_3  and  C_4
REMARK    3  A    between atoms: C_4  and  C_5
REMARK    4  A    between atoms: C_8  and  C_9
REMARK    5  A    between atoms: C_9  and  C_10
REMARK    6  A    between atoms: C_10  and  C_11
REMARK    7  A    between atoms: C_11  and  O_12
REMARK    8  A    between atoms: C_11  and  C_13
REMARK                            x       y       z     vdW  Elec       q    Type
REMARK                         _______ _______ _______ _____ _____    ______ ____
ROOT
ATOM      1  C   UNL     1      47.265   6.342  13.004  0.00  0.00    +0.000 A 
ATOM      2  C   UNL     1      46.684   5.245  13.653  0.00  0.00    +0.000 A 
ATOM      3  C   UNL     1      45.687   4.493  13.026  0.00  0.00    +0.000 A 
ATOM      4  C   UNL     1      45.254   4.824  11.737  0.00  0.00    +0.000 A 
ATOM      5  C   UNL     1      45.850   5.908  11.079  0.00  0.00    +0.000 A 
ATOM      6  C   UNL     1      46.855   6.654  11.702  0.00  0.00    +0.000 A 
ENDROOT
BRANCH   1   7
ATOM      7  C   UNL     1      48.336   7.151  13.686  0.00  0.00    +0.000 C 
BRANCH   7  10
ATOM      8  O   UNL     1      50.406   6.676  15.485  0.00  0.00    +0.000 OA
ATOM      9  C   UNL     1      49.288   6.928  15.931  0.00  0.00    +0.000 C 
ATOM     10  N   UNL     1      48.197   7.104  15.118  0.00  0.00    +0.000 N 
ATOM     11  H   UNL     1      47.347   7.501  15.505  0.00  0.00    +0.000 HD
BRANCH   9  12
ATOM     12  C   UNL     1      49.028   6.995  17.371  0.00  0.00    +0.000 A 
ATOM     13  C   UNL     1      48.760   8.205  17.982  0.00  0.00    +0.000 A 
ATOM     14  S   UNL     1      48.558   8.077  19.673  0.00  0.00    +0.000 S 
ATOM     15  C   UNL     1      48.761   6.388  19.625  0.00  0.00    +0.000 A 
ATOM     16  N   UNL     1      48.695   5.636  20.758  0.00  0.00    +0.000 NA
ATOM     17  C   UNL     1      48.819   4.364  20.564  0.00  0.00    +0.000 A 
ATOM     18  N   UNL     1      49.001   3.775  19.339  0.00  0.00    +0.000 N 
ATOM     19  C   UNL     1      49.111   4.493  18.175  0.00  0.00    +0.000 A 
ATOM     20  O   UNL     1      49.325   3.941  17.101  0.00  0.00    +0.000 OA
ATOM     21  C   UNL     1      48.980   5.929  18.340  0.00  0.00    +0.000 A 
ATOM     22  H   UNL     1      49.095   2.775  19.254  0.00  0.00    +0.000 HD
ENDBRANCH   9  12
ENDBRANCH   7  10
ENDBRANCH   1   7
BRANCH   4  23
ATOM     23  C   UNL     1      44.179   4.018  11.045  0.00  0.00    +0.000 C 
BRANCH  23  24
ATOM     24  C   UNL     1      44.700   2.801  10.274  0.00  0.00    +0.000 C 
BRANCH  24  25
ATOM     25  C   UNL     1      44.514   2.923   8.759  0.00  0.00    +0.000 C 
BRANCH  25  26
ATOM     26  C   UNL     1      45.782   2.612   8.029  0.00  0.00    +0.000 A 
ATOM     27  N   UNL     1      46.499   3.449   7.301  0.00  0.00    +0.000 NA
ATOM     28  C   UNL     1      47.556   2.714   6.827  0.00  0.00    +0.000 A 
ATOM     29  C   UNL     1      47.477   1.411   7.263  0.00  0.00    +0.000 A 
ATOM     30  N   UNL     1      46.341   1.361   8.025  0.00  0.00    +0.000 N 
ATOM     31  H   UNL     1      45.971   0.544   8.494  0.00  0.00    +0.000 HD
ENDBRANCH  25  26
BRANCH  25  32
ATOM     32  O   UNL     1      44.165   4.265   8.422  0.00  0.00    +0.000 OA
ATOM     33  H   UNL     1      43.259   4.388   8.764  0.00  0.00    +0.000 HD
ENDBRANCH  25  32
ENDBRANCH  24  25
ENDBRANCH  23  24
ENDBRANCH   4  23
TORSDOF 8
ENDMDL
MODEL 3
REMARK VINA RESULT:    -7.512      2.119      2.720
REMARK INTER + INTRA:         -11.665
REMARK INTER:                 -10.655
REMARK INTRA:                  -1.010
REMARK UNBOUND:                -0.859
REMARK  Name = 
REMARK  8 active torsions:
REMARK  status: ('A' for Active; 'I' for Inactive)
REMARK    1  A    between atoms: C_2  and  C_20
REMARK    2  A    between atoms: N_3  and  C_4
REMARK    3  A    between atoms: C_4  and  C_5
REMARK    4  A    between atoms: C_8  and  C_9
REMARK    5  A    between atoms: C_9  and  C_10
REMARK    6  A    between atoms: C_10  and  C_11
REMARK    7  A    between atoms: C_11  and  O_12
REMARK    8  A    between atoms: C_11  and  C_13
REMARK                            x       y       z     vdW  Elec       q    Type
REMARK                         _______ _______ _______ _____ _____    ______ ____
ROOT
ATOM      1  C   UNL     1      47.105   5.880  13.276  0.00  0.00    +0.000 A 
ATOM      2  C   UNL     1      46.503   6.496  12.170  0.00  0.00    +0.000 A 
ATOM      3  C   UNL     1      45.528   5.826  11.426  0.00  0.00    +0.000 A 
ATOM      4  C   UNL     1      45.136   4.528  11.774  0.00  0.00    +0.000 A 
ATOM      5  C   UNL     1      45.722   3.921  12.892  0.00  0.00    +0.000 A 
ATOM      6  C   UNL     1      46.690   4.595  13.644  0.00  0.00    +0.000 A 
ENDROOT
BRANCH   1   7
ATOM      7  C   UNL     1      48.157   6.605  14.071  0.00  0.00    +0.000 C 
BRANCH   7  10
ATOM      8  O   UNL     1      50.270   6.267  15.850  0.00  0.00    +0.000 OA
ATOM      9  C   UNL     1      49.124   6.257  16.293  0.00  0.00    +0.000 C 
ATOM     10  N   UNL     1      48.022   6.345  15.481  0.00  0.00    +0.000 N 
ATOM     11  H   UNL     1      47.113   6.531  15.892  0.00  0.00    +0.000 HD
BRANCH   9  12
ATOM     12  C   UNL     1      48.850   6.085  17.722  0.00  0.00    +0.000 A 
ATOM     13  C   UNL     1      49.136   4.888  18.353  0.00  0.00    +0.000 A 
ATOM     14  S   UNL     1      48.676   4.867  19.998  0.00  0.00    +0.000 S 
ATOM     15  C   UNL     1      48.139   6.481  19.927  0.00  0.00    +0.000 A 
ATOM     16  N   UNL     1      47.623   7.103  21.023  0.00  0.00    +0.000 NA
ATOM     17  C   UNL     1      47.303   8.340  20.834  0.00  0.00    +0.000 A 
ATOM     18  N   UNL     1      47.454   9.014  19.649  0.00  0.00    +0.000 N 
ATOM     19  C   UNL     1      47.935   8.420  18.509  0.00  0.00    +0.000 A 
ATOM     20  O   UNL     1      48.011   9.035  17.451  0.00  0.00    +0.000 OA
ATOM     21  C   UNL     1      48.308   7.027  18.669  0.00  0.00    +0.000 A 
ATOM     22  H   UNL     1      47.181   9.981  19.564  0.00  0.00    +0.000 HD
ENDBRANCH   9  12
ENDBRANCH   7  10
ENDBRANCH   1   7
BRANCH   4  23
ATOM     23  C   UNL     1      44.081   3.794  10.981  0.00  0.00    +0.000 C 
BRANCH  23  24
ATOM     24  C   UNL     1      44.624   2.653  10.114  0.00  0.00    +0.000 C 
BRANCH  24  25
ATOM     25  C   UNL     1      44.528   2.939   8.612  0.00  0.00    +0.000 C 
BRANCH  25  26
ATOM     26  C   UNL     1      45.809   2.612   7.913  0.00  0.00    +0.000 A 
ATOM     27  N   UNL     1      46.506   3.413   7.126  0.00  0.00    +0.000 NA
ATOM     28  C   UNL     1      47.587   2.677   6.715  0.00  0.00    +0.000 A 
ATOM     29  C   UNL     1      47.545   1.409   7.249  0.00  0.00    +0.000 A 
ATOM     30  N   UNL     1      46.406   1.382   8.008  0.00  0.00    +0.000 N 
ATOM     31  H   UNL     1      46.058   0.594   8.537  0.00  0.00    +0.000 HD
ENDBRANCH  25  26
BRANCH  25  32
ATOM     32  O   UNL     1      44.288   4.330   8.401  0.00  0.00    +0.000 OA
ATOM     33  H   UNL     1      45.018   4.790   8.859  0.00  0.00    +0.000 HD
ENDBRANCH  25  32
ENDBRANCH  24  25
ENDBRANCH  23  24
ENDBRANCH   4  23
TORSDOF 8
ENDMDL
MODEL 4
REMARK VINA RESULT:    -7.236      2.435      3.202
REMARK INTER + INTRA:         -11.267
REMARK INTER:                 -10.243
REMARK INTRA:                  -1.024
REMARK UNBOUND:                -0.859
REMARK  Name = 
REMARK  8 active torsions:
REMARK  status: ('A' for Active; 'I' for Inactive)
REMARK    1  A    between atoms: C_2  and  C_20
REMARK    2  A    between atoms: N_3  and  C_4
REMARK    3  A    between atoms: C_4  and  C_5
REMARK    4  A    between atoms: C_8  and  C_9
REMARK    5  A    between atoms: C_9  and  C_10
REMARK    6  A    between atoms: C_10  and  C_11
REMARK    7  A    between atoms: C_11  and  O_12
REMARK    8  A    between atoms: C_11  and  C_13
REMARK                            x       y       z     vdW  Elec       q    Type
REMARK                         _______ _______ _______ _____ _____    ______ ____
ROOT
ATOM      1  C   UNL     1      46.858   4.695  13.949  0.00  0.00    +0.000 A 
ATOM      2  C   UNL     1      46.417   5.866  13.318  0.00  0.00    +0.000 A 
ATOM      3  C   UNL     1      45.561   5.801  12.216  0.00  0.00    +0.000 A 
ATOM      4  C   UNL     1      45.128   4.564  11.725  0.00  0.00    +0.000 A 
ATOM      5  C   UNL     1      45.553   3.394  12.368  0.00  0.00    +0.000 A 
ATOM      6  C   UNL     1      46.401   3.459  13.478  0.00  0.00    +0.000 A 
ENDROOT
BRANCH   1   7
ATOM      7  C   UNL     1      47.783   4.772  15.134  0.00  0.00    +0.000 C 
BRANCH   7  10
ATOM      8  O   UNL     1      50.068   6.008  16.131  0.00  0.00    +0.000 OA
ATOM      9  C   UNL     1      49.025   6.656  16.083  0.00  0.00    +0.000 C 
ATOM     10  N   UNL     1      47.837   6.105  15.674  0.00  0.00    +0.000 N 
ATOM     11  H   UNL     1      47.053   6.713  15.461  0.00  0.00    +0.000 HD
BRANCH   9  12
ATOM     12  C   UNL     1      48.961   8.052  16.523  0.00  0.00    +0.000 A 
ATOM     13  C   UNL     1      49.504   9.060  15.747  0.00  0.00    +0.000 A 
ATOM     14  S   UNL     1      49.391  10.602  16.470  0.00  0.00    +0.000 S 
ATOM     15  C   UNL     1      48.557   9.974  17.815  0.00  0.00    +0.000 A 
ATOM     16  N   UNL     1      48.146  10.780  18.831  0.00  0.00    +0.000 NA
ATOM     17  C   UNL     1      47.483  10.173  19.760  0.00  0.00    +0.000 A 
ATOM     18  N   UNL     1      47.192   8.833  19.763  0.00  0.00    +0.000 N 
ATOM     19  C   UNL     1      47.616   7.975  18.781  0.00  0.00    +0.000 A 
ATOM     20  O   UNL     1      47.384   6.772  18.838  0.00  0.00    +0.000 OA
ATOM     21  C   UNL     1      48.368   8.608  17.713  0.00  0.00    +0.000 A 
ATOM     22  H   UNL     1      46.672   8.417  20.521  0.00  0.00    +0.000 HD
ENDBRANCH   9  12
ENDBRANCH   7  10
ENDBRANCH   1   7
BRANCH   4  23
ATOM     23  C   UNL     1      44.201   4.478  10.536  0.00  0.00    +0.000 C 
BRANCH  23  24
ATOM     24  C   UNL     1      44.551   3.368   9.540  0.00  0.00    +0.000 C 
BRANCH  24  25
ATOM     25  C   UNL     1      45.098   3.900   8.212  0.00  0.00    +0.000 C 
BRANCH  25  26
ATOM     26  C   UNL     1      46.160   3.002   7.663  0.00  0.00    +0.000 A 
ATOM     27  N   UNL     1      46.319   1.716   7.923  0.00  0.00    +0.000 NA
ATOM     28  C   UNL     1      47.421   1.328   7.205  0.00  0.00    +0.000 A 
ATOM     29  C   UNL     1      47.947   2.391   6.508  0.00  0.00    +0.000 A 
ATOM     30  N   UNL     1      47.135   3.451   6.811  0.00  0.00    +0.000 N 
ATOM     31  H   UNL     1      47.240   4.399   6.477  0.00  0.00    +0.000 HD
ENDBRANCH  25  26
BRANCH  25  32
ATOM     32  O   UNL     1      45.704   5.175   8.417  0.00  0.00    +0.000 OA
ATOM     33  H   UNL     1      45.188   5.594   9.132  0.00  0.00    +0.000 HD
ENDBRANCH  25  32
ENDBRANCH  24  25
ENDBRANCH  23  24
ENDBRANCH   4  23
TORSDOF 8
ENDMDL
MODEL 5
REMARK VINA RESULT:    -7.214      2.773      3.755
REMARK INTER + INTRA:         -11.236
REMARK INTER:                 -10.304
REMARK INTRA:                  -0.932
REMARK UNBOUND:                -0.859
REMARK  Name = 
REMARK  8 active torsions:
REMARK  status: ('A' for Active; 'I' for Inactive)
REMARK    1  A    between atoms: C_2  and  C_20
REMARK    2  A    between atoms: N_3  and  C_4
REMARK    3  A    between atoms: C_4  and  C_5
REMARK    4  A    between atoms: C_8  and  C_9
REMARK    5  A    between atoms: C_9  and  C_10
REMARK    6  A    between atoms: C_10  and  C_11
REMARK    7  A    between atoms: C_11  and  O_12
REMARK    8  A    between atoms: C_11  and  C_13
REMARK                            x       y       z     vdW  Elec       q    Type
REMARK                         _______ _______ _______ _____ _____    ______ ____
ROOT
ATOM      1  C   UNL     1      48.594   6.212  15.440  0.00  0.00    +0.000 A 
ATOM      2  C   UNL     1      47.857   5.112  15.902  0.00  0.00    +0.000 A 
ATOM      3  C   UNL     1      46.945   4.465  15.065  0.00  0.00    +0.000 A 
ATOM      4  C   UNL     1      46.752   4.904  13.750  0.00  0.00    +0.000 A 
ATOM      5  C   UNL     1      47.503   5.990  13.282  0.00  0.00    +0.000 A 
ATOM      6  C   UNL     1      48.425   6.631  14.115  0.00  0.00    +0.000 A 
ENDROOT
BRANCH   1   7
ATOM      7  C   UNL     1      49.573   6.907  16.347  0.00  0.00    +0.000 C 
BRANCH   7  10
ATOM      8  O   UNL     1      49.915   6.095  18.987  0.00  0.00    +0.000 OA
ATOM      9  C   UNL     1      50.644   5.608  18.125  0.00  0.00    +0.000 C 
ATOM     10  N   UNL     1      50.592   6.003  16.812  0.00  0.00    +0.000 N 
ATOM     11  H   UNL     1      51.062   5.446  16.106  0.00  0.00    +0.000 HD
BRANCH   9  12
ATOM     12  C   UNL     1      51.668   4.613  18.452  0.00  0.00    +0.000 A 
ATOM     13  C   UNL     1      52.744   4.949  19.252  0.00  0.00    +0.000 A 
ATOM     14  S   UNL     1      53.860   3.672  19.453  0.00  0.00    +0.000 S 
ATOM     15  C   UNL     1      52.901   2.614  18.526  0.00  0.00    +0.000 A 
ATOM     16  N   UNL     1      53.280   1.325  18.307  0.00  0.00    +0.000 NA
ATOM     17  C   UNL     1      52.431   0.626  17.628  0.00  0.00    +0.000 A 
ATOM     18  N   UNL     1      51.235   1.098  17.151  0.00  0.00    +0.000 N 
ATOM     19  C   UNL     1      50.827   2.397  17.315  0.00  0.00    +0.000 A 
ATOM     20  O   UNL     1      49.775   2.803  16.832  0.00  0.00    +0.000 OA
ATOM     21  C   UNL     1      51.748   3.225  18.071  0.00  0.00    +0.000 A 
ATOM     22  H   UNL     1      50.616   0.501  16.623  0.00  0.00    +0.000 HD
ENDBRANCH   9  12
ENDBRANCH   7  10
ENDBRANCH   1   7
BRANCH   4  23
ATOM     23  C   UNL     1      45.771   4.212  12.834  0.00  0.00    +0.000 C 
BRANCH  23  24
ATOM     24  C   UNL     1      45.156   5.121  11.765  0.00  0.00    +0.000 C 
BRANCH  24  25
ATOM     25  C   UNL     1      44.100   4.416  10.909  0.00  0.00    +0.000 C 
BRANCH  25  26
ATOM     26  C   UNL     1      44.730   3.658   9.783  0.00  0.00    +0.000 A 
ATOM     27  N   UNL     1      45.113   4.149   8.618  0.00  0.00    +0.000 NA
ATOM     28  C   UNL     1      45.619   3.084   7.918  0.00  0.00    +0.000 A 
ATOM     29  C   UNL     1      45.536   1.929   8.660  0.00  0.00    +0.000 A 
ATOM     30  N   UNL     1      44.965   2.310   9.845  0.00  0.00    +0.000 N 
ATOM     31  H   UNL     1      44.745   1.704  10.625  0.00  0.00    +0.000 HD
ENDBRANCH  25  26
BRANCH  25  32
ATOM     32  O   UNL     1      43.234   5.383  10.318  0.00  0.00    +0.000 OA
ATOM     33  H   UNL     1      42.495   5.486  10.948  0.00  0.00    +0.000 HD
ENDBRANCH  25  32
ENDBRANCH  24  25
ENDBRANCH  23  24
ENDBRANCH   4  23
TORSDOF 8
ENDMDL
MODEL 6
REMARK VINA RESULT:    -6.779      1.976      2.674
REMARK INTER + INTRA:         -10.610
REMARK INTER:                  -9.784
REMARK INTRA:                  -0.825
REMARK UNBOUND:                -0.859
REMARK  Name = 
REMARK  8 active torsions:
REMARK  status: ('A' for Active; 'I' for Inactive)
REMARK    1  A    between atoms: C_2  and  C_20
REMARK    2  A    between atoms: N_3  and  C_4
REMARK    3  A    between atoms: C_4  and  C_5
REMARK    4  A    between atoms: C_8  and  C_9
REMARK    5  A    between atoms: C_9  and  C_10
REMARK    6  A    between atoms: C_10  and  C_11
REMARK    7  A    between atoms: C_11  and  O_12
REMARK    8  A    between atoms: C_11  and  C_13
REMARK                            x       y       z     vdW  Elec       q    Type
REMARK                         _______ _______ _______ _____ _____    ______ ____
ROOT
ATOM      1  C   UNL     1      46.821   6.747  13.171  0.00  0.00    +0.000 A 
ATOM      2  C   UNL     1      45.903   7.348  12.299  0.00  0.00    +0.000 A 
ATOM      3  C   UNL     1      45.011   6.569  11.558  0.00  0.00    +0.000 A 
ATOM      4  C   UNL     1      45.020   5.174  11.676  0.00  0.00    +0.000 A 
ATOM      5  C   UNL     1      45.923   4.575  12.564  0.00  0.00    +0.000 A 
ATOM      6  C   UNL     1      46.808   5.355  13.314  0.00  0.00    +0.000 A 
ENDROOT
BRANCH   1   7
ATOM      7  C   UNL     1      47.781   7.592  13.965  0.00  0.00    +0.000 C 
BRANCH   7  10
ATOM      8  O   UNL     1      48.412   8.001  16.644  0.00  0.00    +0.000 OA
ATOM      9  C   UNL     1      48.881   7.017  16.075  0.00  0.00    +0.000 C 
ATOM     10  N   UNL     1      48.681   6.777  14.739  0.00  0.00    +0.000 N 
ATOM     11  H   UNL     1      48.913   5.868  14.356  0.00  0.00    +0.000 HD
BRANCH   9  12
ATOM     12  C   UNL     1      49.745   6.062  16.772  0.00  0.00    +0.000 A 
ATOM     13  C   UNL     1      49.199   5.055  17.547  0.00  0.00    +0.000 A 
ATOM     14  S   UNL     1      50.374   4.095  18.330  0.00  0.00    +0.000 S 
ATOM     15  C   UNL     1      51.648   4.960  17.604  0.00  0.00    +0.000 A 
ATOM     16  N   UNL     1      52.948   4.640  17.847  0.00  0.00    +0.000 NA
ATOM     17  C   UNL     1      53.805   5.351  17.190  0.00  0.00    +0.000 A 
ATOM     18  N   UNL     1      53.479   6.351  16.310  0.00  0.00    +0.000 N 
ATOM     19  C   UNL     1      52.186   6.733  16.061  0.00  0.00    +0.000 A 
ATOM     20  O   UNL     1      51.928   7.666  15.307  0.00  0.00    +0.000 OA
ATOM     21  C   UNL     1      51.184   5.966  16.777  0.00  0.00    +0.000 A 
ATOM     22  H   UNL     1      54.196   6.872  15.830  0.00  0.00    +0.000 HD
ENDBRANCH   9  12
ENDBRANCH   7  10
ENDBRANCH   1   7
BRANCH   4  23
ATOM     23  C   UNL     1      44.059   4.319  10.883  0.00  0.00    +0.000 C 
BRANCH  23  24
ATOM     24  C   UNL     1      44.734   3.263  10.001  0.00  0.00    +0.000 C 
BRANCH  24  25
ATOM     25  C   UNL     1      44.886   3.704   8.542  0.00  0.00    +0.000 C 
BRANCH  25  26
ATOM     26  C   UNL     1      45.876   2.850   7.816  0.00  0.00    +0.000 A 
ATOM     27  N   UNL     1      46.526   3.162   6.710  0.00  0.00    +0.000 NA
ATOM     28  C   UNL     1      47.306   2.072   6.420  0.00  0.00    +0.000 A 
ATOM     29  C   UNL     1      47.123   1.080   7.355  0.00  0.00    +0.000 A 
ATOM     30  N   UNL     1      46.207   1.589   8.237  0.00  0.00    +0.000 N 
ATOM     31  H   UNL     1      45.832   1.116   9.048  0.00  0.00    +0.000 HD
ENDBRANCH  25  26
BRANCH  25  32
ATOM     32  O   UNL     1      45.382   5.041   8.492  0.00  0.00    +0.000 OA
ATOM     33  H   UNL     1      44.637   5.603   8.780  0.00  0.00    +0.000 HD
ENDBRANCH  25  32
ENDBRANCH  24  25
ENDBRANCH  23  24
ENDBRANCH   4  23
TORSDOF 8
ENDMDL
MODEL 7
REMARK VINA RESULT:    -6.717      1.882      2.441
REMARK INTER + INTRA:         -10.520
REMARK INTER:                  -9.508
REMARK INTRA:                  -1.013
REMARK UNBOUND:                -0.859
REMARK  Name = 
REMARK  8 active torsions:
REMARK  status: ('A' for Active; 'I' for Inactive)
REMARK    1  A    between atoms: C_2  and  C_20
REMARK    2  A    between atoms: N_3  and  C_4
REMARK    3  A    between atoms: C_4  and  C_5
REMARK    4  A    between atoms: C_8  and  C_9
REMARK    5  A    between atoms: C_9  and  C_10
REMARK    6  A    between atoms: C_10  and  C_11
REMARK    7  A    between atoms: C_11  and  O_12
REMARK    8  A    between atoms: C_11  and  C_13
REMARK                            x       y       z     vdW  Elec       q    Type
REMARK                         _______ _______ _______ _____ _____    ______ ____
ROOT
ATOM      1  C   UNL     1      48.099   7.914  14.178  0.00  0.00    +0.000 A 
ATOM      2  C   UNL     1      47.059   8.717  13.691  0.00  0.00    +0.000 A 
ATOM      3  C   UNL     1      46.092   8.186  12.834  0.00  0.00    +0.000 A 
ATOM      4  C   UNL     1      46.146   6.841  12.450  0.00  0.00    +0.000 A 
ATOM      5  C   UNL     1      47.174   6.033  12.953  0.00  0.00    +0.000 A 
ATOM      6  C   UNL     1      48.136   6.562  13.819  0.00  0.00    +0.000 A 
ENDROOT
BRANCH   1   7
ATOM      7  C   UNL     1      49.140   8.494  15.098  0.00  0.00    +0.000 C 
BRANCH   7  10
ATOM      8  O   UNL     1      49.171   7.599  17.733  0.00  0.00    +0.000 OA
ATOM      9  C   UNL     1      49.909   7.048  16.918  0.00  0.00    +0.000 C 
ATOM     10  N   UNL     1      50.011   7.471  15.617  0.00  0.00    +0.000 N 
ATOM     11  H   UNL     1      50.471   6.878  14.935  0.00  0.00    +0.000 HD
BRANCH   9  12
ATOM     12  C   UNL     1      50.786   5.937  17.298  0.00  0.00    +0.000 A 
ATOM     13  C   UNL     1      52.051   6.180  17.799  0.00  0.00    +0.000 A 
ATOM     14  S   UNL     1      52.937   4.754  18.111  0.00  0.00    +0.000 S 
ATOM     15  C   UNL     1      51.629   3.771  17.643  0.00  0.00    +0.000 A 
ATOM     16  N   UNL     1      51.717   2.413  17.679  0.00  0.00    +0.000 NA
ATOM     17  C   UNL     1      50.631   1.798  17.343  0.00  0.00    +0.000 A 
ATOM     18  N   UNL     1      49.464   2.418  16.975  0.00  0.00    +0.000 N 
ATOM     19  C   UNL     1      49.339   3.781  16.888  0.00  0.00    +0.000 A 
ATOM     20  O   UNL     1      48.298   4.304  16.506  0.00  0.00    +0.000 OA
ATOM     21  C   UNL     1      50.533   4.519  17.255  0.00  0.00    +0.000 A 
ATOM     22  H   UNL     1      48.651   1.880  16.719  0.00  0.00    +0.000 HD
ENDBRANCH   9  12
ENDBRANCH   7  10
ENDBRANCH   1   7
BRANCH   4  23
ATOM     23  C   UNL     1      45.106   6.252  11.526  0.00  0.00    +0.000 C 
BRANCH  23  24
ATOM     24  C   UNL     1      45.042   4.721  11.541  0.00  0.00    +0.000 C 
BRANCH  24  25
ATOM     25  C   UNL     1      44.121   4.146  10.461  0.00  0.00    +0.000 C 
BRANCH  25  26
ATOM     26  C   UNL     1      44.906   3.497   9.366  0.00  0.00    +0.000 A 
ATOM     27  N   UNL     1      45.311   4.063   8.243  0.00  0.00    +0.000 NA
ATOM     28  C   UNL     1      45.978   3.082   7.556  0.00  0.00    +0.000 A 
ATOM     29  C   UNL     1      45.971   1.901   8.262  0.00  0.00    +0.000 A 
ATOM     30  N   UNL     1      45.282   2.180   9.412  0.00  0.00    +0.000 N 
ATOM     31  H   UNL     1      45.077   1.530  10.159  0.00  0.00    +0.000 HD
ENDBRANCH  25  26
BRANCH  25  32
ATOM     32  O   UNL     1      43.368   5.198   9.859  0.00  0.00    +0.000 OA
ATOM     33  H   UNL     1      42.851   4.771   9.149  0.00  0.00    +0.000 HD
ENDBRANCH  25  32
ENDBRANCH  24  25
ENDBRANCH  23  24
ENDBRANCH   4  23
TORSDOF 8
ENDMDL
MODEL 8
REMARK VINA RESULT:    -6.615      2.520      4.108
REMARK INTER + INTRA:         -10.374
REMARK INTER:                  -9.493
REMARK INTRA:                  -0.881
REMARK UNBOUND:                -0.859
REMARK  Name = 
REMARK  8 active torsions:
REMARK  status: ('A' for Active; 'I' for Inactive)
REMARK    1  A    between atoms: C_2  and  C_20
REMARK    2  A    between atoms: N_3  and  C_4
REMARK    3  A    between atoms: C_4  and  C_5
REMARK    4  A    between atoms: C_8  and  C_9
REMARK    5  A    between atoms: C_9  and  C_10
REMARK    6  A    between atoms: C_10  and  C_11
REMARK    7  A    between atoms: C_11  and  O_12
REMARK    8  A    between atoms: C_11  and  C_13
REMARK                            x       y       z     vdW  Elec       q    Type
REMARK                         _______ _______ _______ _____ _____    ______ ____
ROOT
ATOM      1  C   UNL     1      46.264   5.025  12.958  0.00  0.00    +0.000 A 
ATOM      2  C   UNL     1      45.427   3.930  12.705  0.00  0.00    +0.000 A 
ATOM      3  C   UNL     1      44.818   3.773  11.457  0.00  0.00    +0.000 A 
ATOM      4  C   UNL     1      45.036   4.708  10.438  0.00  0.00    +0.000 A 
ATOM      5  C   UNL     1      45.889   5.792  10.685  0.00  0.00    +0.000 A 
ATOM      6  C   UNL     1      46.507   5.943  11.930  0.00  0.00    +0.000 A 
ENDROOT
BRANCH   1   7
ATOM      7  C   UNL     1      46.914   5.191  14.305  0.00  0.00    +0.000 C 
BRANCH   7  10
ATOM      8  O   UNL     1      49.152   5.726  15.871  0.00  0.00    +0.000 OA
ATOM      9  C   UNL     1      48.696   6.629  15.172  0.00  0.00    +0.000 C 
ATOM     10  N   UNL     1      47.555   6.474  14.426  0.00  0.00    +0.000 N 
ATOM     11  H   UNL     1      47.325   7.164  13.719  0.00  0.00    +0.000 HD
BRANCH   9  12
ATOM     12  C   UNL     1      49.304   7.961  15.138  0.00  0.00    +0.000 A 
ATOM     13  C   UNL     1      49.395   8.722  16.288  0.00  0.00    +0.000 A 
ATOM     14  S   UNL     1      50.069  10.268  16.022  0.00  0.00    +0.000 S 
ATOM     15  C   UNL     1      50.316   9.939  14.371  0.00  0.00    +0.000 A 
ATOM     16  N   UNL     1      50.880  10.860  13.542  0.00  0.00    +0.000 NA
ATOM     17  C   UNL     1      51.050  10.454  12.327  0.00  0.00    +0.000 A 
ATOM     18  N   UNL     1      50.709   9.208  11.865  0.00  0.00    +0.000 N 
ATOM     19  C   UNL     1      50.106   8.260  12.652  0.00  0.00    +0.000 A 
ATOM     20  O   UNL     1      49.766   7.173  12.197  0.00  0.00    +0.000 OA
ATOM     21  C   UNL     1      49.891   8.669  14.028  0.00  0.00    +0.000 A 
ATOM     22  H   UNL     1      50.864   8.953  10.902  0.00  0.00    +0.000 HD
ENDBRANCH   9  12
ENDBRANCH   7  10
ENDBRANCH   1   7
BRANCH   4  23
ATOM     23  C   UNL     1      44.387   4.550   9.084  0.00  0.00    +0.000 C 
BRANCH  23  24
ATOM     24  C   UNL     1      44.372   3.112   8.554  0.00  0.00    +0.000 C 
BRANCH  24  25
ATOM     25  C   UNL     1      45.719   2.400   8.710  0.00  0.00    +0.000 C 
BRANCH  25  26
ATOM     26  C   UNL     1      46.505   2.439   7.438  0.00  0.00    +0.000 A 
ATOM     27  N   UNL     1      47.607   1.762   7.170  0.00  0.00    +0.000 NA
ATOM     28  C   UNL     1      47.965   2.129   5.898  0.00  0.00    +0.000 A 
ATOM     29  C   UNL     1      47.077   3.047   5.387  0.00  0.00    +0.000 A 
ATOM     30  N   UNL     1      46.154   3.237   6.380  0.00  0.00    +0.000 N 
ATOM     31  H   UNL     1      45.359   3.861   6.347  0.00  0.00    +0.000 HD
ENDBRANCH  25  26
BRANCH  25  32
ATOM     32  O   UNL     1      45.503   1.023   9.017  0.00  0.00    +0.000 OA
ATOM     33  H   UNL     1      46.385   0.606   8.966  0.00  0.00    +0.000 HD
ENDBRANCH  25  32
ENDBRANCH  24  25
ENDBRANCH  23  24
ENDBRANCH   4  23
TORSDOF 8
ENDMDL
MODEL 9
REMARK VINA RESULT:    -6.301      3.398      4.794
REMARK INTER + INTRA:          -9.923
REMARK INTER:                  -8.725
REMARK INTRA:                  -1.197
REMARK UNBOUND:                -0.859
REMARK  Name = 
REMARK  8 active torsions:
REMARK  status: ('A' for Active; 'I' for Inactive)
REMARK    1  A    between atoms: C_2  and  C_20
REMARK    2  A    between atoms: N_3  and  C_4
REMARK    3  A    between atoms: C_4  and  C_5
REMARK    4  A    between atoms: C_8  and  C_9
REMARK    5  A    between atoms: C_9  and  C_10
REMARK    6  A    between atoms: C_10  and  C_11
REMARK    7  A    between atoms: C_11  and  O_12
REMARK    8  A    between atoms: C_11  and  C_13
REMARK                            x       y       z     vdW  Elec       q    Type
REMARK                         _______ _______ _______ _____ _____    ______ ____
ROOT
ATOM      1  C   UNL     1      47.231   7.934  13.614  0.00  0.00    +0.000 A 
ATOM      2  C   UNL     1      46.150   8.566  12.984  0.00  0.00    +0.000 A 
ATOM      3  C   UNL     1      45.333   7.864  12.095  0.00  0.00    +0.000 A 
ATOM      4  C   UNL     1      45.581   6.514  11.818  0.00  0.00    +0.000 A 
ATOM      5  C   UNL     1      46.649   5.876  12.463  0.00  0.00    +0.000 A 
ATOM      6  C   UNL     1      47.460   6.576  13.362  0.00  0.00    +0.000 A 
ENDROOT
BRANCH   1   7
ATOM      7  C   UNL     1      48.109   8.697  14.568  0.00  0.00    +0.000 C 
BRANCH   7  10
ATOM      8  O   UNL     1      50.452   7.398  15.322  0.00  0.00    +0.000 OA
ATOM      9  C   UNL     1      50.501   8.204  14.394  0.00  0.00    +0.000 C 
ATOM     10  N   UNL     1      49.411   8.940  14.004  0.00  0.00    +0.000 N 
ATOM     11  H   UNL     1      49.437   9.439  13.122  0.00  0.00    +0.000 HD
BRANCH   9  12
ATOM     12  C   UNL     1      51.748   8.482  13.678  0.00  0.00    +0.000 A 
ATOM     13  C   UNL     1      52.871   8.910  14.363  0.00  0.00    +0.000 A 
ATOM     14  S   UNL     1      54.196   9.248  13.340  0.00  0.00    +0.000 S 
ATOM     15  C   UNL     1      53.323   8.772  11.958  0.00  0.00    +0.000 A 
ATOM     16  N   UNL     1      53.886   8.809  10.719  0.00  0.00    +0.000 NA
ATOM     17  C   UNL     1      53.122   8.372   9.772  0.00  0.00    +0.000 A 
ATOM     18  N   UNL     1      51.847   7.901   9.951  0.00  0.00    +0.000 N 
ATOM     19  C   UNL     1      51.225   7.879  11.173  0.00  0.00    +0.000 A 
ATOM     20  O   UNL     1      50.065   7.500  11.294  0.00  0.00    +0.000 OA
ATOM     21  C   UNL     1      52.041   8.362  12.272  0.00  0.00    +0.000 A 
ATOM     22  H   UNL     1      51.299   7.577   9.168  0.00  0.00    +0.000 HD
ENDBRANCH   9  12
ENDBRANCH   7  10
ENDBRANCH   1   7
BRANCH   4  23
ATOM     23  C   UNL     1      44.705   5.741  10.861  0.00  0.00    +0.000 C 
BRANCH  23  24
ATOM     24  C   UNL     1      45.091   4.267  10.702  0.00  0.00    +0.000 C 
BRANCH  24  25
ATOM     25  C   UNL     1      44.472   3.613   9.463  0.00  0.00    +0.000 C 
BRANCH  25  26
ATOM     26  C   UNL     1      45.526   3.166   8.501  0.00  0.00    +0.000 A 
ATOM     27  N   UNL     1      46.146   3.915   7.606  0.00  0.00    +0.000 NA
ATOM     28  C   UNL     1      47.010   3.071   6.956  0.00  0.00    +0.000 A 
ATOM     29  C   UNL     1      46.909   1.792   7.451  0.00  0.00    +0.000 A 
ATOM     30  N   UNL     1      45.957   1.867   8.433  0.00  0.00    +0.000 N 
ATOM     31  H   UNL     1      45.623   1.101   9.001  0.00  0.00    +0.000 HD
ENDBRANCH  25  26
BRANCH  25  32
ATOM     32  O   UNL     1      43.659   4.560   8.773  0.00  0.00    +0.000 OA
ATOM     33  H   UNL     1      43.583   4.218   7.861  0.00  0.00    +0.000 HD
ENDBRANCH  25  32
ENDBRANCH  24  25
ENDBRANCH  23  24
ENDBRANCH   4  23
TORSDOF 8
ENDMDL
