MODEL 1
REMARK VINA RESULT:    -8.811      0.000      0.000
REMARK INTER + INTRA:         -14.504
REMARK INTER:                 -12.932
REMARK INTRA:                  -1.572
REMARK UNBOUND:                -1.572
REMARK  Name = 
REMARK  10 active torsions:
REMARK  status: ('A' for Active; 'I' for Inactive)
REMARK    1  A    between atoms: C_1  and  O_2
REMARK    2  A    between atoms: O_2  and  C_3
REMARK    3  A    between atoms: C_10  and  C_11
REMARK    4  A    between atoms: N_13  and  C_14
REMARK    5  A    between atoms: C_14  and  C_15
REMARK    6  A    between atoms: C_18  and  C_19
REMARK    7  A    between atoms: C_19  and  C_20
REMARK    8  A    between atoms: C_19  and  N_21
REMARK    9  A    between atoms: N_21  and  C_22
REMARK   10  A    between atoms: C_22  and  C_23
REMARK                            x       y       z     vdW  Elec       q    Type
REMARK                         _______ _______ _______ _____ _____    ______ ____
ROOT
ATOM      1  C   UNL     1      46.982   6.146  12.578  0.00  0.00    +0.000 A 
ATOM      2  C   UNL     1      46.496   5.015  13.245  0.00  0.00    +0.000 A 
ATOM      3  C   UNL     1      45.432   4.269  12.712  0.00  0.00    +0.000 A 
ATOM      4  C   UNL     1      44.823   4.623  11.494  0.00  0.00    +0.000 A 
ATOM      5  C   UNL     1      45.368   5.719  10.804  0.00  0.00    +0.000 A 
ATOM      6  C   UNL     1      46.434   6.462  11.330  0.00  0.00    +0.000 A 
ENDROOT
BRANCH   4   7
ATOM      7  C   UNL     1      43.625   3.807  10.978  0.00  0.00    +0.000 C 
ATOM      8  C   UNL     1      43.381   2.512  11.776  0.00  0.00    +0.000 C 
BRANCH   7   9
ATOM      9  N   UNL     1      43.793   3.520   9.537  0.00  0.00    +0.000 NA
ATOM     10  H   UNL     1      44.299   4.295   9.108  0.00  0.00    +0.000 HD
BRANCH   9  11
ATOM     11  C   UNL     1      44.520   2.271   9.267  0.00  0.00    +0.000 C 
BRANCH  11  12
ATOM     12  C   UNL     1      45.692   2.432   8.326  0.00  0.00    +0.000 A 
ATOM     13  C   UNL     1      46.097   3.675   7.822  0.00  0.00    +0.000 A 
ATOM     14  C   UNL     1      47.173   3.765   6.932  0.00  0.00    +0.000 A 
ATOM     15  C   UNL     1      47.847   2.616   6.518  0.00  0.00    +0.000 A 
ATOM     16  C   UNL     1      47.441   1.372   6.988  0.00  0.00    +0.000 A 
ATOM     17  C   UNL     1      46.370   1.290   7.877  0.00  0.00    +0.000 A 
ATOM     18  F   UNL     1      45.989   0.076   8.304  0.00  0.00    +0.000 F 
ENDBRANCH  11  12
ENDBRANCH   9  11
ENDBRANCH   7   9
ENDBRANCH   4   7
BRANCH   1  19
ATOM     19  C   UNL     1      48.052   7.018  13.189  0.00  0.00    +0.000 C 
BRANCH  19  22
ATOM     20  C   UNL     1      49.044   6.998  15.442  0.00  0.00    +0.000 C 
ATOM     21  O   UNL     1      50.175   6.862  14.977  0.00  0.00    +0.000 OA
ATOM     22  N   UNL     1      47.948   7.090  14.624  0.00  0.00    +0.000 N 
ATOM     23  H   UNL     1      47.024   7.191  15.019  0.00  0.00    +0.000 HD
BRANCH  20  31
ATOM     24  C   UNL     1      48.864   4.592  17.889  0.00  0.00    +0.000 A 
ATOM     25  N   UNL     1      48.815   3.872  19.027  0.00  0.00    +0.000 NA
ATOM     26  C   UNL     1      48.636   4.530  20.175  0.00  0.00    +0.000 A 
ATOM     27  N   UNL     1      48.488   5.845  20.333  0.00  0.00    +0.000 NA
ATOM     28  C   UNL     1      48.556   6.523  19.173  0.00  0.00    +0.000 A 
ATOM     29  S   UNL     1      48.377   8.210  19.178  0.00  0.00    +0.000 S 
ATOM     30  C   UNL     1      48.594   8.287  17.494  0.00  0.00    +0.000 A 
ATOM     31  C   UNL     1      48.813   7.049  16.897  0.00  0.00    +0.000 A 
ATOM     32  C   UNL     1      48.762   5.993  17.905  0.00  0.00    +0.000 A 
BRANCH  24  34
ATOM     33  C   UNL     1      47.901   3.214  16.257  0.00  0.00    +0.000 C 
ATOM     34  O   UNL     1      49.056   3.918  16.702  0.00  0.00    +0.000 OA
ENDBRANCH  24  34
ENDBRANCH  20  31
ENDBRANCH  19  22
ENDBRANCH   1  19
TORSDOF 8
ENDMDL
MODEL 2
REMARK VINA RESULT:    -8.154      1.996      2.489
REMARK INTER + INTRA:         -13.539
REMARK INTER:                 -12.039
REMARK INTRA:                  -1.500
REMARK UNBOUND:                -1.572
REMARK  Name = 
REMARK  10 active torsions:
REMARK  status: ('A' for Active; 'I' for Inactive)
REMARK    1  A    between atoms: C_1  and  O_2
REMARK    2  A    between atoms: O_2  and  C_3
REMARK    3  A    between atoms: C_10  and  C_11
REMARK    4  A    between atoms: N_13  and  C_14
REMARK    5  A    between atoms: C_14  and  C_15
REMARK    6  A    between atoms: C_18  and  C_19
REMARK    7  A    between atoms: C_19  and  C_20
REMARK    8  A    between atoms: C_19  and  N_21
REMARK    9  A    between atoms: N_21  and  C_22
REMARK   10  A    between atoms: C_22  and  C_23
REMARK                            x       y       z     vdW  Elec       q    Type
REMARK                         _______ _______ _______ _____ _____    ______ ____
ROOT
ATOM      1  C   UNL     1      47.449   6.686  12.497  0.00  0.00    +0.000 A 
ATOM      2  C   UNL     1      46.664   6.844  11.349  0.00  0.00    +0.000 A 
ATOM      3  C   UNL     1      45.668   5.909  11.025  0.00  0.00    +0.000 A 
ATOM      4  C   UNL     1      45.418   4.788  11.839  0.00  0.00    +0.000 A 
ATOM      5  C   UNL     1      46.167   4.682  13.023  0.00  0.00    +0.000 A 
ATOM      6  C   UNL     1      47.158   5.617  13.352  0.00  0.00    +0.000 A 
ENDROOT
BRANCH   4   7
ATOM      7  C   UNL     1      44.354   3.762  11.413  0.00  0.00    +0.000 C 
ATOM      8  C   UNL     1      43.375   3.394  12.545  0.00  0.00    +0.000 C 
BRANCH   7   9
ATOM      9  N   UNL     1      45.009   2.556  10.862  0.00  0.00    +0.000 NA
ATOM     10  H   UNL     1      44.859   1.781  11.507  0.00  0.00    +0.000 HD
BRANCH   9  11
ATOM     11  C   UNL     1      44.509   2.171   9.534  0.00  0.00    +0.000 C 
BRANCH  11  12
ATOM     12  C   UNL     1      45.549   2.250   8.439  0.00  0.00    +0.000 A 
ATOM     13  C   UNL     1      46.363   1.167   8.084  0.00  0.00    +0.000 A 
ATOM     14  C   UNL     1      47.330   1.302   7.081  0.00  0.00    +0.000 A 
ATOM     15  C   UNL     1      47.511   2.524   6.433  0.00  0.00    +0.000 A 
ATOM     16  C   UNL     1      46.729   3.617   6.793  0.00  0.00    +0.000 A 
ATOM     17  C   UNL     1      45.766   3.474   7.790  0.00  0.00    +0.000 A 
ATOM     18  F   UNL     1      45.036   4.548   8.128  0.00  0.00    +0.000 F 
ENDBRANCH  11  12
ENDBRANCH   9  11
ENDBRANCH   7   9
ENDBRANCH   4   7
BRANCH   1  19
ATOM     19  C   UNL     1      48.592   7.623  12.803  0.00  0.00    +0.000 C 
BRANCH  19  22
ATOM     20  C   UNL     1      49.839   7.651  14.925  0.00  0.00    +0.000 C 
ATOM     21  O   UNL     1      49.302   8.704  15.265  0.00  0.00    +0.000 OA
ATOM     22  N   UNL     1      49.536   7.053  13.730  0.00  0.00    +0.000 N 
ATOM     23  H   UNL     1      49.992   6.193  13.459  0.00  0.00    +0.000 HD
BRANCH  20  31
ATOM     24  C   UNL     1      49.683   5.099  17.221  0.00  0.00    +0.000 A 
ATOM     25  N   UNL     1      49.909   4.101  18.098  0.00  0.00    +0.000 NA
ATOM     26  C   UNL     1      51.162   3.906  18.515  0.00  0.00    +0.000 A 
ATOM     27  N   UNL     1      52.242   4.603  18.166  0.00  0.00    +0.000 NA
ATOM     28  C   UNL     1      51.972   5.580  17.280  0.00  0.00    +0.000 A 
ATOM     29  S   UNL     1      53.227   6.580  16.730  0.00  0.00    +0.000 S 
ATOM     30  C   UNL     1      52.162   7.444  15.725  0.00  0.00    +0.000 A 
ATOM     31  C   UNL     1      50.846   6.994  15.778  0.00  0.00    +0.000 A 
ATOM     32  C   UNL     1      50.735   5.893  16.733  0.00  0.00    +0.000 A 
BRANCH  24  34
ATOM     33  C   UNL     1      47.652   4.092  16.632  0.00  0.00    +0.000 C 
ATOM     34  O   UNL     1      48.393   5.299  16.782  0.00  0.00    +0.000 OA
ENDBRANCH  24  34
ENDBRANCH  20  31
ENDBRANCH  19  22
ENDBRANCH   1  19
TORSDOF 8
ENDMDL
MODEL 3
REMARK VINA RESULT:    -7.909      1.519      1.989
REMARK INTER + INTRA:         -13.180
REMARK INTER:                 -11.900
REMARK INTRA:                  -1.279
REMARK UNBOUND:                -1.572
REMARK  Name = 
REMARK  10 active torsions:
REMARK  status: ('A' for Active; 'I' for Inactive)
REMARK    1  A    between atoms: C_1  and  O_2
REMARK    2  A    between atoms: O_2  and  C_3
REMARK    3  A    between atoms: C_10  and  C_11
REMARK    4  A    between atoms: N_13  and  C_14
REMARK    5  A    between atoms: C_14  and  C_15
REMARK    6  A    between atoms: C_18  and  C_19
REMARK    7  A    between atoms: C_19  and  C_20
REMARK    8  A    between atoms: C_19  and  N_21
REMARK    9  A    between atoms: N_21  and  C_22
REMARK   10  A    between atoms: C_22  and  C_23
REMARK                            x       y       z     vdW  Elec       q    Type
REMARK                         _______ _______ _______ _____ _____    ______ ____
ROOT
ATOM      1  C   UNL     1      46.116   7.298  12.706  0.00  0.00    +0.000 A 
ATOM      2  C   UNL     1      44.936   7.358  11.955  0.00  0.00    +0.000 A 
ATOM      3  C   UNL     1      44.304   6.183  11.515  0.00  0.00    +0.000 A 
ATOM      4  C   UNL     1      44.826   4.911  11.815  0.00  0.00    +0.000 A 
ATOM      5  C   UNL     1      45.970   4.868  12.628  0.00  0.00    +0.000 A 
ATOM      6  C   UNL     1      46.600   6.038  13.074  0.00  0.00    +0.000 A 
ENDROOT
BRANCH   4   7
ATOM      7  C   UNL     1      44.128   3.656  11.264  0.00  0.00    +0.000 C 
ATOM      8  C   UNL     1      43.246   2.942  12.306  0.00  0.00    +0.000 C 
BRANCH   7   9
ATOM      9  N   UNL     1      45.132   2.731  10.694  0.00  0.00    +0.000 NA
ATOM     10  H   UNL     1      45.350   2.018  11.389  0.00  0.00    +0.000 HD
BRANCH   9  11
ATOM     11  C   UNL     1      44.686   2.069   9.459  0.00  0.00    +0.000 C 
BRANCH  11  12
ATOM     12  C   UNL     1      45.684   2.146   8.325  0.00  0.00    +0.000 A 
ATOM     13  C   UNL     1      46.509   1.074   7.964  0.00  0.00    +0.000 A 
ATOM     14  C   UNL     1      47.436   1.208   6.923  0.00  0.00    +0.000 A 
ATOM     15  C   UNL     1      47.564   2.419   6.243  0.00  0.00    +0.000 A 
ATOM     16  C   UNL     1      46.771   3.502   6.607  0.00  0.00    +0.000 A 
ATOM     17  C   UNL     1      45.848   3.360   7.642  0.00  0.00    +0.000 A 
ATOM     18  F   UNL     1      45.106   4.425   7.983  0.00  0.00    +0.000 F 
ENDBRANCH  11  12
ENDBRANCH   9  11
ENDBRANCH   7   9
ENDBRANCH   4   7
BRANCH   1  19
ATOM     19  C   UNL     1      46.863   8.551  13.096  0.00  0.00    +0.000 C 
BRANCH  19  22
ATOM     20  C   UNL     1      48.354   8.794  15.040  0.00  0.00    +0.000 C 
ATOM     21  O   UNL     1      49.340   8.895  14.312  0.00  0.00    +0.000 OA
ATOM     22  N   UNL     1      47.098   8.629  14.515  0.00  0.00    +0.000 N 
ATOM     23  H   UNL     1      46.299   8.537  15.125  0.00  0.00    +0.000 HD
BRANCH  20  31
ATOM     24  C   UNL     1      48.937   6.375  17.411  0.00  0.00    +0.000 A 
ATOM     25  N   UNL     1      49.214   5.651  18.513  0.00  0.00    +0.000 NA
ATOM     26  C   UNL     1      49.272   6.293  19.683  0.00  0.00    +0.000 A 
ATOM     27  N   UNL     1      49.076   7.593  19.898  0.00  0.00    +0.000 NA
ATOM     28  C   UNL     1      48.815   8.277  18.769  0.00  0.00    +0.000 A 
ATOM     29  S   UNL     1      48.526   9.947  18.850  0.00  0.00    +0.000 S 
ATOM     30  C   UNL     1      48.325  10.043  17.165  0.00  0.00    +0.000 A 
ATOM     31  C   UNL     1      48.478   8.825  16.508  0.00  0.00    +0.000 A 
ATOM     32  C   UNL     1      48.745   7.766  17.479  0.00  0.00    +0.000 A 
BRANCH  24  34
ATOM     33  C   UNL     1      47.890   4.699  16.152  0.00  0.00    +0.000 C 
ATOM     34  O   UNL     1      48.882   5.720  16.200  0.00  0.00    +0.000 OA
ENDBRANCH  24  34
ENDBRANCH  20  31
ENDBRANCH  19  22
ENDBRANCH   1  19
TORSDOF 8
ENDMDL
MODEL 4
REMARK VINA RESULT:    -7.205      3.420      5.613
REMARK INTER + INTRA:         -12.146
REMARK INTER:                 -10.206
REMARK INTRA:                  -1.940
REMARK UNBOUND:                -1.572
REMARK  Name = 
REMARK  10 active torsions:
REMARK  status: ('A' for Active; 'I' for Inactive)
REMARK    1  A    between atoms: C_1  and  O_2
REMARK    2  A    between atoms: O_2  and  C_3
REMARK    3  A    between atoms: C_10  and  C_11
REMARK    4  A    between atoms: N_13  and  C_14
REMARK    5  A    between atoms: C_14  and  C_15
REMARK    6  A    between atoms: C_18  and  C_19
REMARK    7  A    between atoms: C_19  and  C_20
REMARK    8  A    between atoms: C_19  and  N_21
REMARK    9  A    between atoms: N_21  and  C_22
REMARK   10  A    between atoms: C_22  and  C_23
REMARK                            x       y       z     vdW  Elec       q    Type
REMARK                         _______ _______ _______ _____ _____    ______ ____
ROOT
ATOM      1  C   UNL     1      47.749   4.228  16.247  0.00  0.00    +0.000 A 
ATOM      2  C   UNL     1      48.265   5.527  16.183  0.00  0.00    +0.000 A 
ATOM      3  C   UNL     1      48.157   6.286  15.005  0.00  0.00    +0.000 A 
ATOM      4  C   UNL     1      47.525   5.775  13.857  0.00  0.00    +0.000 A 
ATOM      5  C   UNL     1      46.950   4.497  13.961  0.00  0.00    +0.000 A 
ATOM      6  C   UNL     1      47.051   3.740  15.137  0.00  0.00    +0.000 A 
ENDROOT
BRANCH   4   7
ATOM      7  C   UNL     1      47.479   6.623  12.574  0.00  0.00    +0.000 C 
ATOM      8  C   UNL     1      48.789   7.385  12.301  0.00  0.00    +0.000 C 
BRANCH   7   9
ATOM      9  N   UNL     1      46.325   7.547  12.621  0.00  0.00    +0.000 NA
ATOM     10  H   UNL     1      46.669   8.503  12.541  0.00  0.00    +0.000 HD
BRANCH   9  11
ATOM     11  C   UNL     1      45.337   7.308  11.558  0.00  0.00    +0.000 C 
BRANCH  11  12
ATOM     12  C   UNL     1      44.622   5.981  11.670  0.00  0.00    +0.000 A 
ATOM     13  C   UNL     1      43.810   5.644  12.760  0.00  0.00    +0.000 A 
ATOM     14  C   UNL     1      43.193   4.390  12.827  0.00  0.00    +0.000 A 
ATOM     15  C   UNL     1      43.392   3.448  11.817  0.00  0.00    +0.000 A 
ATOM     16  C   UNL     1      44.217   3.757  10.741  0.00  0.00    +0.000 A 
ATOM     17  C   UNL     1      44.827   5.009  10.679  0.00  0.00    +0.000 A 
ATOM     18  F   UNL     1      45.629   5.276   9.637  0.00  0.00    +0.000 F 
ENDBRANCH  11  12
ENDBRANCH   9  11
ENDBRANCH   7   9
ENDBRANCH   4   7
BRANCH   1  19
ATOM     19  C   UNL     1      47.950   3.362  17.468  0.00  0.00    +0.000 C 
BRANCH  19  22
ATOM     20  C   UNL     1      50.125   2.289  17.052  0.00  0.00    +0.000 C 
ATOM     21  O   UNL     1      49.667   1.654  16.103  0.00  0.00    +0.000 OA
ATOM     22  N   UNL     1      49.343   3.156  17.770  0.00  0.00    +0.000 N 
ATOM     23  H   UNL     1      49.730   3.663  18.553  0.00  0.00    +0.000 HD
BRANCH  20  31
ATOM     24  C   UNL     1      52.600   4.521  17.890  0.00  0.00    +0.000 A 
ATOM     25  N   UNL     1      53.704   5.163  18.320  0.00  0.00    +0.000 NA
ATOM     26  C   UNL     1      54.760   4.424  18.670  0.00  0.00    +0.000 A 
ATOM     27  N   UNL     1      54.858   3.097  18.636  0.00  0.00    +0.000 NA
ATOM     28  C   UNL     1      53.730   2.498  18.212  0.00  0.00    +0.000 A 
ATOM     29  S   UNL     1      53.675   0.806  18.093  0.00  0.00    +0.000 S 
ATOM     30  C   UNL     1      52.060   0.849  17.564  0.00  0.00    +0.000 A 
ATOM     31  C   UNL     1      51.529   2.132  17.474  0.00  0.00    +0.000 A 
ATOM     32  C   UNL     1      52.545   3.118  17.838  0.00  0.00    +0.000 A 
BRANCH  24  34
ATOM     33  C   UNL     1      51.816   6.337  16.634  0.00  0.00    +0.000 C 
ATOM     34  O   UNL     1      51.505   5.278  17.535  0.00  0.00    +0.000 OA
ENDBRANCH  24  34
ENDBRANCH  20  31
ENDBRANCH  19  22
ENDBRANCH   1  19
TORSDOF 8
ENDMDL
MODEL 5
REMARK VINA RESULT:    -6.488      3.992      8.903
REMARK INTER + INTRA:         -11.094
REMARK INTER:                  -8.807
REMARK INTRA:                  -2.288
REMARK UNBOUND:                -1.572
REMARK  Name = 
REMARK  10 active torsions:
REMARK  status: ('A' for Active; 'I' for Inactive)
REMARK    1  A    between atoms: C_1  and  O_2
REMARK    2  A    between atoms: O_2  and  C_3
REMARK    3  A    between atoms: C_10  and  C_11
REMARK    4  A    between atoms: N_13  and  C_14
REMARK    5  A    between atoms: C_14  and  C_15
REMARK    6  A    between atoms: C_18  and  C_19
REMARK    7  A    between atoms: C_19  and  C_20
REMARK    8  A    between atoms: C_19  and  N_21
REMARK    9  A    between atoms: N_21  and  C_22
REMARK   10  A    between atoms: C_22  and  C_23
REMARK                            x       y       z     vdW  Elec       q    Type
REMARK                         _______ _______ _______ _____ _____    ______ ____
ROOT
ATOM      1  C   UNL     1      49.097   7.764  15.951  0.00  0.00    +0.000 A 
ATOM      2  C   UNL     1      50.162   6.856  15.994  0.00  0.00    +0.000 A 
ATOM      3  C   UNL     1      50.773   6.524  17.215  0.00  0.00    +0.000 A 
ATOM      4  C   UNL     1      50.338   7.082  18.431  0.00  0.00    +0.000 A 
ATOM      5  C   UNL     1      49.223   7.936  18.378  0.00  0.00    +0.000 A 
ATOM      6  C   UNL     1      48.607   8.265  17.162  0.00  0.00    +0.000 A 
ENDROOT
BRANCH   4   7
ATOM      7  C   UNL     1      51.074   6.729  19.735  0.00  0.00    +0.000 C 
ATOM      8  C   UNL     1      52.567   7.109  19.714  0.00  0.00    +0.000 C 
BRANCH   7   9
ATOM      9  N   UNL     1      50.893   5.294  20.044  0.00  0.00    +0.000 NA
ATOM     10  H   UNL     1      51.352   5.092  20.931  0.00  0.00    +0.000 HD
BRANCH   9  11
ATOM     11  C   UNL     1      49.484   4.884  20.134  0.00  0.00    +0.000 C 
BRANCH  11  12
ATOM     12  C   UNL     1      48.959   4.211  18.886  0.00  0.00    +0.000 A 
ATOM     13  C   UNL     1      49.682   3.236  18.187  0.00  0.00    +0.000 A 
ATOM     14  C   UNL     1      49.161   2.664  17.021  0.00  0.00    +0.000 A 
ATOM     15  C   UNL     1      47.920   3.068  16.528  0.00  0.00    +0.000 A 
ATOM     16  C   UNL     1      47.201   4.054  17.196  0.00  0.00    +0.000 A 
ATOM     17  C   UNL     1      47.725   4.618  18.358  0.00  0.00    +0.000 A 
ATOM     18  F   UNL     1      47.018   5.577  18.975  0.00  0.00    +0.000 F 
ENDBRANCH  11  12
ENDBRANCH   9  11
ENDBRANCH   7   9
ENDBRANCH   4   7
BRANCH   1  19
ATOM     19  C   UNL     1      48.500   8.211  14.638  0.00  0.00    +0.000 C 
BRANCH  19  22
ATOM     20  C   UNL     1      47.696   6.269  13.357  0.00  0.00    +0.000 C 
ATOM     21  O   UNL     1      48.835   6.011  12.971  0.00  0.00    +0.000 OA
ATOM     22  N   UNL     1      47.451   7.333  14.186  0.00  0.00    +0.000 N 
ATOM     23  H   UNL     1      46.510   7.539  14.487  0.00  0.00    +0.000 HD
BRANCH  20  31
ATOM     24  C   UNL     1      44.673   7.045  11.918  0.00  0.00    +0.000 A 
ATOM     25  N   UNL     1      43.473   7.066  11.305  0.00  0.00    +0.000 NA
ATOM     26  C   UNL     1      42.855   5.900  11.101  0.00  0.00    +0.000 A 
ATOM     27  N   UNL     1      43.290   4.689  11.446  0.00  0.00    +0.000 NA
ATOM     28  C   UNL     1      44.495   4.715  12.042  0.00  0.00    +0.000 A 
ATOM     29  S   UNL     1      45.203   3.264  12.563  0.00  0.00    +0.000 S 
ATOM     30  C   UNL     1      46.581   4.082  13.128  0.00  0.00    +0.000 A 
ATOM     31  C   UNL     1      46.540   5.459  12.931  0.00  0.00    +0.000 A 
ATOM     32  C   UNL     1      45.274   5.835  12.304  0.00  0.00    +0.000 A 
BRANCH  24  34
ATOM     33  C   UNL     1      44.647   9.357  11.540  0.00  0.00    +0.000 C 
ATOM     34  O   UNL     1      45.318   8.244  12.125  0.00  0.00    +0.000 OA
ENDBRANCH  24  34
ENDBRANCH  20  31
ENDBRANCH  19  22
ENDBRANCH   1  19
TORSDOF 8
ENDMDL
MODEL 6
REMARK VINA RESULT:    -6.372      4.075      8.463
REMARK INTER + INTRA:         -10.924
REMARK INTER:                  -9.027
REMARK INTRA:                  -1.897
REMARK UNBOUND:                -1.572
REMARK  Name = 
REMARK  10 active torsions:
REMARK  status: ('A' for Active; 'I' for Inactive)
REMARK    1  A    between atoms: C_1  and  O_2
REMARK    2  A    between atoms: O_2  and  C_3
REMARK    3  A    between atoms: C_10  and  C_11
REMARK    4  A    between atoms: N_13  and  C_14
REMARK    5  A    between atoms: C_14  and  C_15
REMARK    6  A    between atoms: C_18  and  C_19
REMARK    7  A    between atoms: C_19  and  C_20
REMARK    8  A    between atoms: C_19  and  N_21
REMARK    9  A    between atoms: N_21  and  C_22
REMARK   10  A    between atoms: C_22  and  C_23
REMARK                            x       y       z     vdW  Elec       q    Type
REMARK                         _______ _______ _______ _____ _____    ______ ____
ROOT
ATOM      1  C   UNL     1      48.380   8.565  15.265  0.00  0.00    +0.000 A 
ATOM      2  C   UNL     1      49.212   7.443  15.351  0.00  0.00    +0.000 A 
ATOM      3  C   UNL     1      49.786   7.066  16.576  0.00  0.00    +0.000 A 
ATOM      4  C   UNL     1      49.544   7.793  17.756  0.00  0.00    +0.000 A 
ATOM      5  C   UNL     1      48.652   8.874  17.667  0.00  0.00    +0.000 A 
ATOM      6  C   UNL     1      48.072   9.249  16.446  0.00  0.00    +0.000 A 
ENDROOT
BRANCH   4   7
ATOM      7  C   UNL     1      50.239   7.374  19.063  0.00  0.00    +0.000 C 
ATOM      8  C   UNL     1      51.716   6.980  18.869  0.00  0.00    +0.000 C 
BRANCH   7   9
ATOM      9  N   UNL     1      49.479   6.283  19.712  0.00  0.00    +0.000 NA
ATOM     10  H   UNL     1      48.591   6.171  19.223  0.00  0.00    +0.000 HD
BRANCH   9  11
ATOM     11  C   UNL     1      50.186   4.994  19.715  0.00  0.00    +0.000 C 
BRANCH  11  12
ATOM     12  C   UNL     1      49.703   4.026  18.658  0.00  0.00    +0.000 A 
ATOM     13  C   UNL     1      48.346   3.775  18.420  0.00  0.00    +0.000 A 
ATOM     14  C   UNL     1      47.954   2.848  17.448  0.00  0.00    +0.000 A 
ATOM     15  C   UNL     1      48.909   2.145  16.714  0.00  0.00    +0.000 A 
ATOM     16  C   UNL     1      50.262   2.363  16.957  0.00  0.00    +0.000 A 
ATOM     17  C   UNL     1      50.645   3.290  17.925  0.00  0.00    +0.000 A 
ATOM     18  F   UNL     1      51.956   3.470  18.150  0.00  0.00    +0.000 F 
ENDBRANCH  11  12
ENDBRANCH   9  11
ENDBRANCH   7   9
ENDBRANCH   4   7
BRANCH   1  19
ATOM     19  C   UNL     1      47.841   9.044  13.939  0.00  0.00    +0.000 C 
BRANCH  19  22
ATOM     20  C   UNL     1      46.738   7.409  12.465  0.00  0.00    +0.000 C 
ATOM     21  O   UNL     1      47.784   7.211  11.848  0.00  0.00    +0.000 OA
ATOM     22  N   UNL     1      46.689   8.292  13.513  0.00  0.00    +0.000 N 
ATOM     23  H   UNL     1      45.821   8.452  14.004  0.00  0.00    +0.000 HD
BRANCH  20  31
ATOM     24  C   UNL     1      45.642   4.169  12.794  0.00  0.00    +0.000 A 
ATOM     25  N   UNL     1      44.955   3.011  12.859  0.00  0.00    +0.000 NA
ATOM     26  C   UNL     1      43.707   2.997  12.384  0.00  0.00    +0.000 A 
ATOM     27  N   UNL     1      43.047   4.013  11.832  0.00  0.00    +0.000 NA
ATOM     28  C   UNL     1      43.765   5.151  11.800  0.00  0.00    +0.000 A 
ATOM     29  S   UNL     1      43.088   6.549  11.119  0.00  0.00    +0.000 S 
ATOM     30  C   UNL     1      44.488   7.451  11.459  0.00  0.00    +0.000 A 
ATOM     31  C   UNL     1      45.488   6.721  12.096  0.00  0.00    +0.000 A 
ATOM     32  C   UNL     1      45.058   5.336  12.272  0.00  0.00    +0.000 A 
BRANCH  24  34
ATOM     33  C   UNL     1      47.004   4.610  14.649  0.00  0.00    +0.000 C 
ATOM     34  O   UNL     1      46.927   4.191  13.290  0.00  0.00    +0.000 OA
ENDBRANCH  24  34
ENDBRANCH  20  31
ENDBRANCH  19  22
ENDBRANCH   1  19
TORSDOF 8
ENDMDL
MODEL 7
REMARK VINA RESULT:    -6.292      3.986      8.477
REMARK INTER + INTRA:         -10.807
REMARK INTER:                  -8.583
REMARK INTRA:                  -2.224
REMARK UNBOUND:                -1.572
REMARK  Name = 
REMARK  10 active torsions:
REMARK  status: ('A' for Active; 'I' for Inactive)
REMARK    1  A    between atoms: C_1  and  O_2
REMARK    2  A    between atoms: O_2  and  C_3
REMARK    3  A    between atoms: C_10  and  C_11
REMARK    4  A    between atoms: N_13  and  C_14
REMARK    5  A    between atoms: C_14  and  C_15
REMARK    6  A    between atoms: C_18  and  C_19
REMARK    7  A    between atoms: C_19  and  C_20
REMARK    8  A    between atoms: C_19  and  N_21
REMARK    9  A    between atoms: N_21  and  C_22
REMARK   10  A    between atoms: C_22  and  C_23
REMARK                            x       y       z     vdW  Elec       q    Type
REMARK                         _______ _______ _______ _____ _____    ______ ____
ROOT
ATOM      1  C   UNL     1      49.744   7.422  15.694  0.00  0.00    +0.000 A 
ATOM      2  C   UNL     1      50.733   6.631  16.291  0.00  0.00    +0.000 A 
ATOM      3  C   UNL     1      50.764   6.449  17.684  0.00  0.00    +0.000 A 
ATOM      4  C   UNL     1      49.805   7.044  18.525  0.00  0.00    +0.000 A 
ATOM      5  C   UNL     1      48.779   7.776  17.904  0.00  0.00    +0.000 A 
ATOM      6  C   UNL     1      48.742   7.954  16.513  0.00  0.00    +0.000 A 
ENDROOT
BRANCH   4   7
ATOM      7  C   UNL     1      49.913   6.861  20.048  0.00  0.00    +0.000 C 
ATOM      8  C   UNL     1      51.108   7.608  20.670  0.00  0.00    +0.000 C 
BRANCH   7   9
ATOM      9  N   UNL     1      49.955   5.420  20.381  0.00  0.00    +0.000 NA
ATOM     10  H   UNL     1      50.270   5.317  21.345  0.00  0.00    +0.000 HD
BRANCH   9  11
ATOM     11  C   UNL     1      48.657   4.744  20.232  0.00  0.00    +0.000 C 
BRANCH  11  12
ATOM     12  C   UNL     1      48.447   4.111  18.875  0.00  0.00    +0.000 A 
ATOM     13  C   UNL     1      49.342   3.186  18.321  0.00  0.00    +0.000 A 
ATOM     14  C   UNL     1      49.114   2.650  17.049  0.00  0.00    +0.000 A 
ATOM     15  C   UNL     1      48.001   3.042  16.305  0.00  0.00    +0.000 A 
ATOM     16  C   UNL     1      47.117   3.979  16.830  0.00  0.00    +0.000 A 
ATOM     17  C   UNL     1      47.349   4.507  18.099  0.00  0.00    +0.000 A 
ATOM     18  F   UNL     1      46.488   5.420  18.575  0.00  0.00    +0.000 F 
ENDBRANCH  11  12
ENDBRANCH   9  11
ENDBRANCH   7   9
ENDBRANCH   4   7
BRANCH   1  19
ATOM     19  C   UNL     1      49.758   7.712  14.213  0.00  0.00    +0.000 C 
BRANCH  19  22
ATOM     20  C   UNL     1      47.763   6.779  13.114  0.00  0.00    +0.000 C 
ATOM     21  O   UNL     1      48.270   5.659  13.073  0.00  0.00    +0.000 OA
ATOM     22  N   UNL     1      48.432   7.840  13.667  0.00  0.00    +0.000 N 
ATOM     23  H   UNL     1      48.008   8.757  13.684  0.00  0.00    +0.000 HD
BRANCH  20  31
ATOM     24  C   UNL     1      44.845   4.966  13.052  0.00  0.00    +0.000 A 
ATOM     25  N   UNL     1      43.583   4.504  12.946  0.00  0.00    +0.000 NA
ATOM     26  C   UNL     1      42.683   5.281  12.338  0.00  0.00    +0.000 A 
ATOM     27  N   UNL     1      42.890   6.483  11.802  0.00  0.00    +0.000 NA
ATOM     28  C   UNL     1      44.158   6.908  11.943  0.00  0.00    +0.000 A 
ATOM     29  S   UNL     1      44.610   8.416  11.310  0.00  0.00    +0.000 S 
ATOM     30  C   UNL     1      46.203   8.230  11.874  0.00  0.00    +0.000 A 
ATOM     31  C   UNL     1      46.424   7.036  12.554  0.00  0.00    +0.000 A 
ATOM     32  C   UNL     1      45.201   6.236  12.568  0.00  0.00    +0.000 A 
BRANCH  24  34
ATOM     33  C   UNL     1      46.133   3.012  12.940  0.00  0.00    +0.000 C 
ATOM     34  O   UNL     1      45.776   4.172  13.686  0.00  0.00    +0.000 OA
ENDBRANCH  24  34
ENDBRANCH  20  31
ENDBRANCH  19  22
ENDBRANCH   1  19
TORSDOF 8
ENDMDL
