MODEL 1
REMARK VINA RESULT:    -8.490      0.000      0.000
REMARK INTER + INTRA:         -13.123
REMARK INTER:                 -12.461
REMARK INTRA:                  -0.662
REMARK UNBOUND:                -0.662
REMARK  Name = 
REMARK  8 active torsions:
REMARK  status: ('A' for Active; 'I' for Inactive)
REMARK    1  A    between atoms: C_2  and  C_3
REMARK    2  A    between atoms: C_3  and  O_4
REMARK    3  A    between atoms: O_4  and  C_5
REMARK    4  A    between atoms: C_7  and  C_8
REMARK    5  A    between atoms: C_8  and  N_9
REMARK    6  A    between atoms: N_9  and  C_10
REMARK    7  A    between atoms: C_13  and  C_14
REMARK    8  A    between atoms: C_22  and  C_23
REMARK                            x       y       z     vdW  Elec       q    Type
REMARK                         _______ _______ _______ _____ _____    ______ ____
ROOT
ATOM      1  N   UNL     1      43.787   4.822   9.886  0.00  0.00    +0.000 N 
ATOM      2  H   UNL     1      43.864   5.757   9.492  0.00  0.00    +0.000 HD
ENDROOT
BRANCH   1   3
ATOM      3  C   UNL     1      44.701   4.009   9.228  0.00  0.00    +0.000 A 
ATOM      4  N   UNL     1      45.505   4.661   8.354  0.00  0.00    +0.000 NA
ATOM      5  C   UNL     1      46.379   3.925   7.607  0.00  0.00    +0.000 A 
ATOM      6  C   UNL     1      46.516   2.548   7.690  0.00  0.00    +0.000 A 
ATOM      7  C   UNL     1      45.695   1.888   8.600  0.00  0.00    +0.000 A 
ATOM      8  C   UNL     1      44.781   2.618   9.359  0.00  0.00    +0.000 A 
ATOM      9  F   UNL     1      43.995   1.942  10.208  0.00  0.00    +0.000 F 
BRANCH   6  10
ATOM     10  C   UNL     1      47.467   1.751   6.877  0.00  0.00    +0.000 C 
ATOM     11  N   UNL     1      48.602   2.344   6.398  0.00  0.00    +0.000 N 
ATOM     12  O   UNL     1      47.248   0.570   6.629  0.00  0.00    +0.000 OA
ATOM     13  H   UNL     1      48.878   3.304   6.531  0.00  0.00    +0.000 HD
ATOM     14  H   UNL     1      49.216   1.756   5.847  0.00  0.00    +0.000 HD
ENDBRANCH   6  10
ENDBRANCH   1   3
BRANCH   1  15
ATOM     15  C   UNL     1      43.681   4.765  11.333  0.00  0.00    +0.000 C 
BRANCH  15  18
ATOM     16  C   UNL     1      46.782   4.805  13.624  0.00  0.00    +0.000 A 
ATOM     17  C   UNL     1      45.606   4.389  12.964  0.00  0.00    +0.000 A 
ATOM     18  C   UNL     1      44.983   5.189  11.988  0.00  0.00    +0.000 A 
ATOM     19  C   UNL     1      45.578   6.409  11.650  0.00  0.00    +0.000 A 
ATOM     20  C   UNL     1      46.756   6.822  12.279  0.00  0.00    +0.000 A 
ATOM     21  C   UNL     1      47.373   6.025  13.259  0.00  0.00    +0.000 A 
BRANCH  21  22
ATOM     22  C   UNL     1      48.600   6.532  13.807  0.00  0.00    +0.000 C 
ATOM     23  N   UNL     1      49.573   6.968  14.260  0.00  0.00    +0.000 NA
ENDBRANCH  21  22
BRANCH  16  24
ATOM     24  O   UNL     1      47.221   3.899  14.561  0.00  0.00    +0.000 OA
BRANCH  24  25
ATOM     25  C   UNL     1      47.201   4.306  15.931  0.00  0.00    +0.000 C 
BRANCH  25  27
ATOM     26  C   UNL     1      48.779   2.505  16.655  0.00  0.00    +0.000 C 
ATOM     27  C   UNL     1      47.616   3.156  16.798  0.00  0.00    +0.000 C 
ENDBRANCH  25  27
ENDBRANCH  24  25
ENDBRANCH  16  24
ENDBRANCH  15  18
ENDBRANCH   1  15
TORSDOF 8
ENDMDL
MODEL 2
REMARK VINA RESULT:    -7.970      1.384      2.733
REMARK INTER + INTRA:         -12.359
REMARK INTER:                 -11.252
REMARK INTRA:                  -1.107
REMARK UNBOUND:                -0.662
REMARK  Name = 
REMARK  8 active torsions:
REMARK  status: ('A' for Active; 'I' for Inactive)
REMARK    1  A    between atoms: C_2  and  C_3
REMARK    2  A    between atoms: C_3  and  O_4
REMARK    3  A    between atoms: O_4  and  C_5
REMARK    4  A    between atoms: C_7  and  C_8
REMARK    5  A    between atoms: C_8  and  N_9
REMARK    6  A    between atoms: N_9  and  C_10
REMARK    7  A    between atoms: C_13  and  C_14
REMARK    8  A    between atoms: C_22  and  C_23
REMARK                            x       y       z     vdW  Elec       q    Type
REMARK                         _______ _______ _______ _____ _____    ______ ____
ROOT
ATOM      1  N   UNL     1      43.856   4.894   9.919  0.00  0.00    +0.000 N 
ATOM      2  H   UNL     1      43.072   5.083   9.300  0.00  0.00    +0.000 HD
ENDROOT
BRANCH   1   3
ATOM      3  C   UNL     1      44.737   4.058   9.246  0.00  0.00    +0.000 A 
ATOM      4  N   UNL     1      45.542   4.689   8.357  0.00  0.00    +0.000 NA
ATOM      5  C   UNL     1      46.384   3.931   7.596  0.00  0.00    +0.000 A 
ATOM      6  C   UNL     1      46.486   2.550   7.676  0.00  0.00    +0.000 A 
ATOM      7  C   UNL     1      45.665   1.912   8.601  0.00  0.00    +0.000 A 
ATOM      8  C   UNL     1      44.783   2.665   9.375  0.00  0.00    +0.000 A 
ATOM      9  F   UNL     1      43.995   2.009  10.238  0.00  0.00    +0.000 F 
BRANCH   6  10
ATOM     10  C   UNL     1      47.402   1.730   6.847  0.00  0.00    +0.000 C 
ATOM     11  N   UNL     1      48.551   2.288   6.362  0.00  0.00    +0.000 N 
ATOM     12  O   UNL     1      47.142   0.559   6.591  0.00  0.00    +0.000 OA
ATOM     13  H   UNL     1      48.862   3.237   6.500  0.00  0.00    +0.000 HD
ATOM     14  H   UNL     1      49.141   1.685   5.800  0.00  0.00    +0.000 HD
ENDBRANCH   6  10
ENDBRANCH   1   3
BRANCH   1  15
ATOM     15  C   UNL     1      44.365   6.044  10.645  0.00  0.00    +0.000 C 
BRANCH  15  18
ATOM     16  C   UNL     1      47.308   5.566  13.090  0.00  0.00    +0.000 A 
ATOM     17  C   UNL     1      46.520   6.018  12.011  0.00  0.00    +0.000 A 
ATOM     18  C   UNL     1      45.184   5.607  11.846  0.00  0.00    +0.000 A 
ATOM     19  C   UNL     1      44.627   4.756  12.807  0.00  0.00    +0.000 A 
ATOM     20  C   UNL     1      45.390   4.320  13.894  0.00  0.00    +0.000 A 
ATOM     21  C   UNL     1      46.727   4.726  14.053  0.00  0.00    +0.000 A 
BRANCH  21  22
ATOM     22  C   UNL     1      47.399   4.246  15.229  0.00  0.00    +0.000 C 
ATOM     23  N   UNL     1      47.970   3.864  16.161  0.00  0.00    +0.000 NA
ENDBRANCH  21  22
BRANCH  16  24
ATOM     24  O   UNL     1      48.593   6.057  13.060  0.00  0.00    +0.000 OA
BRANCH  24  25
ATOM     25  C   UNL     1      48.812   7.360  13.605  0.00  0.00    +0.000 C 
BRANCH  25  27
ATOM     26  C   UNL     1      50.097   7.689  11.484  0.00  0.00    +0.000 C 
ATOM     27  C   UNL     1      49.618   8.174  12.638  0.00  0.00    +0.000 C 
ENDBRANCH  25  27
ENDBRANCH  24  25
ENDBRANCH  16  24
ENDBRANCH  15  18
ENDBRANCH   1  15
TORSDOF 8
ENDMDL
MODEL 3
REMARK VINA RESULT:    -6.872      2.548      3.190
REMARK INTER + INTRA:         -10.749
REMARK INTER:                  -9.703
REMARK INTRA:                  -1.045
REMARK UNBOUND:                -0.662
REMARK  Name = 
REMARK  8 active torsions:
REMARK  status: ('A' for Active; 'I' for Inactive)
REMARK    1  A    between atoms: C_2  and  C_3
REMARK    2  A    between atoms: C_3  and  O_4
REMARK    3  A    between atoms: O_4  and  C_5
REMARK    4  A    between atoms: C_7  and  C_8
REMARK    5  A    between atoms: C_8  and  N_9
REMARK    6  A    between atoms: N_9  and  C_10
REMARK    7  A    between atoms: C_13  and  C_14
REMARK    8  A    between atoms: C_22  and  C_23
REMARK                            x       y       z     vdW  Elec       q    Type
REMARK                         _______ _______ _______ _____ _____    ______ ____
ROOT
ATOM      1  N   UNL     1      43.561   5.150  10.182  0.00  0.00    +0.000 N 
ATOM      2  H   UNL     1      43.496   5.950   9.559  0.00  0.00    +0.000 HD
ENDROOT
BRANCH   1   3
ATOM      3  C   UNL     1      44.396   4.214   9.585  0.00  0.00    +0.000 A 
ATOM      4  N   UNL     1      45.239   4.726   8.656  0.00  0.00    +0.000 NA
ATOM      5  C   UNL     1      46.040   3.864   7.965  0.00  0.00    +0.000 A 
ATOM      6  C   UNL     1      46.064   2.491   8.156  0.00  0.00    +0.000 A 
ATOM      7  C   UNL     1      45.204   1.975   9.121  0.00  0.00    +0.000 A 
ATOM      8  C   UNL     1      44.363   2.836   9.825  0.00  0.00    +0.000 A 
ATOM      9  F   UNL     1      43.535   2.297  10.731  0.00  0.00    +0.000 F 
BRANCH   6  10
ATOM     10  C   UNL     1      46.935   1.556   7.402  0.00  0.00    +0.000 C 
ATOM     11  N   UNL     1      46.779   0.209   7.570  0.00  0.00    +0.000 N 
ATOM     12  O   UNL     1      47.793   1.977   6.633  0.00  0.00    +0.000 OA
ATOM     13  H   UNL     1      46.117  -0.246   8.179  0.00  0.00    +0.000 HD
ATOM     14  H   UNL     1      47.401  -0.385   7.034  0.00  0.00    +0.000 HD
ENDBRANCH   6  10
ENDBRANCH   1   3
BRANCH   1  15
ATOM     15  C   UNL     1      43.726   5.470  11.589  0.00  0.00    +0.000 C 
BRANCH  15  18
ATOM     16  C   UNL     1      46.638   7.752  12.676  0.00  0.00    +0.000 A 
ATOM     17  C   UNL     1      45.838   6.611  12.452  0.00  0.00    +0.000 A 
ATOM     18  C   UNL     1      44.613   6.690  11.765  0.00  0.00    +0.000 A 
ATOM     19  C   UNL     1      44.209   7.933  11.267  0.00  0.00    +0.000 A 
ATOM     20  C   UNL     1      45.003   9.067  11.461  0.00  0.00    +0.000 A 
ATOM     21  C   UNL     1      46.224   8.987  12.154  0.00  0.00    +0.000 A 
BRANCH  21  22
ATOM     22  C   UNL     1      46.974  10.208  12.258  0.00  0.00    +0.000 C 
ATOM     23  N   UNL     1      47.593  11.181  12.369  0.00  0.00    +0.000 NA
ENDBRANCH  21  22
BRANCH  16  24
ATOM     24  O   UNL     1      47.782   7.474  13.388  0.00  0.00    +0.000 OA
BRANCH  24  25
ATOM     25  C   UNL     1      48.798   6.713  12.732  0.00  0.00    +0.000 C 
BRANCH  25  27
ATOM     26  C   UNL     1      50.294   8.550  11.930  0.00  0.00    +0.000 C 
ATOM     27  C   UNL     1      49.439   7.552  11.668  0.00  0.00    +0.000 C 
ENDBRANCH  25  27
ENDBRANCH  24  25
ENDBRANCH  16  24
ENDBRANCH  15  18
ENDBRANCH   1  15
TORSDOF 8
ENDMDL
MODEL 4
REMARK VINA RESULT:    -6.207      3.681      5.944
REMARK INTER + INTRA:          -9.772
REMARK INTER:                  -8.913
REMARK INTRA:                  -0.859
REMARK UNBOUND:                -0.662
REMARK  Name = 
REMARK  8 active torsions:
REMARK  status: ('A' for Active; 'I' for Inactive)
REMARK    1  A    between atoms: C_2  and  C_3
REMARK    2  A    between atoms: C_3  and  O_4
REMARK    3  A    between atoms: O_4  and  C_5
REMARK    4  A    between atoms: C_7  and  C_8
REMARK    5  A    between atoms: C_8  and  N_9
REMARK    6  A    between atoms: N_9  and  C_10
REMARK    7  A    between atoms: C_13  and  C_14
REMARK    8  A    between atoms: C_22  and  C_23
REMARK                            x       y       z     vdW  Elec       q    Type
REMARK                         _______ _______ _______ _____ _____    ______ ____
ROOT
ATOM      1  N   UNL     1      47.279   5.110  15.055  0.00  0.00    +0.000 N 
ATOM      2  H   UNL     1      48.240   5.227  14.741  0.00  0.00    +0.000 HD
ENDROOT
BRANCH   1   3
ATOM      3  C   UNL     1      46.491   4.890  13.933  0.00  0.00    +0.000 A 
ATOM      4  N   UNL     1      46.263   3.584  13.656  0.00  0.00    +0.000 NA
ATOM      5  C   UNL     1      45.562   3.276  12.526  0.00  0.00    +0.000 A 
ATOM      6  C   UNL     1      45.049   4.212  11.640  0.00  0.00    +0.000 A 
ATOM      7  C   UNL     1      45.277   5.552  11.941  0.00  0.00    +0.000 A 
ATOM      8  C   UNL     1      46.008   5.888  13.080  0.00  0.00    +0.000 A 
ATOM      9  F   UNL     1      46.223   7.188  13.321  0.00  0.00    +0.000 F 
BRANCH   6  10
ATOM     10  C   UNL     1      44.288   3.874  10.413  0.00  0.00    +0.000 C 
ATOM     11  N   UNL     1      44.261   4.762   9.374  0.00  0.00    +0.000 N 
ATOM     12  O   UNL     1      43.683   2.811  10.319  0.00  0.00    +0.000 OA
ATOM     13  H   UNL     1      44.711   5.663   9.343  0.00  0.00    +0.000 HD
ATOM     14  H   UNL     1      43.725   4.483   8.560  0.00  0.00    +0.000 HD
ENDBRANCH   6  10
ENDBRANCH   1   3
BRANCH   1  15
ATOM     15  C   UNL     1      47.109   4.278  16.232  0.00  0.00    +0.000 C 
BRANCH  15  18
ATOM     16  C   UNL     1      50.648   4.138  17.755  0.00  0.00    +0.000 A 
ATOM     17  C   UNL     1      49.378   4.601  17.352  0.00  0.00    +0.000 A 
ATOM     18  C   UNL     1      48.446   3.755  16.724  0.00  0.00    +0.000 A 
ATOM     19  C   UNL     1      48.791   2.412  16.534  0.00  0.00    +0.000 A 
ATOM     20  C   UNL     1      50.037   1.935  16.950  0.00  0.00    +0.000 A 
ATOM     21  C   UNL     1      50.969   2.784  17.571  0.00  0.00    +0.000 A 
BRANCH  21  22
ATOM     22  C   UNL     1      52.200   2.174  17.992  0.00  0.00    +0.000 C 
ATOM     23  N   UNL     1      53.189   1.697  18.361  0.00  0.00    +0.000 NA
ENDBRANCH  21  22
BRANCH  16  24
ATOM     24  O   UNL     1      51.423   5.123  18.324  0.00  0.00    +0.000 OA
BRANCH  24  25
ATOM     25  C   UNL     1      50.847   5.882  19.389  0.00  0.00    +0.000 C 
BRANCH  25  27
ATOM     26  C   UNL     1      52.285   4.565  20.956  0.00  0.00    +0.000 C 
ATOM     27  C   UNL     1      51.136   5.206  20.695  0.00  0.00    +0.000 C 
ENDBRANCH  25  27
ENDBRANCH  24  25
ENDBRANCH  16  24
ENDBRANCH  15  18
ENDBRANCH   1  15
TORSDOF 8
ENDMDL
MODEL 5
REMARK VINA RESULT:    -6.107      3.052      7.436
REMARK INTER + INTRA:          -9.626
REMARK INTER:                  -9.375
REMARK INTRA:                  -0.250
REMARK UNBOUND:                -0.662
REMARK  Name = 
REMARK  8 active torsions:
REMARK  status: ('A' for Active; 'I' for Inactive)
REMARK    1  A    between atoms: C_2  and  C_3
REMARK    2  A    between atoms: C_3  and  O_4
REMARK    3  A    between atoms: O_4  and  C_5
REMARK    4  A    between atoms: C_7  and  C_8
REMARK    5  A    between atoms: C_8  and  N_9
REMARK    6  A    between atoms: N_9  and  C_10
REMARK    7  A    between atoms: C_13  and  C_14
REMARK    8  A    between atoms: C_22  and  C_23
REMARK                            x       y       z     vdW  Elec       q    Type
REMARK                         _______ _______ _______ _____ _____    ______ ____
ROOT
ATOM      1  N   UNL     1      43.881   6.897  10.979  0.00  0.00    +0.000 N 
ATOM      2  H   UNL     1      43.272   7.679  10.751  0.00  0.00    +0.000 HD
ENDROOT
BRANCH   1   3
ATOM      3  C   UNL     1      44.856   7.362  11.852  0.00  0.00    +0.000 A 
ATOM      4  N   UNL     1      44.801   8.692  12.099  0.00  0.00    +0.000 NA
ATOM      5  C   UNL     1      45.770   9.245  12.885  0.00  0.00    +0.000 A 
ATOM      6  C   UNL     1      46.809   8.535  13.466  0.00  0.00    +0.000 A 
ATOM      7  C   UNL     1      46.851   7.165  13.218  0.00  0.00    +0.000 A 
ATOM      8  C   UNL     1      45.882   6.584  12.401  0.00  0.00    +0.000 A 
ATOM      9  F   UNL     1      45.971   5.267  12.170  0.00  0.00    +0.000 F 
BRANCH   6  10
ATOM     10  C   UNL     1      47.861   9.139  14.320  0.00  0.00    +0.000 C 
ATOM     11  N   UNL     1      47.736   9.084  15.680  0.00  0.00    +0.000 N 
ATOM     12  O   UNL     1      48.840   9.686  13.822  0.00  0.00    +0.000 OA
ATOM     13  H   UNL     1      46.976   8.670  16.196  0.00  0.00    +0.000 HD
ATOM     14  H   UNL     1      48.481   9.513  16.216  0.00  0.00    +0.000 HD
ENDBRANCH   6  10
ENDBRANCH   1   3
BRANCH   1  15
ATOM     15  C   UNL     1      43.205   5.642  11.254  0.00  0.00    +0.000 C 
BRANCH  15  18
ATOM     16  C   UNL     1      45.007   3.611   8.516  0.00  0.00    +0.000 A 
ATOM     17  C   UNL     1      44.446   4.683   9.242  0.00  0.00    +0.000 A 
ATOM     18  C   UNL     1      43.867   4.497  10.510  0.00  0.00    +0.000 A 
ATOM     19  C   UNL     1      43.890   3.213  11.068  0.00  0.00    +0.000 A 
ATOM     20  C   UNL     1      44.464   2.147  10.370  0.00  0.00    +0.000 A 
ATOM     21  C   UNL     1      45.035   2.335   9.099  0.00  0.00    +0.000 A 
BRANCH  21  22
ATOM     22  C   UNL     1      45.631   1.176   8.495  0.00  0.00    +0.000 C 
ATOM     23  N   UNL     1      46.117   0.229   8.038  0.00  0.00    +0.000 NA
ENDBRANCH  21  22
BRANCH  16  24
ATOM     24  O   UNL     1      45.496   3.992   7.287  0.00  0.00    +0.000 OA
BRANCH  24  25
ATOM     25  C   UNL     1      46.900   3.851   7.065  0.00  0.00    +0.000 C 
BRANCH  25  27
ATOM     26  C   UNL     1      47.985   2.087   5.661  0.00  0.00    +0.000 C 
ATOM     27  C   UNL     1      47.129   3.113   5.781  0.00  0.00    +0.000 C 
ENDBRANCH  25  27
ENDBRANCH  24  25
ENDBRANCH  16  24
ENDBRANCH  15  18
ENDBRANCH   1  15
TORSDOF 8
ENDMDL
MODEL 6
REMARK VINA RESULT:    -6.076      3.709      8.111
REMARK INTER + INTRA:          -9.580
REMARK INTER:                  -9.039
REMARK INTRA:                  -0.541
REMARK UNBOUND:                -0.662
REMARK  Name = 
REMARK  8 active torsions:
REMARK  status: ('A' for Active; 'I' for Inactive)
REMARK    1  A    between atoms: C_2  and  C_3
REMARK    2  A    between atoms: C_3  and  O_4
REMARK    3  A    between atoms: O_4  and  C_5
REMARK    4  A    between atoms: C_7  and  C_8
REMARK    5  A    between atoms: C_8  and  N_9
REMARK    6  A    between atoms: N_9  and  C_10
REMARK    7  A    between atoms: C_13  and  C_14
REMARK    8  A    between atoms: C_22  and  C_23
REMARK                            x       y       z     vdW  Elec       q    Type
REMARK                         _______ _______ _______ _____ _____    ______ ____
ROOT
ATOM      1  N   UNL     1      46.701   3.968  15.265  0.00  0.00    +0.000 N 
ATOM      2  H   UNL     1      46.200   3.104  15.458  0.00  0.00    +0.000 HD
ENDROOT
BRANCH   1   3
ATOM      3  C   UNL     1      47.574   4.196  16.321  0.00  0.00    +0.000 A 
ATOM      4  N   UNL     1      48.448   5.210  16.116  0.00  0.00    +0.000 NA
ATOM      5  C   UNL     1      49.393   5.452  17.071  0.00  0.00    +0.000 A 
ATOM      6  C   UNL     1      49.515   4.737  18.253  0.00  0.00    +0.000 A 
ATOM      7  C   UNL     1      48.604   3.705  18.461  0.00  0.00    +0.000 A 
ATOM      8  C   UNL     1      47.643   3.429  17.489  0.00  0.00    +0.000 A 
ATOM      9  F   UNL     1      46.799   2.414  17.718  0.00  0.00    +0.000 F 
BRANCH   6  10
ATOM     10  C   UNL     1      50.543   5.002  19.289  0.00  0.00    +0.000 C 
ATOM     11  N   UNL     1      50.460   4.366  20.496  0.00  0.00    +0.000 N 
ATOM     12  O   UNL     1      51.464   5.784  19.077  0.00  0.00    +0.000 OA
ATOM     13  H   UNL     1      49.747   3.714  20.782  0.00  0.00    +0.000 HD
ATOM     14  H   UNL     1      51.186   4.584  21.168  0.00  0.00    +0.000 HD
ENDBRANCH   6  10
ENDBRANCH   1   3
BRANCH   1  15
ATOM     15  C   UNL     1      47.164   4.125  13.898  0.00  0.00    +0.000 C 
BRANCH  15  18
ATOM     16  C   UNL     1      44.623   5.960  11.652  0.00  0.00    +0.000 A 
ATOM     17  C   UNL     1      45.299   4.946  12.363  0.00  0.00    +0.000 A 
ATOM     18  C   UNL     1      46.400   5.230  13.191  0.00  0.00    +0.000 A 
ATOM     19  C   UNL     1      46.800   6.564  13.331  0.00  0.00    +0.000 A 
ATOM     20  C   UNL     1      46.123   7.581  12.652  0.00  0.00    +0.000 A 
ATOM     21  C   UNL     1      45.028   7.293  11.818  0.00  0.00    +0.000 A 
BRANCH  21  22
ATOM     22  C   UNL     1      44.386   8.422  11.203  0.00  0.00    +0.000 C 
ATOM     23  N   UNL     1      43.887   9.353  10.727  0.00  0.00    +0.000 NA
ENDBRANCH  21  22
BRANCH  16  24
ATOM     24  O   UNL     1      43.593   5.478  10.878  0.00  0.00    +0.000 OA
BRANCH  24  25
ATOM     25  C   UNL     1      43.799   4.231  10.211  0.00  0.00    +0.000 C 
BRANCH  25  27
ATOM     26  C   UNL     1      44.940   3.570   8.085  0.00  0.00    +0.000 C 
ATOM     27  C   UNL     1      44.813   4.411   9.121  0.00  0.00    +0.000 C 
ENDBRANCH  25  27
ENDBRANCH  24  25
ENDBRANCH  16  24
ENDBRANCH  15  18
ENDBRANCH   1  15
TORSDOF 8
ENDMDL
MODEL 7
REMARK VINA RESULT:    -6.059      2.973      4.799
REMARK INTER + INTRA:          -9.555
REMARK INTER:                  -8.461
REMARK INTRA:                  -1.094
REMARK UNBOUND:                -0.662
REMARK  Name = 
REMARK  8 active torsions:
REMARK  status: ('A' for Active; 'I' for Inactive)
REMARK    1  A    between atoms: C_2  and  C_3
REMARK    2  A    between atoms: C_3  and  O_4
REMARK    3  A    between atoms: O_4  and  C_5
REMARK    4  A    between atoms: C_7  and  C_8
REMARK    5  A    between atoms: C_8  and  N_9
REMARK    6  A    between atoms: N_9  and  C_10
REMARK    7  A    between atoms: C_13  and  C_14
REMARK    8  A    between atoms: C_22  and  C_23
REMARK                            x       y       z     vdW  Elec       q    Type
REMARK                         _______ _______ _______ _____ _____    ______ ____
ROOT
ATOM      1  N   UNL     1      47.081   7.132  13.783  0.00  0.00    +0.000 N 
ATOM      2  H   UNL     1      46.527   7.983  13.852  0.00  0.00    +0.000 HD
ENDROOT
BRANCH   1   3
ATOM      3  C   UNL     1      46.424   6.267  12.918  0.00  0.00    +0.000 A 
ATOM      4  N   UNL     1      46.207   6.771  11.679  0.00  0.00    +0.000 NA
ATOM      5  C   UNL     1      45.498   6.016  10.789  0.00  0.00    +0.000 A 
ATOM      6  C   UNL     1      44.991   4.754  11.059  0.00  0.00    +0.000 A 
ATOM      7  C   UNL     1      45.230   4.240  12.331  0.00  0.00    +0.000 A 
ATOM      8  C   UNL     1      45.935   5.002  13.261  0.00  0.00    +0.000 A 
ATOM      9  F   UNL     1      46.124   4.479  14.480  0.00  0.00    +0.000 F 
BRANCH   6  10
ATOM     10  C   UNL     1      44.221   3.937  10.090  0.00  0.00    +0.000 C 
ATOM     11  N   UNL     1      44.096   4.367   8.799  0.00  0.00    +0.000 N 
ATOM     12  O   UNL     1      43.696   2.882  10.433  0.00  0.00    +0.000 OA
ATOM     13  H   UNL     1      44.474   5.216   8.411  0.00  0.00    +0.000 HD
ATOM     14  H   UNL     1      43.558   3.773   8.179  0.00  0.00    +0.000 HD
ENDBRANCH   6  10
ENDBRANCH   1   3
BRANCH   1  15
ATOM     15  C   UNL     1      48.513   7.333  13.654  0.00  0.00    +0.000 C 
BRANCH  15  18
ATOM     16  C   UNL     1      49.215   5.939  17.180  0.00  0.00    +0.000 A 
ATOM     17  C   UNL     1      48.576   6.242  15.960  0.00  0.00    +0.000 A 
ATOM     18  C   UNL     1      49.231   6.951  14.936  0.00  0.00    +0.000 A 
ATOM     19  C   UNL     1      50.564   7.327  15.136  0.00  0.00    +0.000 A 
ATOM     20  C   UNL     1      51.217   7.011  16.331  0.00  0.00    +0.000 A 
ATOM     21  C   UNL     1      50.558   6.310  17.355  0.00  0.00    +0.000 A 
BRANCH  21  22
ATOM     22  C   UNL     1      51.341   6.007  18.521  0.00  0.00    +0.000 C 
ATOM     23  N   UNL     1      51.963   5.792  19.474  0.00  0.00    +0.000 NA
ENDBRANCH  21  22
BRANCH  16  24
ATOM     24  O   UNL     1      48.401   5.267  18.061  0.00  0.00    +0.000 OA
BRANCH  24  25
ATOM     25  C   UNL     1      47.350   4.470  17.510  0.00  0.00    +0.000 C 
BRANCH  25  27
ATOM     26  C   UNL     1      48.544   2.449  16.646  0.00  0.00    +0.000 C 
ATOM     27  C   UNL     1      47.745   3.025  17.555  0.00  0.00    +0.000 C 
ENDBRANCH  25  27
ENDBRANCH  24  25
ENDBRANCH  16  24
ENDBRANCH  15  18
ENDBRANCH   1  15
TORSDOF 8
ENDMDL
MODEL 8
REMARK VINA RESULT:    -5.800      3.691      5.376
REMARK INTER + INTRA:          -9.175
REMARK INTER:                  -8.062
REMARK INTRA:                  -1.112
REMARK UNBOUND:                -0.662
REMARK  Name = 
REMARK  8 active torsions:
REMARK  status: ('A' for Active; 'I' for Inactive)
REMARK    1  A    between atoms: C_2  and  C_3
REMARK    2  A    between atoms: C_3  and  O_4
REMARK    3  A    between atoms: O_4  and  C_5
REMARK    4  A    between atoms: C_7  and  C_8
REMARK    5  A    between atoms: C_8  and  N_9
REMARK    6  A    between atoms: N_9  and  C_10
REMARK    7  A    between atoms: C_13  and  C_14
REMARK    8  A    between atoms: C_22  and  C_23
REMARK                            x       y       z     vdW  Elec       q    Type
REMARK                         _______ _______ _______ _____ _____    ______ ____
ROOT
ATOM      1  N   UNL     1      48.367   6.306  13.128  0.00  0.00    +0.000 N 
ATOM      2  H   UNL     1      48.770   5.564  13.695  0.00  0.00    +0.000 HD
ENDROOT
BRANCH   1   3
ATOM      3  C   UNL     1      47.080   5.919  12.778  0.00  0.00    +0.000 A 
ATOM      4  N   UNL     1      46.605   6.503  11.651  0.00  0.00    +0.000 NA
ATOM      5  C   UNL     1      45.319   6.238  11.278  0.00  0.00    +0.000 A 
ATOM      6  C   UNL     1      44.459   5.396  11.967  0.00  0.00    +0.000 A 
ATOM      7  C   UNL     1      44.960   4.790  13.117  0.00  0.00    +0.000 A 
ATOM      8  C   UNL     1      46.265   5.063  13.527  0.00  0.00    +0.000 A 
ATOM      9  F   UNL     1      46.700   4.476  14.650  0.00  0.00    +0.000 F 
BRANCH   6  10
ATOM     10  C   UNL     1      43.062   5.110  11.559  0.00  0.00    +0.000 C 
ATOM     11  N   UNL     1      42.118   6.093  11.665  0.00  0.00    +0.000 N 
ATOM     12  O   UNL     1      42.745   4.006  11.130  0.00  0.00    +0.000 OA
ATOM     13  H   UNL     1      42.262   7.028  12.011  0.00  0.00    +0.000 HD
ATOM     14  H   UNL     1      41.179   5.845  11.375  0.00  0.00    +0.000 HD
ENDBRANCH   6  10
ENDBRANCH   1   3
BRANCH   1  15
ATOM     15  C   UNL     1      48.610   7.655  13.605  0.00  0.00    +0.000 C 
BRANCH  15  18
ATOM     16  C   UNL     1      48.635   6.559  17.303  0.00  0.00    +0.000 A 
ATOM     17  C   UNL     1      48.711   6.531  15.894  0.00  0.00    +0.000 A 
ATOM     18  C   UNL     1      48.597   7.702  15.123  0.00  0.00    +0.000 A 
ATOM     19  C   UNL     1      48.439   8.923  15.788  0.00  0.00    +0.000 A 
ATOM     20  C   UNL     1      48.387   8.968  17.184  0.00  0.00    +0.000 A 
ATOM     21  C   UNL     1      48.494   7.795  17.952  0.00  0.00    +0.000 A 
BRANCH  21  22
ATOM     22  C   UNL     1      48.467   7.967  19.379  0.00  0.00    +0.000 C 
ATOM     23  N   UNL     1      48.453   8.139  20.524  0.00  0.00    +0.000 NA
ENDBRANCH  21  22
BRANCH  16  24
ATOM     24  O   UNL     1      48.741   5.311  17.871  0.00  0.00    +0.000 OA
BRANCH  24  25
ATOM     25  C   UNL     1      47.541   4.549  18.015  0.00  0.00    +0.000 C 
BRANCH  25  27
ATOM     26  C   UNL     1      48.825   2.738  16.861  0.00  0.00    +0.000 C 
ATOM     27  C   UNL     1      47.813   3.120  17.654  0.00  0.00    +0.000 C 
ENDBRANCH  25  27
ENDBRANCH  24  25
ENDBRANCH  16  24
ENDBRANCH  15  18
ENDBRANCH   1  15
TORSDOF 8
ENDMDL
MODEL 9
REMARK VINA RESULT:    -5.709      3.392      4.259
REMARK INTER + INTRA:          -9.042
REMARK INTER:                  -8.042
REMARK INTRA:                  -1.000
REMARK UNBOUND:                -0.662
REMARK  Name = 
REMARK  8 active torsions:
REMARK  status: ('A' for Active; 'I' for Inactive)
REMARK    1  A    between atoms: C_2  and  C_3
REMARK    2  A    between atoms: C_3  and  O_4
REMARK    3  A    between atoms: O_4  and  C_5
REMARK    4  A    between atoms: C_7  and  C_8
REMARK    5  A    between atoms: C_8  and  N_9
REMARK    6  A    between atoms: N_9  and  C_10
REMARK    7  A    between atoms: C_13  and  C_14
REMARK    8  A    between atoms: C_22  and  C_23
REMARK                            x       y       z     vdW  Elec       q    Type
REMARK                         _______ _______ _______ _____ _____    ______ ____
ROOT
ATOM      1  N   UNL     1      44.798   8.305  11.610  0.00  0.00    +0.000 N 
ATOM      2  H   UNL     1      45.231   8.723  10.790  0.00  0.00    +0.000 HD
ENDROOT
BRANCH   1   3
ATOM      3  C   UNL     1      44.606   6.955  11.346  0.00  0.00    +0.000 A 
ATOM      4  N   UNL     1      43.355   6.505  11.608  0.00  0.00    +0.000 NA
ATOM      5  C   UNL     1      43.102   5.173  11.451  0.00  0.00    +0.000 A 
ATOM      6  C   UNL     1      44.036   4.241  11.025  0.00  0.00    +0.000 A 
ATOM      7  C   UNL     1      45.315   4.715  10.746  0.00  0.00    +0.000 A 
ATOM      8  C   UNL     1      45.601   6.069  10.919  0.00  0.00    +0.000 A 
ATOM      9  F   UNL     1      46.849   6.480  10.660  0.00  0.00    +0.000 F 
BRANCH   6  10
ATOM     10  C   UNL     1      43.758   2.794  10.856  0.00  0.00    +0.000 C 
ATOM     11  N   UNL     1      44.407   2.095   9.877  0.00  0.00    +0.000 N 
ATOM     12  O   UNL     1      42.953   2.218  11.581  0.00  0.00    +0.000 OA
ATOM     13  H   UNL     1      45.077   2.464   9.221  0.00  0.00    +0.000 HD
ATOM     14  H   UNL     1      44.178   1.111   9.802  0.00  0.00    +0.000 HD
ENDBRANCH   6  10
ENDBRANCH   1   3
BRANCH   1  15
ATOM     15  C   UNL     1      45.354   8.720  12.885  0.00  0.00    +0.000 C 
BRANCH  15  18
ATOM     16  C   UNL     1      48.963   7.619  13.678  0.00  0.00    +0.000 A 
ATOM     17  C   UNL     1      47.553   7.669  13.637  0.00  0.00    +0.000 A 
ATOM     18  C   UNL     1      46.869   8.629  12.870  0.00  0.00    +0.000 A 
ATOM     19  C   UNL     1      47.621   9.528  12.105  0.00  0.00    +0.000 A 
ATOM     20  C   UNL     1      49.018   9.473  12.118  0.00  0.00    +0.000 A 
ATOM     21  C   UNL     1      49.700   8.518  12.892  0.00  0.00    +0.000 A 
BRANCH  21  22
ATOM     22  C   UNL     1      51.133   8.531  12.795  0.00  0.00    +0.000 C 
ATOM     23  N   UNL     1      52.290   8.554  12.749  0.00  0.00    +0.000 NA
ENDBRANCH  21  22
BRANCH  16  24
ATOM     24  O   UNL     1      49.441   6.629  14.506  0.00  0.00    +0.000 OA
BRANCH  24  25
ATOM     25  C   UNL     1      48.711   6.364  15.705  0.00  0.00    +0.000 C 
BRANCH  25  27
ATOM     26  C   UNL     1      50.921   6.044  16.832  0.00  0.00    +0.000 C 
ATOM     27  C   UNL     1      49.640   6.435  16.879  0.00  0.00    +0.000 C 
ENDBRANCH  25  27
ENDBRANCH  24  25
ENDBRANCH  16  24
ENDBRANCH  15  18
ENDBRANCH   1  15
TORSDOF 8
ENDMDL
