MODEL 1
REMARK VINA RESULT:    -8.389      0.000      0.000
REMARK INTER + INTRA:         -10.106
REMARK INTER:                 -10.351
REMARK INTRA:                   0.245
REMARK UNBOUND:                 0.245
REMARK  Name = 
REMARK  5 active torsions:
REMARK  status: ('A' for Active; 'I' for Inactive)
REMARK    1  A    between atoms: N_1  and  C_2
REMARK    2  A    between atoms: C_2  and  C_3
REMARK    3  A    between atoms: N_7  and  C_8
REMARK    4  A    between atoms: C_13  and  C_14
REMARK    5  A    between atoms: C_14  and  O_15
REMARK                            x       y       z     vdW  Elec       q    Type
REMARK                         _______ _______ _______ _____ _____    ______ ____
ROOT
ATOM      1  C   UNL     1      46.657   2.186   7.247  0.00  0.00    +0.000 A 
ATOM      2  C   UNL     1      46.018   1.827   8.431  0.00  0.00    +0.000 A 
ATOM      3  C   UNL     1      45.371   2.798   9.199  0.00  0.00    +0.000 A 
ATOM      4  C   UNL     1      45.387   4.124   8.789  0.00  0.00    +0.000 A 
ATOM      5  N   UNL     1      44.772   5.149   9.459  0.00  0.00    +0.000 N 
ATOM      6  N   UNL     1      45.998   4.489   7.647  0.00  0.00    +0.000 NA
ATOM      7  C   UNL     1      46.606   3.529   6.903  0.00  0.00    +0.000 A 
ATOM      8  H   UNL     1      45.016   6.051   9.066  0.00  0.00    +0.000 HD
ENDROOT
BRANCH   5   9
ATOM      9  C   UNL     1      44.171   5.077  10.764  0.00  0.00    +0.000 C 
ATOM     10  C   UNL     1      43.463   3.735  11.026  0.00  0.00    +0.000 C 
ATOM     11  C   UNL     1      43.556   3.492  12.544  0.00  0.00    +0.000 C 
ATOM     12  C   UNL     1      44.841   4.202  12.870  0.00  0.00    +0.000 A 
ATOM     13  N   UNL     1      45.513   4.065  14.021  0.00  0.00    +0.000 NA
ATOM     14  C   UNL     1      46.626   4.835  14.117  0.00  0.00    +0.000 A 
ATOM     15  N   UNL     1      47.066   5.694  13.164  0.00  0.00    +0.000 NA
ATOM     16  C   UNL     1      46.325   5.796  12.039  0.00  0.00    +0.000 A 
ATOM     17  C   UNL     1      45.194   5.062  11.851  0.00  0.00    +0.000 A 
BRANCH  14  18
ATOM     18  C   UNL     1      47.418   4.753  15.408  0.00  0.00    +0.000 C 
BRANCH  18  19
ATOM     19  O   UNL     1      46.943   3.725  16.287  0.00  0.00    +0.000 OA
ATOM     20  H   UNL     1      46.746   4.184  17.130  0.00  0.00    +0.000 HD
ENDBRANCH  18  19
ENDBRANCH  14  18
ENDBRANCH   5   9
BRANCH   1  21
ATOM     21  C   UNL     1      47.404   1.187   6.412  0.00  0.00    +0.000 C 
BRANCH  21  22
ATOM     22  N   UNL     1      48.556   1.782   5.741  0.00  0.00    +0.000 NA
ATOM     23  H   UNL     1      48.335   2.745   5.492  0.00  0.00    +0.000 HD
ATOM     24  H   UNL     1      48.721   1.290   4.864  0.00  0.00    +0.000 HD
ENDBRANCH  21  22
ENDBRANCH   1  21
TORSDOF 5
ENDMDL
MODEL 2
REMARK VINA RESULT:    -8.128      2.338      2.547
REMARK INTER + INTRA:          -9.783
REMARK INTER:                 -10.136
REMARK INTRA:                   0.353
REMARK UNBOUND:                 0.245
REMARK  Name = 
REMARK  5 active torsions:
REMARK  status: ('A' for Active; 'I' for Inactive)
REMARK    1  A    between atoms: N_1  and  C_2
REMARK    2  A    between atoms: C_2  and  C_3
REMARK    3  A    between atoms: N_7  and  C_8
REMARK    4  A    between atoms: C_13  and  C_14
REMARK    5  A    between atoms: C_14  and  O_15
REMARK                            x       y       z     vdW  Elec       q    Type
REMARK                         _______ _______ _______ _____ _____    ______ ____
ROOT
ATOM      1  C   UNL     1      46.669   2.506   6.652  0.00  0.00    +0.000 A 
ATOM      2  C   UNL     1      45.978   3.646   7.055  0.00  0.00    +0.000 A 
ATOM      3  C   UNL     1      45.351   3.679   8.303  0.00  0.00    +0.000 A 
ATOM      4  C   UNL     1      45.401   2.565   9.130  0.00  0.00    +0.000 A 
ATOM      5  N   UNL     1      44.835   2.498  10.376  0.00  0.00    +0.000 N 
ATOM      6  N   UNL     1      46.066   1.455   8.757  0.00  0.00    +0.000 NA
ATOM      7  C   UNL     1      46.685   1.448   7.548  0.00  0.00    +0.000 A 
ATOM      8  H   UNL     1      44.872   1.558  10.753  0.00  0.00    +0.000 HD
ENDROOT
BRANCH   5   9
ATOM      9  C   UNL     1      43.957   3.472  10.966  0.00  0.00    +0.000 C 
ATOM     10  C   UNL     1      43.344   3.000  12.298  0.00  0.00    +0.000 C 
ATOM     11  C   UNL     1      43.103   4.270  13.132  0.00  0.00    +0.000 C 
ATOM     12  C   UNL     1      44.199   5.163  12.620  0.00  0.00    +0.000 A 
ATOM     13  N   UNL     1      44.593   6.298  13.212  0.00  0.00    +0.000 NA
ATOM     14  C   UNL     1      45.572   6.967  12.550  0.00  0.00    +0.000 A 
ATOM     15  N   UNL     1      46.135   6.571  11.381  0.00  0.00    +0.000 NA
ATOM     16  C   UNL     1      45.671   5.428  10.831  0.00  0.00    +0.000 A 
ATOM     17  C   UNL     1      44.693   4.687  11.422  0.00  0.00    +0.000 A 
BRANCH  14  18
ATOM     18  C   UNL     1      46.044   8.278  13.149  0.00  0.00    +0.000 C 
BRANCH  18  19
ATOM     19  O   UNL     1      45.057   9.314  13.067  0.00  0.00    +0.000 OA
ATOM     20  H   UNL     1      44.238   8.861  12.781  0.00  0.00    +0.000 HD
ENDBRANCH  18  19
ENDBRANCH  14  18
ENDBRANCH   5   9
BRANCH   1  21
ATOM     21  C   UNL     1      47.319   2.406   5.302  0.00  0.00    +0.000 C 
BRANCH  21  22
ATOM     22  N   UNL     1      48.628   1.764   5.368  0.00  0.00    +0.000 NA
ATOM     23  H   UNL     1      49.102   1.880   4.474  0.00  0.00    +0.000 HD
ATOM     24  H   UNL     1      48.501   0.761   5.496  0.00  0.00    +0.000 HD
ENDBRANCH  21  22
ENDBRANCH   1  21
TORSDOF 5
ENDMDL
MODEL 3
REMARK VINA RESULT:    -6.726      3.315      7.974
REMARK INTER + INTRA:          -8.054
REMARK INTER:                  -7.821
REMARK INTRA:                  -0.232
REMARK UNBOUND:                 0.245
REMARK  Name = 
REMARK  5 active torsions:
REMARK  status: ('A' for Active; 'I' for Inactive)
REMARK    1  A    between atoms: N_1  and  C_2
REMARK    2  A    between atoms: C_2  and  C_3
REMARK    3  A    between atoms: N_7  and  C_8
REMARK    4  A    between atoms: C_13  and  C_14
REMARK    5  A    between atoms: C_14  and  O_15
REMARK                            x       y       z     vdW  Elec       q    Type
REMARK                         _______ _______ _______ _____ _____    ______ ____
ROOT
ATOM      1  C   UNL     1      48.596   3.909  18.453  0.00  0.00    +0.000 A 
ATOM      2  C   UNL     1      47.792   4.976  18.060  0.00  0.00    +0.000 A 
ATOM      3  C   UNL     1      47.228   4.995  16.783  0.00  0.00    +0.000 A 
ATOM      4  C   UNL     1      47.490   3.958  15.898  0.00  0.00    +0.000 A 
ATOM      5  N   UNL     1      46.976   3.871  14.631  0.00  0.00    +0.000 N 
ATOM      6  N   UNL     1      48.263   2.916  16.260  0.00  0.00    +0.000 NA
ATOM      7  C   UNL     1      48.788   2.906  17.513  0.00  0.00    +0.000 A 
ATOM      8  H   UNL     1      47.395   3.110  14.109  0.00  0.00    +0.000 HD
ENDROOT
BRANCH   5   9
ATOM      9  C   UNL     1      46.242   4.895  13.937  0.00  0.00    +0.000 C 
ATOM     10  C   UNL     1      47.111   6.108  13.560  0.00  0.00    +0.000 C 
ATOM     11  C   UNL     1      46.496   6.694  12.276  0.00  0.00    +0.000 C 
ATOM     12  C   UNL     1      45.907   5.459  11.652  0.00  0.00    +0.000 A 
ATOM     13  N   UNL     1      45.484   5.378  10.384  0.00  0.00    +0.000 NA
ATOM     14  C   UNL     1      44.947   4.178  10.045  0.00  0.00    +0.000 A 
ATOM     15  N   UNL     1      44.816   3.117  10.882  0.00  0.00    +0.000 NA
ATOM     16  C   UNL     1      45.245   3.280  12.153  0.00  0.00    +0.000 A 
ATOM     17  C   UNL     1      45.800   4.447  12.583  0.00  0.00    +0.000 A 
BRANCH  14  18
ATOM     18  C   UNL     1      44.418   4.027   8.632  0.00  0.00    +0.000 C 
BRANCH  18  19
ATOM     19  O   UNL     1      45.452   4.088   7.642  0.00  0.00    +0.000 OA
ATOM     20  H   UNL     1      46.164   4.620   8.052  0.00  0.00    +0.000 HD
ENDBRANCH  18  19
ENDBRANCH  14  18
ENDBRANCH   5   9
BRANCH   1  21
ATOM     21  C   UNL     1      49.260   3.866  19.798  0.00  0.00    +0.000 C 
BRANCH  21  22
ATOM     22  N   UNL     1      48.300   3.987  20.890  0.00  0.00    +0.000 NA
ATOM     23  H   UNL     1      48.805   4.035  21.774  0.00  0.00    +0.000 HD
ATOM     24  H   UNL     1      47.733   3.141  20.931  0.00  0.00    +0.000 HD
ENDBRANCH  21  22
ENDBRANCH   1  21
TORSDOF 5
ENDMDL
MODEL 4
REMARK VINA RESULT:    -6.603      3.716      5.820
REMARK INTER + INTRA:          -7.902
REMARK INTER:                  -7.514
REMARK INTRA:                  -0.388
REMARK UNBOUND:                 0.245
REMARK  Name = 
REMARK  5 active torsions:
REMARK  status: ('A' for Active; 'I' for Inactive)
REMARK    1  A    between atoms: N_1  and  C_2
REMARK    2  A    between atoms: C_2  and  C_3
REMARK    3  A    between atoms: N_7  and  C_8
REMARK    4  A    between atoms: C_13  and  C_14
REMARK    5  A    between atoms: C_14  and  O_15
REMARK                            x       y       z     vdW  Elec       q    Type
REMARK                         _______ _______ _______ _____ _____    ______ ____
ROOT
ATOM      1  C   UNL     1      44.403   3.927  11.955  0.00  0.00    +0.000 A 
ATOM      2  C   UNL     1      45.544   3.341  12.498  0.00  0.00    +0.000 A 
ATOM      3  C   UNL     1      46.441   4.113  13.241  0.00  0.00    +0.000 A 
ATOM      4  C   UNL     1      46.202   5.469  13.417  0.00  0.00    +0.000 A 
ATOM      5  N   UNL     1      47.007   6.311  14.139  0.00  0.00    +0.000 N 
ATOM      6  N   UNL     1      45.104   6.052  12.901  0.00  0.00    +0.000 NA
ATOM      7  C   UNL     1      44.233   5.283  12.197  0.00  0.00    +0.000 A 
ATOM      8  H   UNL     1      46.728   7.279  14.032  0.00  0.00    +0.000 HD
ENDROOT
BRANCH   5   9
ATOM      9  C   UNL     1      48.304   5.997  14.677  0.00  0.00    +0.000 C 
ATOM     10  C   UNL     1      49.213   7.231  14.815  0.00  0.00    +0.000 C 
ATOM     11  C   UNL     1      50.148   6.943  16.004  0.00  0.00    +0.000 C 
ATOM     12  C   UNL     1      49.275   6.053  16.846  0.00  0.00    +0.000 A 
ATOM     13  N   UNL     1      49.522   5.737  18.124  0.00  0.00    +0.000 NA
ATOM     14  C   UNL     1      48.624   4.883  18.676  0.00  0.00    +0.000 A 
ATOM     15  N   UNL     1      47.551   4.355  18.033  0.00  0.00    +0.000 NA
ATOM     16  C   UNL     1      47.378   4.702  16.739  0.00  0.00    +0.000 A 
ATOM     17  C   UNL     1      48.227   5.555  16.101  0.00  0.00    +0.000 A 
BRANCH  14  18
ATOM     18  C   UNL     1      48.861   4.457  20.112  0.00  0.00    +0.000 C 
BRANCH  18  19
ATOM     19  O   UNL     1      48.286   3.180  20.416  0.00  0.00    +0.000 OA
ATOM     20  H   UNL     1      48.538   2.604  19.666  0.00  0.00    +0.000 HD
ENDBRANCH  18  19
ENDBRANCH  14  18
ENDBRANCH   5   9
BRANCH   1  21
ATOM     21  C   UNL     1      43.434   3.150  11.112  0.00  0.00    +0.000 C 
BRANCH  21  22
ATOM     22  N   UNL     1      43.025   1.903  11.751  0.00  0.00    +0.000 NA
ATOM     23  H   UNL     1      43.767   1.213  11.639  0.00  0.00    +0.000 HD
ATOM     24  H   UNL     1      42.212   1.531  11.264  0.00  0.00    +0.000 HD
ENDBRANCH  21  22
ENDBRANCH   1  21
TORSDOF 5
ENDMDL
MODEL 5
REMARK VINA RESULT:    -6.023      2.417      2.937
REMARK INTER + INTRA:          -7.186
REMARK INTER:                  -6.778
REMARK INTRA:                  -0.409
REMARK UNBOUND:                 0.245
REMARK  Name = 
REMARK  5 active torsions:
REMARK  status: ('A' for Active; 'I' for Inactive)
REMARK    1  A    between atoms: N_1  and  C_2
REMARK    2  A    between atoms: C_2  and  C_3
REMARK    3  A    between atoms: N_7  and  C_8
REMARK    4  A    between atoms: C_13  and  C_14
REMARK    5  A    between atoms: C_14  and  O_15
REMARK                            x       y       z     vdW  Elec       q    Type
REMARK                         _______ _______ _______ _____ _____    ______ ____
ROOT
ATOM      1  C   UNL     1      46.307   2.673   7.447  0.00  0.00    +0.000 A 
ATOM      2  C   UNL     1      46.597   4.035   7.401  0.00  0.00    +0.000 A 
ATOM      3  C   UNL     1      46.195   4.872   8.445  0.00  0.00    +0.000 A 
ATOM      4  C   UNL     1      45.486   4.345   9.517  0.00  0.00    +0.000 A 
ATOM      5  N   UNL     1      45.060   5.073  10.596  0.00  0.00    +0.000 N 
ATOM      6  N   UNL     1      45.198   3.031   9.579  0.00  0.00    +0.000 NA
ATOM      7  C   UNL     1      45.613   2.230   8.564  0.00  0.00    +0.000 A 
ATOM      8  H   UNL     1      44.450   4.529  11.197  0.00  0.00    +0.000 HD
ENDROOT
BRANCH   5   9
ATOM      9  C   UNL     1      45.104   6.504  10.731  0.00  0.00    +0.000 C 
ATOM     10  C   UNL     1      43.779   7.102  11.238  0.00  0.00    +0.000 C 
ATOM     11  C   UNL     1      44.154   8.374  12.020  0.00  0.00    +0.000 C 
ATOM     12  C   UNL     1      45.522   8.006  12.525  0.00  0.00    +0.000 A 
ATOM     13  N   UNL     1      46.180   8.670  13.485  0.00  0.00    +0.000 NA
ATOM     14  C   UNL     1      47.421   8.188  13.752  0.00  0.00    +0.000 A 
ATOM     15  N   UNL     1      48.000   7.132  13.127  0.00  0.00    +0.000 NA
ATOM     16  C   UNL     1      47.285   6.526  12.155  0.00  0.00    +0.000 A 
ATOM     17  C   UNL     1      46.030   6.936  11.818  0.00  0.00    +0.000 A 
BRANCH  14  18
ATOM     18  C   UNL     1      48.235   8.913  14.807  0.00  0.00    +0.000 C 
BRANCH  18  19
ATOM     19  O   UNL     1      47.482   9.197  15.993  0.00  0.00    +0.000 OA
ATOM     20  H   UNL     1      47.983   8.772  16.718  0.00  0.00    +0.000 HD
ENDBRANCH  18  19
ENDBRANCH  14  18
ENDBRANCH   5   9
BRANCH   1  21
ATOM     21  C   UNL     1      46.677   1.743   6.329  0.00  0.00    +0.000 C 
BRANCH  21  22
ATOM     22  N   UNL     1      48.124   1.613   6.178  0.00  0.00    +0.000 NA
ATOM     23  H   UNL     1      48.556   1.612   7.100  0.00  0.00    +0.000 HD
ATOM     24  H   UNL     1      48.483   2.435   5.695  0.00  0.00    +0.000 HD
ENDBRANCH  21  22
ENDBRANCH   1  21
TORSDOF 5
ENDMDL
MODEL 6
REMARK VINA RESULT:    -5.986      3.413      7.968
REMARK INTER + INTRA:          -7.140
REMARK INTER:                  -6.735
REMARK INTRA:                  -0.405
REMARK UNBOUND:                 0.245
REMARK  Name = 
REMARK  5 active torsions:
REMARK  status: ('A' for Active; 'I' for Inactive)
REMARK    1  A    between atoms: N_1  and  C_2
REMARK    2  A    between atoms: C_2  and  C_3
REMARK    3  A    between atoms: N_7  and  C_8
REMARK    4  A    between atoms: C_13  and  C_14
REMARK    5  A    between atoms: C_14  and  O_15
REMARK                            x       y       z     vdW  Elec       q    Type
REMARK                         _______ _______ _______ _____ _____    ______ ____
ROOT
ATOM      1  C   UNL     1      49.254   5.052  18.543  0.00  0.00    +0.000 A 
ATOM      2  C   UNL     1      47.928   5.247  18.165  0.00  0.00    +0.000 A 
ATOM      3  C   UNL     1      47.623   5.629  16.856  0.00  0.00    +0.000 A 
ATOM      4  C   UNL     1      48.647   5.835  15.941  0.00  0.00    +0.000 A 
ATOM      5  N   UNL     1      48.457   6.194  14.633  0.00  0.00    +0.000 N 
ATOM      6  N   UNL     1      49.935   5.649  16.289  0.00  0.00    +0.000 NA
ATOM      7  C   UNL     1      50.211   5.260  17.560  0.00  0.00    +0.000 A 
ATOM      8  H   UNL     1      49.333   6.421  14.177  0.00  0.00    +0.000 HD
ENDROOT
BRANCH   5   9
ATOM      9  C   UNL     1      47.213   6.591  14.030  0.00  0.00    +0.000 C 
ATOM     10  C   UNL     1      47.397   7.582  12.866  0.00  0.00    +0.000 C 
ATOM     11  C   UNL     1      46.224   7.332  11.901  0.00  0.00    +0.000 C 
ATOM     12  C   UNL     1      45.961   5.871  12.142  0.00  0.00    +0.000 A 
ATOM     13  N   UNL     1      45.205   5.096  11.353  0.00  0.00    +0.000 NA
ATOM     14  C   UNL     1      45.068   3.817  11.786  0.00  0.00    +0.000 A 
ATOM     15  N   UNL     1      45.621   3.312  12.917  0.00  0.00    +0.000 NA
ATOM     16  C   UNL     1      46.353   4.158  13.675  0.00  0.00    +0.000 A 
ATOM     17  C   UNL     1      46.547   5.459  13.321  0.00  0.00    +0.000 A 
BRANCH  14  18
ATOM     18  C   UNL     1      44.198   2.892  10.956  0.00  0.00    +0.000 C 
BRANCH  18  19
ATOM     19  O   UNL     1      42.864   2.776  11.467  0.00  0.00    +0.000 OA
ATOM     20  H   UNL     1      42.958   2.853  12.439  0.00  0.00    +0.000 HD
ENDBRANCH  18  19
ENDBRANCH  14  18
ENDBRANCH   5   9
BRANCH   1  21
ATOM     21  C   UNL     1      49.635   4.687  19.949  0.00  0.00    +0.000 C 
BRANCH  21  22
ATOM     22  N   UNL     1      48.589   3.922  20.621  0.00  0.00    +0.000 NA
ATOM     23  H   UNL     1      48.967   3.522  21.478  0.00  0.00    +0.000 HD
ATOM     24  H   UNL     1      48.321   3.135  20.032  0.00  0.00    +0.000 HD
ENDBRANCH  21  22
ENDBRANCH   1  21
TORSDOF 5
ENDMDL
MODEL 7
REMARK VINA RESULT:    -5.793      4.230      6.402
REMARK INTER + INTRA:          -6.903
REMARK INTER:                  -6.532
REMARK INTRA:                  -0.371
REMARK UNBOUND:                 0.245
REMARK  Name = 
REMARK  5 active torsions:
REMARK  status: ('A' for Active; 'I' for Inactive)
REMARK    1  A    between atoms: N_1  and  C_2
REMARK    2  A    between atoms: C_2  and  C_3
REMARK    3  A    between atoms: N_7  and  C_8
REMARK    4  A    between atoms: C_13  and  C_14
REMARK    5  A    between atoms: C_14  and  O_15
REMARK                            x       y       z     vdW  Elec       q    Type
REMARK                         _______ _______ _______ _____ _____    ______ ____
ROOT
ATOM      1  C   UNL     1      51.278   9.872  10.733  0.00  0.00    +0.000 A 
ATOM      2  C   UNL     1      51.412   8.497  10.916  0.00  0.00    +0.000 A 
ATOM      3  C   UNL     1      50.358   7.758  11.458  0.00  0.00    +0.000 A 
ATOM      4  C   UNL     1      49.187   8.401  11.834  0.00  0.00    +0.000 A 
ATOM      5  N   UNL     1      48.090   7.769  12.360  0.00  0.00    +0.000 N 
ATOM      6  N   UNL     1      49.039   9.728  11.664  0.00  0.00    +0.000 NA
ATOM      7  C   UNL     1      50.067  10.428  11.118  0.00  0.00    +0.000 A 
ATOM      8  H   UNL     1      47.398   8.433  12.687  0.00  0.00    +0.000 HD
ENDROOT
BRANCH   5   9
ATOM      9  C   UNL     1      48.016   6.395  12.777  0.00  0.00    +0.000 C 
ATOM     10  C   UNL     1      47.954   6.233  14.307  0.00  0.00    +0.000 C 
ATOM     11  C   UNL     1      47.156   4.942  14.568  0.00  0.00    +0.000 C 
ATOM     12  C   UNL     1      46.252   4.916  13.368  0.00  0.00    +0.000 A 
ATOM     13  N   UNL     1      45.173   4.131  13.247  0.00  0.00    +0.000 NA
ATOM     14  C   UNL     1      44.527   4.241  12.058  0.00  0.00    +0.000 A 
ATOM     15  N   UNL     1      44.901   5.053  11.039  0.00  0.00    +0.000 NA
ATOM     16  C   UNL     1      46.012   5.799  11.223  0.00  0.00    +0.000 A 
ATOM     17  C   UNL     1      46.725   5.758  12.383  0.00  0.00    +0.000 A 
BRANCH  14  18
ATOM     18  C   UNL     1      43.314   3.356  11.842  0.00  0.00    +0.000 C 
BRANCH  18  19
ATOM     19  O   UNL     1      43.439   2.076  12.475  0.00  0.00    +0.000 OA
ATOM     20  H   UNL     1      42.592   1.620  12.292  0.00  0.00    +0.000 HD
ENDBRANCH  18  19
ENDBRANCH  14  18
ENDBRANCH   5   9
BRANCH   1  21
ATOM     21  C   UNL     1      52.398  10.715  10.197  0.00  0.00    +0.000 C 
BRANCH  21  22
ATOM     22  N   UNL     1      53.062  10.089   9.058  0.00  0.00    +0.000 NA
ATOM     23  H   UNL     1      53.842   9.527   9.394  0.00  0.00    +0.000 HD
ATOM     24  H   UNL     1      53.466  10.815   8.468  0.00  0.00    +0.000 HD
ENDBRANCH  21  22
ENDBRANCH   1  21
TORSDOF 5
ENDMDL
MODEL 8
REMARK VINA RESULT:    -5.733      3.367      5.686
REMARK INTER + INTRA:          -6.828
REMARK INTER:                  -6.459
REMARK INTRA:                  -0.369
REMARK UNBOUND:                 0.245
REMARK  Name = 
REMARK  5 active torsions:
REMARK  status: ('A' for Active; 'I' for Inactive)
REMARK    1  A    between atoms: N_1  and  C_2
REMARK    2  A    between atoms: C_2  and  C_3
REMARK    3  A    between atoms: N_7  and  C_8
REMARK    4  A    between atoms: C_13  and  C_14
REMARK    5  A    between atoms: C_14  and  O_15
REMARK                            x       y       z     vdW  Elec       q    Type
REMARK                         _______ _______ _______ _____ _____    ______ ____
ROOT
ATOM      1  C   UNL     1      44.402   4.632  11.511  0.00  0.00    +0.000 A 
ATOM      2  C   UNL     1      44.557   5.561  12.538  0.00  0.00    +0.000 A 
ATOM      3  C   UNL     1      45.385   5.270  13.624  0.00  0.00    +0.000 A 
ATOM      4  C   UNL     1      46.035   4.045  13.688  0.00  0.00    +0.000 A 
ATOM      5  N   UNL     1      46.879   3.668  14.699  0.00  0.00    +0.000 N 
ATOM      6  N   UNL     1      45.899   3.137  12.703  0.00  0.00    +0.000 NA
ATOM      7  C   UNL     1      45.104   3.444  11.646  0.00  0.00    +0.000 A 
ATOM      8  H   UNL     1      47.142   2.692  14.621  0.00  0.00    +0.000 HD
ENDROOT
BRANCH   5   9
ATOM      9  C   UNL     1      47.100   4.371  15.933  0.00  0.00    +0.000 C 
ATOM     10  C   UNL     1      47.516   3.443  17.089  0.00  0.00    +0.000 C 
ATOM     11  C   UNL     1      48.401   4.290  18.021  0.00  0.00    +0.000 C 
ATOM     12  C   UNL     1      49.009   5.255  17.041  0.00  0.00    +0.000 A 
ATOM     13  N   UNL     1      50.061   6.041  17.302  0.00  0.00    +0.000 NA
ATOM     14  C   UNL     1      50.414   6.866  16.284  0.00  0.00    +0.000 A 
ATOM     15  N   UNL     1      49.786   6.937  15.084  0.00  0.00    +0.000 NA
ATOM     16  C   UNL     1      48.718   6.131  14.899  0.00  0.00    +0.000 A 
ATOM     17  C   UNL     1      48.291   5.268  15.862  0.00  0.00    +0.000 A 
BRANCH  14  18
ATOM     18  C   UNL     1      51.580   7.807  16.524  0.00  0.00    +0.000 C 
BRANCH  18  19
ATOM     19  O   UNL     1      52.799   7.345  15.928  0.00  0.00    +0.000 OA
ATOM     20  H   UNL     1      52.589   7.231  14.978  0.00  0.00    +0.000 HD
ENDBRANCH  18  19
ENDBRANCH  14  18
ENDBRANCH   5   9
BRANCH   1  21
ATOM     21  C   UNL     1      43.488   4.880  10.346  0.00  0.00    +0.000 C 
BRANCH  21  22
ATOM     22  N   UNL     1      44.071   4.433   9.084  0.00  0.00    +0.000 NA
ATOM     23  H   UNL     1      44.253   5.244   8.495  0.00  0.00    +0.000 HD
ATOM     24  H   UNL     1      43.389   3.864   8.586  0.00  0.00    +0.000 HD
ENDBRANCH  21  22
ENDBRANCH   1  21
TORSDOF 5
ENDMDL
MODEL 9
REMARK VINA RESULT:    -5.571      4.230      6.393
REMARK INTER + INTRA:          -6.628
REMARK INTER:                  -6.245
REMARK INTRA:                  -0.384
REMARK UNBOUND:                 0.245
REMARK  Name = 
REMARK  5 active torsions:
REMARK  status: ('A' for Active; 'I' for Inactive)
REMARK    1  A    between atoms: N_1  and  C_2
REMARK    2  A    between atoms: C_2  and  C_3
REMARK    3  A    between atoms: N_7  and  C_8
REMARK    4  A    between atoms: C_13  and  C_14
REMARK    5  A    between atoms: C_14  and  O_15
REMARK                            x       y       z     vdW  Elec       q    Type
REMARK                         _______ _______ _______ _____ _____    ______ ____
ROOT
ATOM      1  C   UNL     1      44.709   4.199  11.503  0.00  0.00    +0.000 A 
ATOM      2  C   UNL     1      45.074   5.434  10.972  0.00  0.00    +0.000 A 
ATOM      3  C   UNL     1      45.903   6.291  11.700  0.00  0.00    +0.000 A 
ATOM      4  C   UNL     1      46.344   5.917  12.962  0.00  0.00    +0.000 A 
ATOM      5  N   UNL     1      47.170   6.673  13.750  0.00  0.00    +0.000 N 
ATOM      6  N   UNL     1      46.003   4.726  13.490  0.00  0.00    +0.000 NA
ATOM      7  C   UNL     1      45.211   3.898  12.760  0.00  0.00    +0.000 A 
ATOM      8  H   UNL     1      47.262   6.281  14.680  0.00  0.00    +0.000 HD
ENDROOT
BRANCH   5   9
ATOM      9  C   UNL     1      47.574   8.032  13.505  0.00  0.00    +0.000 C 
ATOM     10  C   UNL     1      47.894   8.807  14.796  0.00  0.00    +0.000 C 
ATOM     11  C   UNL     1      48.960   9.851  14.415  0.00  0.00    +0.000 C 
ATOM     12  C   UNL     1      49.663   9.145  13.289  0.00  0.00    +0.000 A 
ATOM     13  N   UNL     1      50.845   9.517  12.781  0.00  0.00    +0.000 NA
ATOM     14  C   UNL     1      51.273   8.761  11.738  0.00  0.00    +0.000 A 
ATOM     15  N   UNL     1      50.598   7.710  11.208  0.00  0.00    +0.000 NA
ATOM     16  C   UNL     1      49.402   7.406  11.758  0.00  0.00    +0.000 A 
ATOM     17  C   UNL     1      48.892   8.107  12.809  0.00  0.00    +0.000 A 
BRANCH  14  18
ATOM     18  C   UNL     1      52.590   9.147  11.093  0.00  0.00    +0.000 C 
BRANCH  18  19
ATOM     19  O   UNL     1      52.745   8.604   9.776  0.00  0.00    +0.000 OA
ATOM     20  H   UNL     1      51.835   8.541   9.419  0.00  0.00    +0.000 HD
ENDBRANCH  18  19
ENDBRANCH  14  18
ENDBRANCH   5   9
BRANCH   1  21
ATOM     21  C   UNL     1      43.784   3.264  10.779  0.00  0.00    +0.000 C 
BRANCH  21  22
ATOM     22  N   UNL     1      43.098   2.354  11.691  0.00  0.00    +0.000 NA
ATOM     23  H   UNL     1      43.706   1.561  11.890  0.00  0.00    +0.000 HD
ATOM     24  H   UNL     1      42.275   1.974  11.225  0.00  0.00    +0.000 HD
ENDBRANCH  21  22
ENDBRANCH   1  21
TORSDOF 5
ENDMDL
