MODEL 1
REMARK VINA RESULT:    -7.142      0.000      0.000
REMARK INTER + INTRA:         -10.098
REMARK INTER:                  -9.438
REMARK INTRA:                  -0.660
REMARK UNBOUND:                -0.660
REMARK  Name = 
REMARK  6 active torsions:
REMARK  status: ('A' for Active; 'I' for Inactive)
REMARK    1  A    between atoms: N_1  and  C_2
REMARK    2  A    between atoms: C_2  and  C_3
REMARK    3  A    between atoms: C_3  and  O_4
REMARK    4  A    between atoms: O_4  and  C_5
REMARK    5  A    between atoms: C_8  and  C_9
REMARK    6  A    between atoms: C_9  and  C_10
REMARK                            x       y       z     vdW  Elec       q    Type
REMARK                         _______ _______ _______ _____ _____    ______ ____
ROOT
ATOM      1  C   UNL     1      45.990   4.876  13.490  0.00  0.00    +0.000 A 
ATOM      2  C   UNL     1      45.530   5.886  12.644  0.00  0.00    +0.000 A 
ATOM      3  C   UNL     1      44.966   5.574  11.402  0.00  0.00    +0.000 A 
ATOM      4  C   UNL     1      44.860   4.243  10.976  0.00  0.00    +0.000 A 
ATOM      5  C   UNL     1      45.305   3.232  11.839  0.00  0.00    +0.000 A 
ATOM      6  C   UNL     1      45.862   3.546  13.084  0.00  0.00    +0.000 A 
ENDROOT
BRANCH   1   7
ATOM      7  O   UNL     1      46.571   5.062  14.718  0.00  0.00    +0.000 OA
BRANCH   7   8
ATOM      8  C   UNL     1      47.433   4.013  15.167  0.00  0.00    +0.000 C 
BRANCH   8   9
ATOM      9  C   UNL     1      47.563   4.074  16.692  0.00  0.00    +0.000 C 
BRANCH   9  10
ATOM     10  N   UNL     1      46.552   3.245  17.352  0.00  0.00    +0.000 NA
ATOM     11  H   UNL     1      46.639   3.350  18.362  0.00  0.00    +0.000 HD
ATOM     12  H   UNL     1      46.732   2.262  17.152  0.00  0.00    +0.000 HD
ENDBRANCH   9  10
ENDBRANCH   8   9
ENDBRANCH   7   8
ENDBRANCH   1   7
BRANCH   4  13
ATOM     13  C   UNL     1      44.251   3.899   9.639  0.00  0.00    +0.000 C 
BRANCH  13  14
ATOM     14  C   UNL     1      45.358   3.818   8.633  0.00  0.00    +0.000 A 
ATOM     15  C   UNL     1      46.052   4.885   8.082  0.00  0.00    +0.000 A 
ATOM     16  N   UNL     1      47.052   4.393   7.285  0.00  0.00    +0.000 N 
ATOM     17  C   UNL     1      47.052   3.018   7.321  0.00  0.00    +0.000 A 
ATOM     18  C   UNL     1      47.906   2.102   6.718  0.00  0.00    +0.000 A 
ATOM     19  N   UNL     1      47.699   0.779   6.917  0.00  0.00    +0.000 NA
ATOM     20  C   UNL     1      46.659   0.391   7.687  0.00  0.00    +0.000 A 
ATOM     21  C   UNL     1      45.771   1.253   8.313  0.00  0.00    +0.000 A 
ATOM     22  C   UNL     1      45.986   2.628   8.130  0.00  0.00    +0.000 A 
ATOM     23  H   UNL     1      47.715   4.956   6.772  0.00  0.00    +0.000 HD
ENDBRANCH  13  14
ENDBRANCH   4  13
TORSDOF 6
ENDMDL
MODEL 2
REMARK VINA RESULT:    -6.888      2.888      7.108
REMARK INTER + INTRA:          -9.763
REMARK INTER:                  -9.135
REMARK INTRA:                  -0.629
REMARK UNBOUND:                -0.660
REMARK  Name = 
REMARK  6 active torsions:
REMARK  status: ('A' for Active; 'I' for Inactive)
REMARK    1  A    between atoms: N_1  and  C_2
REMARK    2  A    between atoms: C_2  and  C_3
REMARK    3  A    between atoms: C_3  and  O_4
REMARK    4  A    between atoms: O_4  and  C_5
REMARK    5  A    between atoms: C_8  and  C_9
REMARK    6  A    between atoms: C_9  and  C_10
REMARK                            x       y       z     vdW  Elec       q    Type
REMARK                         _______ _______ _______ _____ _____    ______ ____
ROOT
ATOM      1  C   UNL     1      45.189   3.395   8.280  0.00  0.00    +0.000 A 
ATOM      2  C   UNL     1      44.514   2.509   9.121  0.00  0.00    +0.000 A 
ATOM      3  C   UNL     1      44.198   2.874  10.435  0.00  0.00    +0.000 A 
ATOM      4  C   UNL     1      44.561   4.131  10.938  0.00  0.00    +0.000 A 
ATOM      5  C   UNL     1      45.221   5.023  10.081  0.00  0.00    +0.000 A 
ATOM      6  C   UNL     1      45.529   4.659   8.766  0.00  0.00    +0.000 A 
ENDROOT
BRANCH   1   7
ATOM      7  O   UNL     1      45.562   3.143   6.985  0.00  0.00    +0.000 OA
BRANCH   7   8
ATOM      8  C   UNL     1      46.939   3.374   6.675  0.00  0.00    +0.000 C 
BRANCH   8   9
ATOM      9  C   UNL     1      47.730   2.076   6.861  0.00  0.00    +0.000 C 
BRANCH   9  10
ATOM     10  N   UNL     1      48.561   1.779   5.691  0.00  0.00    +0.000 NA
ATOM     11  H   UNL     1      48.158   2.229   4.870  0.00  0.00    +0.000 HD
ATOM     12  H   UNL     1      48.543   0.777   5.504  0.00  0.00    +0.000 HD
ENDBRANCH   9  10
ENDBRANCH   8   9
ENDBRANCH   7   8
ENDBRANCH   1   7
BRANCH   4  13
ATOM     13  C   UNL     1      44.222   4.532  12.352  0.00  0.00    +0.000 C 
BRANCH  13  14
ATOM     14  C   UNL     1      45.473   5.035  13.003  0.00  0.00    +0.000 A 
ATOM     15  C   UNL     1      46.495   4.264  13.535  0.00  0.00    +0.000 A 
ATOM     16  N   UNL     1      47.506   5.094  13.942  0.00  0.00    +0.000 N 
ATOM     17  C   UNL     1      47.184   6.402  13.663  0.00  0.00    +0.000 A 
ATOM     18  C   UNL     1      47.917   7.569  13.849  0.00  0.00    +0.000 A 
ATOM     19  N   UNL     1      47.375   8.753  13.478  0.00  0.00    +0.000 NA
ATOM     20  C   UNL     1      46.132   8.763  12.950  0.00  0.00    +0.000 A 
ATOM     21  C   UNL     1      45.349   7.637  12.741  0.00  0.00    +0.000 A 
ATOM     22  C   UNL     1      45.907   6.402  13.104  0.00  0.00    +0.000 A 
ATOM     23  H   UNL     1      48.375   4.790  14.356  0.00  0.00    +0.000 HD
ENDBRANCH  13  14
ENDBRANCH   4  13
TORSDOF 6
ENDMDL
MODEL 3
REMARK VINA RESULT:    -6.779      2.682      6.661
REMARK INTER + INTRA:          -9.619
REMARK INTER:                  -9.018
REMARK INTRA:                  -0.600
REMARK UNBOUND:                -0.660
REMARK  Name = 
REMARK  6 active torsions:
REMARK  status: ('A' for Active; 'I' for Inactive)
REMARK    1  A    between atoms: N_1  and  C_2
REMARK    2  A    between atoms: C_2  and  C_3
REMARK    3  A    between atoms: C_3  and  O_4
REMARK    4  A    between atoms: O_4  and  C_5
REMARK    5  A    between atoms: C_8  and  C_9
REMARK    6  A    between atoms: C_9  and  C_10
REMARK                            x       y       z     vdW  Elec       q    Type
REMARK                         _______ _______ _______ _____ _____    ______ ____
ROOT
ATOM      1  C   UNL     1      45.323   2.571   8.691  0.00  0.00    +0.000 A 
ATOM      2  C   UNL     1      45.694   3.896   8.454  0.00  0.00    +0.000 A 
ATOM      3  C   UNL     1      45.235   4.924   9.285  0.00  0.00    +0.000 A 
ATOM      4  C   UNL     1      44.386   4.649  10.366  0.00  0.00    +0.000 A 
ATOM      5  C   UNL     1      44.034   3.314  10.611  0.00  0.00    +0.000 A 
ATOM      6  C   UNL     1      44.501   2.287   9.783  0.00  0.00    +0.000 A 
ENDROOT
BRANCH   1   7
ATOM      7  O   UNL     1      45.698   1.488   7.939  0.00  0.00    +0.000 OA
BRANCH   7   8
ATOM      8  C   UNL     1      47.073   1.446   7.547  0.00  0.00    +0.000 C 
BRANCH   8   9
ATOM      9  C   UNL     1      47.217   1.992   6.123  0.00  0.00    +0.000 C 
BRANCH   9  10
ATOM     10  N   UNL     1      48.581   1.827   5.617  0.00  0.00    +0.000 NA
ATOM     11  H   UNL     1      49.234   1.850   6.399  0.00  0.00    +0.000 HD
ATOM     12  H   UNL     1      48.823   2.617   5.021  0.00  0.00    +0.000 HD
ENDBRANCH   9  10
ENDBRANCH   8   9
ENDBRANCH   7   8
ENDBRANCH   1   7
BRANCH   4  13
ATOM     13  C   UNL     1      43.889   5.752  11.268  0.00  0.00    +0.000 C 
BRANCH  13  14
ATOM     14  C   UNL     1      45.080   6.409  11.894  0.00  0.00    +0.000 A 
ATOM     15  C   UNL     1      45.475   7.729  11.733  0.00  0.00    +0.000 A 
ATOM     16  N   UNL     1      46.548   7.969  12.550  0.00  0.00    +0.000 N 
ATOM     17  C   UNL     1      46.855   6.839  13.271  0.00  0.00    +0.000 A 
ATOM     18  C   UNL     1      47.822   6.629  14.248  0.00  0.00    +0.000 A 
ATOM     19  N   UNL     1      47.920   5.409  14.826  0.00  0.00    +0.000 NA
ATOM     20  C   UNL     1      47.083   4.428  14.424  0.00  0.00    +0.000 A 
ATOM     21  C   UNL     1      46.100   4.572  13.455  0.00  0.00    +0.000 A 
ATOM     22  C   UNL     1      45.976   5.838  12.862  0.00  0.00    +0.000 A 
ATOM     23  H   UNL     1      47.025   8.855  12.636  0.00  0.00    +0.000 HD
ENDBRANCH  13  14
ENDBRANCH   4  13
TORSDOF 6
ENDMDL
MODEL 4
REMARK VINA RESULT:    -6.734      2.221      2.869
REMARK INTER + INTRA:          -9.560
REMARK INTER:                  -8.909
REMARK INTRA:                  -0.651
REMARK UNBOUND:                -0.660
REMARK  Name = 
REMARK  6 active torsions:
REMARK  status: ('A' for Active; 'I' for Inactive)
REMARK    1  A    between atoms: N_1  and  C_2
REMARK    2  A    between atoms: C_2  and  C_3
REMARK    3  A    between atoms: C_3  and  O_4
REMARK    4  A    between atoms: O_4  and  C_5
REMARK    5  A    between atoms: C_8  and  C_9
REMARK    6  A    between atoms: C_9  and  C_10
REMARK                            x       y       z     vdW  Elec       q    Type
REMARK                         _______ _______ _______ _____ _____    ______ ____
ROOT
ATOM      1  C   UNL     1      46.358   6.089  12.722  0.00  0.00    +0.000 A 
ATOM      2  C   UNL     1      45.419   5.060  12.808  0.00  0.00    +0.000 A 
ATOM      3  C   UNL     1      44.803   4.560  11.656  0.00  0.00    +0.000 A 
ATOM      4  C   UNL     1      45.106   5.086  10.393  0.00  0.00    +0.000 A 
ATOM      5  C   UNL     1      46.065   6.105  10.311  0.00  0.00    +0.000 A 
ATOM      6  C   UNL     1      46.686   6.599  11.464  0.00  0.00    +0.000 A 
ENDROOT
BRANCH   1   7
ATOM      7  O   UNL     1      47.013   6.666  13.779  0.00  0.00    +0.000 OA
BRANCH   7   8
ATOM      8  C   UNL     1      48.273   7.273  13.477  0.00  0.00    +0.000 C 
BRANCH   8   9
ATOM      9  C   UNL     1      48.621   8.297  14.562  0.00  0.00    +0.000 C 
BRANCH   9  10
ATOM     10  N   UNL     1      47.423   8.962  15.079  0.00  0.00    +0.000 NA
ATOM     11  H   UNL     1      47.284   8.695  16.053  0.00  0.00    +0.000 HD
ATOM     12  H   UNL     1      46.602   8.630  14.574  0.00  0.00    +0.000 HD
ENDBRANCH   9  10
ENDBRANCH   8   9
ENDBRANCH   7   8
ENDBRANCH   1   7
BRANCH   4  13
ATOM     13  C   UNL     1      44.447   4.550   9.146  0.00  0.00    +0.000 C 
BRANCH  13  14
ATOM     14  C   UNL     1      44.987   3.176   8.891  0.00  0.00    +0.000 A 
ATOM     15  C   UNL     1      44.451   1.981   9.343  0.00  0.00    +0.000 A 
ATOM     16  N   UNL     1      45.174   0.946   8.812  0.00  0.00    +0.000 N 
ATOM     17  C   UNL     1      46.164   1.434   7.992  0.00  0.00    +0.000 A 
ATOM     18  C   UNL     1      47.098   0.763   7.210  0.00  0.00    +0.000 A 
ATOM     19  N   UNL     1      47.976   1.481   6.472  0.00  0.00    +0.000 NA
ATOM     20  C   UNL     1      47.926   2.830   6.528  0.00  0.00    +0.000 A 
ATOM     21  C   UNL     1      47.022   3.558   7.289  0.00  0.00    +0.000 A 
ATOM     22  C   UNL     1      46.094   2.825   8.044  0.00  0.00    +0.000 A 
ATOM     23  H   UNL     1      44.988  -0.034   8.971  0.00  0.00    +0.000 HD
ENDBRANCH  13  14
ENDBRANCH   4  13
TORSDOF 6
ENDMDL
MODEL 5
REMARK VINA RESULT:    -6.184      2.762      3.706
REMARK INTER + INTRA:          -8.833
REMARK INTER:                  -8.161
REMARK INTRA:                  -0.672
REMARK UNBOUND:                -0.660
REMARK  Name = 
REMARK  6 active torsions:
REMARK  status: ('A' for Active; 'I' for Inactive)
REMARK    1  A    between atoms: N_1  and  C_2
REMARK    2  A    between atoms: C_2  and  C_3
REMARK    3  A    between atoms: C_3  and  O_4
REMARK    4  A    between atoms: O_4  and  C_5
REMARK    5  A    between atoms: C_8  and  C_9
REMARK    6  A    between atoms: C_9  and  C_10
REMARK                            x       y       z     vdW  Elec       q    Type
REMARK                         _______ _______ _______ _____ _____    ______ ____
ROOT
ATOM      1  C   UNL     1      47.193   7.451  13.166  0.00  0.00    +0.000 A 
ATOM      2  C   UNL     1      46.808   6.141  13.458  0.00  0.00    +0.000 A 
ATOM      3  C   UNL     1      45.657   5.592  12.882  0.00  0.00    +0.000 A 
ATOM      4  C   UNL     1      44.861   6.345  12.010  0.00  0.00    +0.000 A 
ATOM      5  C   UNL     1      45.264   7.653  11.705  0.00  0.00    +0.000 A 
ATOM      6  C   UNL     1      46.419   8.198  12.275  0.00  0.00    +0.000 A 
ENDROOT
BRANCH   1   7
ATOM      7  O   UNL     1      48.288   8.097  13.679  0.00  0.00    +0.000 OA
BRANCH   7   8
ATOM      8  C   UNL     1      48.845   7.533  14.870  0.00  0.00    +0.000 C 
BRANCH   8   9
ATOM      9  C   UNL     1      48.873   8.595  15.973  0.00  0.00    +0.000 C 
BRANCH   9  10
ATOM     10  N   UNL     1      47.585   9.281  16.094  0.00  0.00    +0.000 NA
ATOM     11  H   UNL     1      47.010   9.062  15.282  0.00  0.00    +0.000 HD
ATOM     12  H   UNL     1      47.731  10.290  16.075  0.00  0.00    +0.000 HD
ENDBRANCH   9  10
ENDBRANCH   8   9
ENDBRANCH   7   8
ENDBRANCH   1   7
BRANCH   4  13
ATOM     13  C   UNL     1      43.620   5.758  11.383  0.00  0.00    +0.000 C 
BRANCH  13  14
ATOM     14  C   UNL     1      43.930   4.352  10.971  0.00  0.00    +0.000 A 
ATOM     15  C   UNL     1      43.420   3.194  11.538  0.00  0.00    +0.000 A 
ATOM     16  N   UNL     1      43.864   2.118  10.815  0.00  0.00    +0.000 N 
ATOM     17  C   UNL     1      44.637   2.545   9.761  0.00  0.00    +0.000 A 
ATOM     18  C   UNL     1      45.250   1.822   8.743  0.00  0.00    +0.000 A 
ATOM     19  N   UNL     1      45.961   2.485   7.801  0.00  0.00    +0.000 NA
ATOM     20  C   UNL     1      46.062   3.829   7.887  0.00  0.00    +0.000 A 
ATOM     21  C   UNL     1      45.478   4.607   8.876  0.00  0.00    +0.000 A 
ATOM     22  C   UNL     1      44.723   3.933   9.848  0.00  0.00    +0.000 A 
ATOM     23  H   UNL     1      43.632   1.154  11.007  0.00  0.00    +0.000 HD
ENDBRANCH  13  14
ENDBRANCH   4  13
TORSDOF 6
ENDMDL
MODEL 6
REMARK VINA RESULT:    -6.072      2.940      4.017
REMARK INTER + INTRA:          -8.685
REMARK INTER:                  -8.073
REMARK INTRA:                  -0.611
REMARK UNBOUND:                -0.660
REMARK  Name = 
REMARK  6 active torsions:
REMARK  status: ('A' for Active; 'I' for Inactive)
REMARK    1  A    between atoms: N_1  and  C_2
REMARK    2  A    between atoms: C_2  and  C_3
REMARK    3  A    between atoms: C_3  and  O_4
REMARK    4  A    between atoms: O_4  and  C_5
REMARK    5  A    between atoms: C_8  and  C_9
REMARK    6  A    between atoms: C_9  and  C_10
REMARK                            x       y       z     vdW  Elec       q    Type
REMARK                         _______ _______ _______ _____ _____    ______ ____
ROOT
ATOM      1  C   UNL     1      47.063   7.693  12.836  0.00  0.00    +0.000 A 
ATOM      2  C   UNL     1      46.067   8.456  12.226  0.00  0.00    +0.000 A 
ATOM      3  C   UNL     1      44.932   7.843  11.683  0.00  0.00    +0.000 A 
ATOM      4  C   UNL     1      44.776   6.451  11.730  0.00  0.00    +0.000 A 
ATOM      5  C   UNL     1      45.771   5.692  12.362  0.00  0.00    +0.000 A 
ATOM      6  C   UNL     1      46.901   6.308  12.911  0.00  0.00    +0.000 A 
ENDROOT
BRANCH   1   7
ATOM      7  O   UNL     1      48.220   8.180  13.388  0.00  0.00    +0.000 OA
BRANCH   7   8
ATOM      8  C   UNL     1      48.927   9.147  12.606  0.00  0.00    +0.000 C 
BRANCH   8   9
ATOM      9  C   UNL     1      49.767   8.431  11.545  0.00  0.00    +0.000 C 
BRANCH   9  10
ATOM     10  N   UNL     1      50.642   7.420  12.143  0.00  0.00    +0.000 NA
ATOM     11  H   UNL     1      51.011   7.774  13.024  0.00  0.00    +0.000 HD
ATOM     12  H   UNL     1      51.449   7.265  11.539  0.00  0.00    +0.000 HD
ENDBRANCH   9  10
ENDBRANCH   8   9
ENDBRANCH   7   8
ENDBRANCH   1   7
BRANCH   4  13
ATOM     13  C   UNL     1      43.555   5.783  11.148  0.00  0.00    +0.000 C 
BRANCH  13  14
ATOM     14  C   UNL     1      43.910   4.362  10.831  0.00  0.00    +0.000 A 
ATOM     15  C   UNL     1      43.427   3.229  11.468  0.00  0.00    +0.000 A 
ATOM     16  N   UNL     1      43.910   2.123  10.821  0.00  0.00    +0.000 N 
ATOM     17  C   UNL     1      44.682   2.503   9.748  0.00  0.00    +0.000 A 
ATOM     18  C   UNL     1      45.327   1.733   8.786  0.00  0.00    +0.000 A 
ATOM     19  N   UNL     1      46.030   2.354   7.809  0.00  0.00    +0.000 NA
ATOM     20  C   UNL     1      46.092   3.703   7.808  0.00  0.00    +0.000 A 
ATOM     21  C   UNL     1      45.474   4.527   8.739  0.00  0.00    +0.000 A 
ATOM     22  C   UNL     1      44.727   3.896   9.745  0.00  0.00    +0.000 A 
ATOM     23  H   UNL     1      43.703   1.167  11.073  0.00  0.00    +0.000 HD
ENDBRANCH  13  14
ENDBRANCH   4  13
TORSDOF 6
ENDMDL
MODEL 7
REMARK VINA RESULT:    -5.681      4.198      6.344
REMARK INTER + INTRA:          -8.168
REMARK INTER:                  -7.773
REMARK INTRA:                  -0.394
REMARK UNBOUND:                -0.660
REMARK  Name = 
REMARK  6 active torsions:
REMARK  status: ('A' for Active; 'I' for Inactive)
REMARK    1  A    between atoms: N_1  and  C_2
REMARK    2  A    between atoms: C_2  and  C_3
REMARK    3  A    between atoms: C_3  and  O_4
REMARK    4  A    between atoms: O_4  and  C_5
REMARK    5  A    between atoms: C_8  and  C_9
REMARK    6  A    between atoms: C_9  and  C_10
REMARK                            x       y       z     vdW  Elec       q    Type
REMARK                         _______ _______ _______ _____ _____    ______ ____
ROOT
ATOM      1  C   UNL     1      44.472  10.210  11.760  0.00  0.00    +0.000 A 
ATOM      2  C   UNL     1      45.794  10.298  12.198  0.00  0.00    +0.000 A 
ATOM      3  C   UNL     1      46.617   9.166  12.213  0.00  0.00    +0.000 A 
ATOM      4  C   UNL     1      46.130   7.919  11.798  0.00  0.00    +0.000 A 
ATOM      5  C   UNL     1      44.807   7.842  11.341  0.00  0.00    +0.000 A 
ATOM      6  C   UNL     1      43.989   8.977  11.320  0.00  0.00    +0.000 A 
ENDROOT
BRANCH   1   7
ATOM      7  O   UNL     1      43.573  11.244  11.715  0.00  0.00    +0.000 OA
BRANCH   7   8
ATOM      8  C   UNL     1      42.439  11.049  10.865  0.00  0.00    +0.000 C 
BRANCH   8   9
ATOM      9  C   UNL     1      41.179  10.891  11.722  0.00  0.00    +0.000 C 
BRANCH   9  10
ATOM     10  N   UNL     1      40.487   9.632  11.436  0.00  0.00    +0.000 NA
ATOM     11  H   UNL     1      40.729   8.946  12.150  0.00  0.00    +0.000 HD
ATOM     12  H   UNL     1      40.822   9.251  10.551  0.00  0.00    +0.000 HD
ENDBRANCH   9  10
ENDBRANCH   8   9
ENDBRANCH   7   8
ENDBRANCH   1   7
BRANCH   4  13
ATOM     13  C   UNL     1      47.012   6.695  11.809  0.00  0.00    +0.000 C 
BRANCH  13  14
ATOM     14  C   UNL     1      46.215   5.555  12.367  0.00  0.00    +0.000 A 
ATOM     15  C   UNL     1      46.073   5.225  13.706  0.00  0.00    +0.000 A 
ATOM     16  N   UNL     1      45.186   4.186  13.810  0.00  0.00    +0.000 N 
ATOM     17  C   UNL     1      44.714   3.842  12.565  0.00  0.00    +0.000 A 
ATOM     18  C   UNL     1      43.771   2.891  12.191  0.00  0.00    +0.000 A 
ATOM     19  N   UNL     1      43.467   2.745  10.880  0.00  0.00    +0.000 NA
ATOM     20  C   UNL     1      44.101   3.521   9.974  0.00  0.00    +0.000 A 
ATOM     21  C   UNL     1      45.052   4.484  10.282  0.00  0.00    +0.000 A 
ATOM     22  C   UNL     1      45.362   4.657  11.639  0.00  0.00    +0.000 A 
ATOM     23  H   UNL     1      44.893   3.758  14.677  0.00  0.00    +0.000 HD
ENDBRANCH  13  14
ENDBRANCH   4  13
TORSDOF 6
ENDMDL
MODEL 8
REMARK VINA RESULT:    -5.533      3.487      5.038
REMARK INTER + INTRA:          -7.973
REMARK INTER:                  -7.366
REMARK INTRA:                  -0.606
REMARK UNBOUND:                -0.660
REMARK  Name = 
REMARK  6 active torsions:
REMARK  status: ('A' for Active; 'I' for Inactive)
REMARK    1  A    between atoms: N_1  and  C_2
REMARK    2  A    between atoms: C_2  and  C_3
REMARK    3  A    between atoms: C_3  and  O_4
REMARK    4  A    between atoms: O_4  and  C_5
REMARK    5  A    between atoms: C_8  and  C_9
REMARK    6  A    between atoms: C_9  and  C_10
REMARK                            x       y       z     vdW  Elec       q    Type
REMARK                         _______ _______ _______ _____ _____    ______ ____
ROOT
ATOM      1  C   UNL     1      48.493   7.502  12.522  0.00  0.00    +0.000 A 
ATOM      2  C   UNL     1      48.224   6.238  13.048  0.00  0.00    +0.000 A 
ATOM      3  C   UNL     1      46.912   5.753  13.102  0.00  0.00    +0.000 A 
ATOM      4  C   UNL     1      45.841   6.529  12.641  0.00  0.00    +0.000 A 
ATOM      5  C   UNL     1      46.120   7.790  12.095  0.00  0.00    +0.000 A 
ATOM      6  C   UNL     1      47.434   8.269  12.034  0.00  0.00    +0.000 A 
ENDROOT
BRANCH   1   7
ATOM      7  O   UNL     1      49.731   8.084  12.431  0.00  0.00    +0.000 OA
BRANCH   7   8
ATOM      8  C   UNL     1      50.524   7.693  11.306  0.00  0.00    +0.000 C 
BRANCH   8   9
ATOM      9  C   UNL     1      51.893   8.375  11.383  0.00  0.00    +0.000 C 
BRANCH   9  10
ATOM     10  N   UNL     1      52.466   8.588  10.052  0.00  0.00    +0.000 NA
ATOM     11  H   UNL     1      51.806   8.261   9.347  0.00  0.00    +0.000 HD
ATOM     12  H   UNL     1      53.303   8.017   9.944  0.00  0.00    +0.000 HD
ENDBRANCH   9  10
ENDBRANCH   8   9
ENDBRANCH   7   8
ENDBRANCH   1   7
BRANCH   4  13
ATOM     13  C   UNL     1      44.424   6.012  12.694  0.00  0.00    +0.000 C 
BRANCH  13  14
ATOM     14  C   UNL     1      44.401   4.657  12.057  0.00  0.00    +0.000 A 
ATOM     15  C   UNL     1      43.890   3.493  12.610  0.00  0.00    +0.000 A 
ATOM     16  N   UNL     1      43.963   2.494  11.676  0.00  0.00    +0.000 N 
ATOM     17  C   UNL     1      44.488   2.982  10.502  0.00  0.00    +0.000 A 
ATOM     18  C   UNL     1      44.698   2.353   9.280  0.00  0.00    +0.000 A 
ATOM     19  N   UNL     1      45.228   3.064   8.257  0.00  0.00    +0.000 NA
ATOM     20  C   UNL     1      45.549   4.360   8.461  0.00  0.00    +0.000 A 
ATOM     21  C   UNL     1      45.367   5.044   9.655  0.00  0.00    +0.000 A 
ATOM     22  C   UNL     1      44.801   4.323  10.717  0.00  0.00    +0.000 A 
ATOM     23  H   UNL     1      43.647   1.545  11.816  0.00  0.00    +0.000 HD
ENDBRANCH  13  14
ENDBRANCH   4  13
TORSDOF 6
ENDMDL
MODEL 9
REMARK VINA RESULT:    -5.264      3.553      8.065
REMARK INTER + INTRA:          -7.617
REMARK INTER:                  -6.884
REMARK INTRA:                  -0.733
REMARK UNBOUND:                -0.660
REMARK  Name = 
REMARK  6 active torsions:
REMARK  status: ('A' for Active; 'I' for Inactive)
REMARK    1  A    between atoms: N_1  and  C_2
REMARK    2  A    between atoms: C_2  and  C_3
REMARK    3  A    between atoms: C_3  and  O_4
REMARK    4  A    between atoms: O_4  and  C_5
REMARK    5  A    between atoms: C_8  and  C_9
REMARK    6  A    between atoms: C_9  and  C_10
REMARK                            x       y       z     vdW  Elec       q    Type
REMARK                         _______ _______ _______ _____ _____    ______ ____
ROOT
ATOM      1  C   UNL     1      45.167   5.453  11.965  0.00  0.00    +0.000 A 
ATOM      2  C   UNL     1      45.855   6.458  11.283  0.00  0.00    +0.000 A 
ATOM      3  C   UNL     1      47.085   6.926  11.757  0.00  0.00    +0.000 A 
ATOM      4  C   UNL     1      47.649   6.405  12.930  0.00  0.00    +0.000 A 
ATOM      5  C   UNL     1      46.963   5.382  13.598  0.00  0.00    +0.000 A 
ATOM      6  C   UNL     1      45.736   4.909  13.118  0.00  0.00    +0.000 A 
ENDROOT
BRANCH   1   7
ATOM      7  O   UNL     1      43.954   4.927  11.604  0.00  0.00    +0.000 OA
BRANCH   7   8
ATOM      8  C   UNL     1      43.876   4.384  10.282  0.00  0.00    +0.000 C 
BRANCH   8   9
ATOM      9  C   UNL     1      44.121   2.873  10.335  0.00  0.00    +0.000 C 
BRANCH   9  10
ATOM     10  N   UNL     1      43.345   2.238  11.402  0.00  0.00    +0.000 NA
ATOM     11  H   UNL     1      43.372   1.226  11.281  0.00  0.00    +0.000 HD
ATOM     12  H   UNL     1      42.365   2.507  11.319  0.00  0.00    +0.000 HD
ENDBRANCH   9  10
ENDBRANCH   8   9
ENDBRANCH   7   8
ENDBRANCH   1   7
BRANCH   4  13
ATOM     13  C   UNL     1      48.977   6.904  13.446  0.00  0.00    +0.000 C 
BRANCH  13  14
ATOM     14  C   UNL     1      48.721   7.700  14.688  0.00  0.00    +0.000 A 
ATOM     15  C   UNL     1      48.022   8.894  14.774  0.00  0.00    +0.000 A 
ATOM     16  N   UNL     1      47.920   9.249  16.094  0.00  0.00    +0.000 N 
ATOM     17  C   UNL     1      48.514   8.296  16.886  0.00  0.00    +0.000 A 
ATOM     18  C   UNL     1      48.608   8.207  18.271  0.00  0.00    +0.000 A 
ATOM     19  N   UNL     1      49.247   7.148  18.821  0.00  0.00    +0.000 NA
ATOM     20  C   UNL     1      49.784   6.215  18.005  0.00  0.00    +0.000 A 
ATOM     21  C   UNL     1      49.727   6.246  16.619  0.00  0.00    +0.000 A 
ATOM     22  C   UNL     1      49.051   7.330  16.037  0.00  0.00    +0.000 A 
ATOM     23  H   UNL     1      47.448  10.073  16.438  0.00  0.00    +0.000 HD
ENDBRANCH  13  14
ENDBRANCH   4  13
TORSDOF 6
ENDMDL
