MODEL 1
REMARK VINA RESULT:    -8.804      0.000      0.000
REMARK INTER + INTRA:         -12.361
REMARK INTER:                 -11.377
REMARK INTRA:                  -0.984
REMARK UNBOUND:                -0.984
REMARK  Name = 
REMARK  5 active torsions:
REMARK  status: ('A' for Active; 'I' for Inactive)
REMARK    1  A    between atoms: C_2  and  C_3
REMARK    2  A    between atoms: C_6  and  N_7
REMARK    3  A    between atoms: N_7  and  C_8
REMARK    4  A    between atoms: C_8  and  C_9
REMARK    5  A    between atoms: C_13  and  C_14
REMARK                            x       y       z     vdW  Elec       q    Type
REMARK                         _______ _______ _______ _____ _____    ______ ____
ROOT
ATOM      1  C   UNL     1      44.072   4.675  11.574  0.00  0.00    +0.000 C 
ATOM      2  C   UNL     1      43.428   3.647  12.493  0.00  0.00    +0.000 C 
ATOM      3  C   UNL     1      42.904   5.038  12.493  0.00  0.00    +0.000 C 
ENDROOT
BRANCH   1   4
ATOM      4  C   UNL     1      45.340   5.423  11.970  0.00  0.00    +0.000 A 
ATOM      5  C   UNL     1      45.693   6.626  11.333  0.00  0.00    +0.000 A 
ATOM      6  C   UNL     1      46.671   7.464  11.862  0.00  0.00    +0.000 A 
ATOM      7  C   UNL     1      47.324   7.107  13.042  0.00  0.00    +0.000 A 
ATOM      8  C   UNL     1      47.050   5.887  13.682  0.00  0.00    +0.000 A 
ATOM      9  C   UNL     1      46.088   5.046  13.096  0.00  0.00    +0.000 A 
BRANCH   8  10
ATOM     10  C   UNL     1      47.652   5.532  14.981  0.00  0.00    +0.000 A 
ATOM     11  C   UNL     1      48.699   6.289  15.538  0.00  0.00    +0.000 A 
ATOM     12  C   UNL     1      49.318   5.909  16.732  0.00  0.00    +0.000 A 
ATOM     13  C   UNL     1      48.889   4.767  17.403  0.00  0.00    +0.000 A 
ATOM     14  C   UNL     1      47.849   4.010  16.873  0.00  0.00    +0.000 A 
ATOM     15 CL   UNL     1      47.316   2.596  17.696  0.00  0.00    +0.000 Cl
ATOM     16  C   UNL     1      47.240   4.380  15.674  0.00  0.00    +0.000 A 
ENDBRANCH   8  10
ENDBRANCH   1   4
BRANCH   1  17
ATOM     17  N   UNL     1      43.854   4.544  10.126  0.00  0.00    +0.000 N 
ATOM     18  H   UNL     1      42.909   4.647   9.774  0.00  0.00    +0.000 HD
BRANCH  17  22
ATOM     19  C   UNL     1      46.622   2.652   7.535  0.00  0.00    +0.000 A 
ATOM     20  C   UNL     1      45.858   1.877   8.408  0.00  0.00    +0.000 A 
ATOM     21  C   UNL     1      44.940   2.492   9.271  0.00  0.00    +0.000 A 
ATOM     22  C   UNL     1      44.731   3.876   9.249  0.00  0.00    +0.000 A 
ATOM     23  C   UNL     1      45.525   4.642   8.381  0.00  0.00    +0.000 A 
ATOM     24  C   UNL     1      46.459   4.037   7.530  0.00  0.00    +0.000 A 
BRANCH  19  26
ATOM     25  N   UNL     1      48.356   1.535   5.958  0.00  0.00    +0.000 NA
ATOM     26  C   UNL     1      47.578   2.033   6.663  0.00  0.00    +0.000 C 
ENDBRANCH  19  26
ENDBRANCH  17  22
ENDBRANCH   1  17
TORSDOF 5
ENDMDL
MODEL 2
REMARK VINA RESULT:    -8.315      2.644      4.087
REMARK INTER + INTRA:         -11.729
REMARK INTER:                 -10.598
REMARK INTRA:                  -1.131
REMARK UNBOUND:                -0.984
REMARK  Name = 
REMARK  5 active torsions:
REMARK  status: ('A' for Active; 'I' for Inactive)
REMARK    1  A    between atoms: C_2  and  C_3
REMARK    2  A    between atoms: C_6  and  N_7
REMARK    3  A    between atoms: N_7  and  C_8
REMARK    4  A    between atoms: C_8  and  C_9
REMARK    5  A    between atoms: C_13  and  C_14
REMARK                            x       y       z     vdW  Elec       q    Type
REMARK                         _______ _______ _______ _____ _____    ______ ____
ROOT
ATOM      1  C   UNL     1      43.939   4.829  11.701  0.00  0.00    +0.000 C 
ATOM      2  C   UNL     1      43.078   3.722  12.291  0.00  0.00    +0.000 C 
ATOM      3  C   UNL     1      42.652   5.136  12.469  0.00  0.00    +0.000 C 
ENDROOT
BRANCH   1   4
ATOM      4  C   UNL     1      45.162   5.372  12.433  0.00  0.00    +0.000 A 
ATOM      5  C   UNL     1      45.993   4.516  13.176  0.00  0.00    +0.000 A 
ATOM      6  C   UNL     1      47.253   4.926  13.606  0.00  0.00    +0.000 A 
ATOM      7  C   UNL     1      47.703   6.211  13.305  0.00  0.00    +0.000 A 
ATOM      8  C   UNL     1      46.885   7.123  12.619  0.00  0.00    +0.000 A 
ATOM      9  C   UNL     1      45.603   6.690  12.237  0.00  0.00    +0.000 A 
BRANCH   8  10
ATOM     10  C   UNL     1      47.372   8.452  12.201  0.00  0.00    +0.000 A 
ATOM     11  C   UNL     1      46.503   9.553  12.092  0.00  0.00    +0.000 A 
ATOM     12  C   UNL     1      46.952  10.792  11.625  0.00  0.00    +0.000 A 
ATOM     13  C   UNL     1      48.289  10.957  11.272  0.00  0.00    +0.000 A 
ATOM     14  C   UNL     1      49.166   9.882  11.381  0.00  0.00    +0.000 A 
ATOM     15 CL   UNL     1      50.818  10.080  10.942  0.00  0.00    +0.000 Cl
ATOM     16  C   UNL     1      48.716   8.642  11.832  0.00  0.00    +0.000 A 
ENDBRANCH   8  10
ENDBRANCH   1   4
BRANCH   1  17
ATOM     17  N   UNL     1      43.975   4.975  10.239  0.00  0.00    +0.000 N 
ATOM     18  H   UNL     1      43.183   5.414   9.783  0.00  0.00    +0.000 HD
BRANCH  17  22
ATOM     19  C   UNL     1      46.536   2.731   7.717  0.00  0.00    +0.000 A 
ATOM     20  C   UNL     1      45.643   2.065   8.556  0.00  0.00    +0.000 A 
ATOM     21  C   UNL     1      44.791   2.797   9.396  0.00  0.00    +0.000 A 
ATOM     22  C   UNL     1      44.779   4.196   9.382  0.00  0.00    +0.000 A 
ATOM     23  C   UNL     1      45.701   4.849   8.549  0.00  0.00    +0.000 A 
ATOM     24  C   UNL     1      46.570   4.126   7.722  0.00  0.00    +0.000 A 
BRANCH  19  26
ATOM     25  N   UNL     1      48.149   1.393   6.184  0.00  0.00    +0.000 NA
ATOM     26  C   UNL     1      47.425   1.991   6.869  0.00  0.00    +0.000 C 
ENDBRANCH  19  26
ENDBRANCH  17  22
ENDBRANCH   1  17
TORSDOF 5
ENDMDL
MODEL 3
REMARK VINA RESULT:    -8.086      2.812      3.254
REMARK INTER + INTRA:         -11.434
REMARK INTER:                 -10.499
REMARK INTRA:                  -0.935
REMARK UNBOUND:                -0.984
REMARK  Name = 
REMARK  5 active torsions:
REMARK  status: ('A' for Active; 'I' for Inactive)
REMARK    1  A    between atoms: C_2  and  C_3
REMARK    2  A    between atoms: C_6  and  N_7
REMARK    3  A    between atoms: N_7  and  C_8
REMARK    4  A    between atoms: C_8  and  C_9
REMARK    5  A    between atoms: C_13  and  C_14
REMARK                            x       y       z     vdW  Elec       q    Type
REMARK                         _______ _______ _______ _____ _____    ______ ____
ROOT
ATOM      1  C   UNL     1      44.374   4.556  11.543  0.00  0.00    +0.000 C 
ATOM      2  C   UNL     1      44.766   3.585  12.646  0.00  0.00    +0.000 C 
ATOM      3  C   UNL     1      43.505   4.360  12.786  0.00  0.00    +0.000 C 
ENDROOT
BRANCH   1   4
ATOM      4  C   UNL     1      44.937   5.972  11.481  0.00  0.00    +0.000 A 
ATOM      5  C   UNL     1      44.082   7.081  11.362  0.00  0.00    +0.000 A 
ATOM      6  C   UNL     1      44.541   8.376  11.591  0.00  0.00    +0.000 A 
ATOM      7  C   UNL     1      45.876   8.586  11.937  0.00  0.00    +0.000 A 
ATOM      8  C   UNL     1      46.783   7.516  12.007  0.00  0.00    +0.000 A 
ATOM      9  C   UNL     1      46.295   6.228  11.728  0.00  0.00    +0.000 A 
BRANCH   8  10
ATOM     10  C   UNL     1      48.173   7.698  12.466  0.00  0.00    +0.000 A 
ATOM     11  C   UNL     1      48.480   7.873  13.829  0.00  0.00    +0.000 A 
ATOM     12  C   UNL     1      49.789   8.120  14.254  0.00  0.00    +0.000 A 
ATOM     13  C   UNL     1      50.822   8.180  13.322  0.00  0.00    +0.000 A 
ATOM     14  C   UNL     1      50.540   8.001  11.972  0.00  0.00    +0.000 A 
ATOM     15 CL   UNL     1      51.812   8.078  10.816  0.00  0.00    +0.000 Cl
ATOM     16  C   UNL     1      49.232   7.770  11.545  0.00  0.00    +0.000 A 
ENDBRANCH   8  10
ENDBRANCH   1   4
BRANCH   1  17
ATOM     17  N   UNL     1      43.945   4.002  10.251  0.00  0.00    +0.000 N 
ATOM     18  H   UNL     1      42.982   3.696  10.158  0.00  0.00    +0.000 HD
BRANCH  17  22
ATOM     19  C   UNL     1      46.702   2.499   7.406  0.00  0.00    +0.000 A 
ATOM     20  C   UNL     1      46.052   1.615   8.266  0.00  0.00    +0.000 A 
ATOM     21  C   UNL     1      45.138   2.099   9.213  0.00  0.00    +0.000 A 
ATOM     22  C   UNL     1      44.821   3.460   9.289  0.00  0.00    +0.000 A 
ATOM     23  C   UNL     1      45.501   4.339   8.431  0.00  0.00    +0.000 A 
ATOM     24  C   UNL     1      46.431   3.865   7.497  0.00  0.00    +0.000 A 
BRANCH  19  26
ATOM     25  N   UNL     1      48.427   1.624   5.674  0.00  0.00    +0.000 NA
ATOM     26  C   UNL     1      47.653   2.014   6.448  0.00  0.00    +0.000 C 
ENDBRANCH  19  26
ENDBRANCH  17  22
ENDBRANCH   1  17
TORSDOF 5
ENDMDL
MODEL 4
REMARK VINA RESULT:    -6.529      3.827      7.985
REMARK INTER + INTRA:          -9.421
REMARK INTER:                  -8.497
REMARK INTRA:                  -0.925
REMARK UNBOUND:                -0.984
REMARK  Name = 
REMARK  5 active torsions:
REMARK  status: ('A' for Active; 'I' for Inactive)
REMARK    1  A    between atoms: C_2  and  C_3
REMARK    2  A    between atoms: C_6  and  N_7
REMARK    3  A    between atoms: N_7  and  C_8
REMARK    4  A    between atoms: C_8  and  C_9
REMARK    5  A    between atoms: C_13  and  C_14
REMARK                            x       y       z     vdW  Elec       q    Type
REMARK                         _______ _______ _______ _____ _____    ______ ____
ROOT
ATOM      1  C   UNL     1      48.686   8.002  12.591  0.00  0.00    +0.000 C 
ATOM      2  C   UNL     1      49.790   7.429  11.716  0.00  0.00    +0.000 C 
ATOM      3  C   UNL     1      49.291   8.802  11.436  0.00  0.00    +0.000 C 
ENDROOT
BRANCH   1   4
ATOM      4  C   UNL     1      47.215   7.690  12.335  0.00  0.00    +0.000 A 
ATOM      5  C   UNL     1      46.230   8.679  12.505  0.00  0.00    +0.000 A 
ATOM      6  C   UNL     1      44.940   8.507  12.009  0.00  0.00    +0.000 A 
ATOM      7  C   UNL     1      44.609   7.331  11.336  0.00  0.00    +0.000 A 
ATOM      8  C   UNL     1      45.539   6.289  11.196  0.00  0.00    +0.000 A 
ATOM      9  C   UNL     1      46.819   6.479  11.747  0.00  0.00    +0.000 A 
BRANCH   8  10
ATOM     10  C   UNL     1      45.246   5.078  10.405  0.00  0.00    +0.000 A 
ATOM     11  C   UNL     1      44.484   4.020  10.935  0.00  0.00    +0.000 A 
ATOM     12  C   UNL     1      44.270   2.843  10.212  0.00  0.00    +0.000 A 
ATOM     13  C   UNL     1      44.804   2.708   8.932  0.00  0.00    +0.000 A 
ATOM     14  C   UNL     1      45.552   3.747   8.388  0.00  0.00    +0.000 A 
ATOM     15 CL   UNL     1      46.216   3.584   6.808  0.00  0.00    +0.000 Cl
ATOM     16  C   UNL     1      45.779   4.915   9.114  0.00  0.00    +0.000 A 
ENDBRANCH   8  10
ENDBRANCH   1   4
BRANCH   1  17
ATOM     17  N   UNL     1      49.013   8.355  13.980  0.00  0.00    +0.000 N 
ATOM     18  H   UNL     1      49.216   9.325  14.191  0.00  0.00    +0.000 HD
BRANCH  17  22
ATOM     19  C   UNL     1      50.526   5.739  16.951  0.00  0.00    +0.000 A 
ATOM     20  C   UNL     1      49.173   5.689  16.616  0.00  0.00    +0.000 A 
ATOM     21  C   UNL     1      48.660   6.550  15.635  0.00  0.00    +0.000 A 
ATOM     22  C   UNL     1      49.488   7.439  14.940  0.00  0.00    +0.000 A 
ATOM     23  C   UNL     1      50.842   7.493  15.306  0.00  0.00    +0.000 A 
ATOM     24  C   UNL     1      51.358   6.650  16.299  0.00  0.00    +0.000 A 
BRANCH  19  26
ATOM     25  N   UNL     1      51.488   4.179  18.790  0.00  0.00    +0.000 NA
ATOM     26  C   UNL     1      51.055   4.876  17.966  0.00  0.00    +0.000 C 
ENDBRANCH  19  26
ENDBRANCH  17  22
ENDBRANCH   1  17
TORSDOF 5
ENDMDL
MODEL 5
REMARK VINA RESULT:    -6.116      4.046      7.682
REMARK INTER + INTRA:          -8.887
REMARK INTER:                  -7.772
REMARK INTRA:                  -1.115
REMARK UNBOUND:                -0.984
REMARK  Name = 
REMARK  5 active torsions:
REMARK  status: ('A' for Active; 'I' for Inactive)
REMARK    1  A    between atoms: C_2  and  C_3
REMARK    2  A    between atoms: C_6  and  N_7
REMARK    3  A    between atoms: N_7  and  C_8
REMARK    4  A    between atoms: C_8  and  C_9
REMARK    5  A    between atoms: C_13  and  C_14
REMARK                            x       y       z     vdW  Elec       q    Type
REMARK                         _______ _______ _______ _____ _____    ______ ____
ROOT
ATOM      1  C   UNL     1      48.745   8.175  15.903  0.00  0.00    +0.000 C 
ATOM      2  C   UNL     1      49.865   9.063  16.422  0.00  0.00    +0.000 C 
ATOM      3  C   UNL     1      48.504   9.640  16.269  0.00  0.00    +0.000 C 
ENDROOT
BRANCH   1   4
ATOM      4  C   UNL     1      48.534   7.937  14.411  0.00  0.00    +0.000 A 
ATOM      5  C   UNL     1      49.586   8.125  13.498  0.00  0.00    +0.000 A 
ATOM      6  C   UNL     1      49.506   7.646  12.193  0.00  0.00    +0.000 A 
ATOM      7  C   UNL     1      48.359   6.972  11.773  0.00  0.00    +0.000 A 
ATOM      8  C   UNL     1      47.258   6.813  12.629  0.00  0.00    +0.000 A 
ATOM      9  C   UNL     1      47.356   7.347  13.925  0.00  0.00    +0.000 A 
BRANCH   8  10
ATOM     10  C   UNL     1      46.075   6.020  12.243  0.00  0.00    +0.000 A 
ATOM     11  C   UNL     1      45.149   5.566  13.202  0.00  0.00    +0.000 A 
ATOM     12  C   UNL     1      44.071   4.752  12.844  0.00  0.00    +0.000 A 
ATOM     13  C   UNL     1      43.888   4.387  11.513  0.00  0.00    +0.000 A 
ATOM     14  C   UNL     1      44.787   4.832  10.550  0.00  0.00    +0.000 A 
ATOM     15 CL   UNL     1      44.568   4.381   8.903  0.00  0.00    +0.000 Cl
ATOM     16  C   UNL     1      45.872   5.632  10.907  0.00  0.00    +0.000 A 
ENDBRANCH   8  10
ENDBRANCH   1   4
BRANCH   1  17
ATOM     17  N   UNL     1      48.244   7.106  16.778  0.00  0.00    +0.000 N 
ATOM     18  H   UNL     1      47.594   7.357  17.515  0.00  0.00    +0.000 HD
BRANCH  17  22
ATOM     19  C   UNL     1      50.114   3.329  17.212  0.00  0.00    +0.000 A 
ATOM     20  C   UNL     1      50.875   4.490  17.336  0.00  0.00    +0.000 A 
ATOM     21  C   UNL     1      50.268   5.746  17.194  0.00  0.00    +0.000 A 
ATOM     22  C   UNL     1      48.892   5.870  16.973  0.00  0.00    +0.000 A 
ATOM     23  C   UNL     1      48.145   4.690  16.827  0.00  0.00    +0.000 A 
ATOM     24  C   UNL     1      48.748   3.431  16.947  0.00  0.00    +0.000 A 
BRANCH  19  26
ATOM     25  N   UNL     1      51.233   0.996  17.433  0.00  0.00    +0.000 NA
ATOM     26  C   UNL     1      50.730   2.040  17.336  0.00  0.00    +0.000 C 
ENDBRANCH  19  26
ENDBRANCH  17  22
ENDBRANCH   1  17
TORSDOF 5
ENDMDL
MODEL 6
REMARK VINA RESULT:    -6.077      2.792      4.601
REMARK INTER + INTRA:          -8.838
REMARK INTER:                  -8.019
REMARK INTRA:                  -0.819
REMARK UNBOUND:                -0.984
REMARK  Name = 
REMARK  5 active torsions:
REMARK  status: ('A' for Active; 'I' for Inactive)
REMARK    1  A    between atoms: C_2  and  C_3
REMARK    2  A    between atoms: C_6  and  N_7
REMARK    3  A    between atoms: N_7  and  C_8
REMARK    4  A    between atoms: C_8  and  C_9
REMARK    5  A    between atoms: C_13  and  C_14
REMARK                            x       y       z     vdW  Elec       q    Type
REMARK                         _______ _______ _______ _____ _____    ______ ____
ROOT
ATOM      1  C   UNL     1      47.816   8.495  12.815  0.00  0.00    +0.000 C 
ATOM      2  C   UNL     1      46.749   9.485  12.372  0.00  0.00    +0.000 C 
ATOM      3  C   UNL     1      48.176   9.795  12.094  0.00  0.00    +0.000 C 
ENDROOT
BRANCH   1   4
ATOM      4  C   UNL     1      48.360   8.485  14.240  0.00  0.00    +0.000 A 
ATOM      5  C   UNL     1      48.237   9.617  15.064  0.00  0.00    +0.000 A 
ATOM      6  C   UNL     1      48.460   9.540  16.436  0.00  0.00    +0.000 A 
ATOM      7  C   UNL     1      48.820   8.321  17.011  0.00  0.00    +0.000 A 
ATOM      8  C   UNL     1      49.016   7.177  16.222  0.00  0.00    +0.000 A 
ATOM      9  C   UNL     1      48.824   7.301  14.835  0.00  0.00    +0.000 A 
BRANCH   8  10
ATOM     10  C   UNL     1      49.300   5.856  16.815  0.00  0.00    +0.000 A 
ATOM     11  C   UNL     1      50.609   5.468  17.153  0.00  0.00    +0.000 A 
ATOM     12  C   UNL     1      50.886   4.189  17.645  0.00  0.00    +0.000 A 
ATOM     13  C   UNL     1      49.850   3.275  17.823  0.00  0.00    +0.000 A 
ATOM     14  C   UNL     1      48.548   3.643  17.502  0.00  0.00    +0.000 A 
ATOM     15 CL   UNL     1      47.264   2.516  17.716  0.00  0.00    +0.000 Cl
ATOM     16  C   UNL     1      48.273   4.913  16.997  0.00  0.00    +0.000 A 
ENDBRANCH   8  10
ENDBRANCH   1   4
BRANCH   1  17
ATOM     17  N   UNL     1      47.908   7.211  12.106  0.00  0.00    +0.000 N 
ATOM     18  H   UNL     1      48.581   7.130  11.352  0.00  0.00    +0.000 HD
BRANCH  17  22
ATOM     19  C   UNL     1      44.881   4.258  11.854  0.00  0.00    +0.000 A 
ATOM     20  C   UNL     1      45.685   4.321  12.991  0.00  0.00    +0.000 A 
ATOM     21  C   UNL     1      46.691   5.293  13.086  0.00  0.00    +0.000 A 
ATOM     22  C   UNL     1      46.883   6.244  12.077  0.00  0.00    +0.000 A 
ATOM     23  C   UNL     1      46.080   6.152  10.930  0.00  0.00    +0.000 A 
ATOM     24  C   UNL     1      45.086   5.170  10.818  0.00  0.00    +0.000 A 
BRANCH  19  26
ATOM     25  N   UNL     1      43.037   2.441  11.642  0.00  0.00    +0.000 NA
ATOM     26  C   UNL     1      43.862   3.254  11.739  0.00  0.00    +0.000 C 
ENDBRANCH  19  26
ENDBRANCH  17  22
ENDBRANCH   1  17
TORSDOF 5
ENDMDL
MODEL 7
REMARK VINA RESULT:    -6.039      3.837      8.245
REMARK INTER + INTRA:          -8.788
REMARK INTER:                  -7.922
REMARK INTRA:                  -0.865
REMARK UNBOUND:                -0.984
REMARK  Name = 
REMARK  5 active torsions:
REMARK  status: ('A' for Active; 'I' for Inactive)
REMARK    1  A    between atoms: C_2  and  C_3
REMARK    2  A    between atoms: C_6  and  N_7
REMARK    3  A    between atoms: N_7  and  C_8
REMARK    4  A    between atoms: C_8  and  C_9
REMARK    5  A    between atoms: C_13  and  C_14
REMARK                            x       y       z     vdW  Elec       q    Type
REMARK                         _______ _______ _______ _____ _____    ______ ____
ROOT
ATOM      1  C   UNL     1      49.335   7.816  12.702  0.00  0.00    +0.000 C 
ATOM      2  C   UNL     1      50.105   7.752  11.391  0.00  0.00    +0.000 C 
ATOM      3  C   UNL     1      49.783   9.083  11.971  0.00  0.00    +0.000 C 
ENDROOT
BRANCH   1   4
ATOM      4  C   UNL     1      47.814   7.713  12.746  0.00  0.00    +0.000 A 
ATOM      5  C   UNL     1      47.023   8.850  12.983  0.00  0.00    +0.000 A 
ATOM      6  C   UNL     1      45.651   8.839  12.745  0.00  0.00    +0.000 A 
ATOM      7  C   UNL     1      45.041   7.678  12.270  0.00  0.00    +0.000 A 
ATOM      8  C   UNL     1      45.778   6.499  12.076  0.00  0.00    +0.000 A 
ATOM      9  C   UNL     1      47.152   6.534  12.368  0.00  0.00    +0.000 A 
BRANCH   8  10
ATOM     10  C   UNL     1      45.177   5.289  11.482  0.00  0.00    +0.000 A 
ATOM     11  C   UNL     1      44.544   4.316  12.277  0.00  0.00    +0.000 A 
ATOM     12  C   UNL     1      44.042   3.135  11.721  0.00  0.00    +0.000 A 
ATOM     13  C   UNL     1      44.151   2.913  10.351  0.00  0.00    +0.000 A 
ATOM     14  C   UNL     1      44.766   3.867   9.547  0.00  0.00    +0.000 A 
ATOM     15 CL   UNL     1      44.906   3.595   7.853  0.00  0.00    +0.000 Cl
ATOM     16  C   UNL     1      45.281   5.038  10.102  0.00  0.00    +0.000 A 
ENDBRANCH   8  10
ENDBRANCH   1   4
BRANCH   1  17
ATOM     17  N   UNL     1      50.022   7.395  13.932  0.00  0.00    +0.000 N 
ATOM     18  H   UNL     1      50.785   6.733  13.849  0.00  0.00    +0.000 HD
BRANCH  17  22
ATOM     19  C   UNL     1      48.454   7.518  17.866  0.00  0.00    +0.000 A 
ATOM     20  C   UNL     1      48.774   8.710  17.217  0.00  0.00    +0.000 A 
ATOM     21  C   UNL     1      49.294   8.683  15.915  0.00  0.00    +0.000 A 
ATOM     22  C   UNL     1      49.461   7.478  15.222  0.00  0.00    +0.000 A 
ATOM     23  C   UNL     1      49.156   6.287  15.899  0.00  0.00    +0.000 A 
ATOM     24  C   UNL     1      48.655   6.305  17.207  0.00  0.00    +0.000 A 
BRANCH  19  26
ATOM     25  N   UNL     1      47.523   7.555  20.290  0.00  0.00    +0.000 NA
ATOM     26  C   UNL     1      47.940   7.536  19.205  0.00  0.00    +0.000 C 
ENDBRANCH  19  26
ENDBRANCH  17  22
ENDBRANCH   1  17
TORSDOF 5
ENDMDL
MODEL 8
REMARK VINA RESULT:    -5.963      4.387      8.292
REMARK INTER + INTRA:          -8.690
REMARK INTER:                  -7.950
REMARK INTRA:                  -0.740
REMARK UNBOUND:                -0.984
REMARK  Name = 
REMARK  5 active torsions:
REMARK  status: ('A' for Active; 'I' for Inactive)
REMARK    1  A    between atoms: C_2  and  C_3
REMARK    2  A    between atoms: C_6  and  N_7
REMARK    3  A    between atoms: N_7  and  C_8
REMARK    4  A    between atoms: C_8  and  C_9
REMARK    5  A    between atoms: C_13  and  C_14
REMARK                            x       y       z     vdW  Elec       q    Type
REMARK                         _______ _______ _______ _____ _____    ______ ____
ROOT
ATOM      1  C   UNL     1      48.461   4.456  17.335  0.00  0.00    +0.000 C 
ATOM      2  C   UNL     1      48.487   4.943  18.776  0.00  0.00    +0.000 C 
ATOM      3  C   UNL     1      47.200   4.471  18.200  0.00  0.00    +0.000 C 
ENDROOT
BRANCH   1   4
ATOM      4  C   UNL     1      48.338   5.424  16.162  0.00  0.00    +0.000 A 
ATOM      5  C   UNL     1      49.296   6.432  15.960  0.00  0.00    +0.000 A 
ATOM      6  C   UNL     1      49.366   7.132  14.758  0.00  0.00    +0.000 A 
ATOM      7  C   UNL     1      48.467   6.838  13.733  0.00  0.00    +0.000 A 
ATOM      8  C   UNL     1      47.454   5.882  13.910  0.00  0.00    +0.000 A 
ATOM      9  C   UNL     1      47.385   5.226  15.151  0.00  0.00    +0.000 A 
BRANCH   8  10
ATOM     10  C   UNL     1      46.555   5.482  12.810  0.00  0.00    +0.000 A 
ATOM     11  C   UNL     1      46.543   6.171  11.583  0.00  0.00    +0.000 A 
ATOM     12  C   UNL     1      45.638   5.838  10.570  0.00  0.00    +0.000 A 
ATOM     13  C   UNL     1      44.735   4.795  10.761  0.00  0.00    +0.000 A 
ATOM     14  C   UNL     1      44.738   4.097  11.964  0.00  0.00    +0.000 A 
ATOM     15 CL   UNL     1      43.622   2.810  12.207  0.00  0.00    +0.000 Cl
ATOM     16  C   UNL     1      45.629   4.438  12.981  0.00  0.00    +0.000 A 
ENDBRANCH   8  10
ENDBRANCH   1   4
BRANCH   1  17
ATOM     17  N   UNL     1      49.122   3.181  17.021  0.00  0.00    +0.000 N 
ATOM     18  H   UNL     1      48.538   2.376  16.824  0.00  0.00    +0.000 HD
BRANCH  17  22
ATOM     19  C   UNL     1      53.114   2.120  17.965  0.00  0.00    +0.000 A 
ATOM     20  C   UNL     1      52.734   3.461  17.999  0.00  0.00    +0.000 A 
ATOM     21  C   UNL     1      51.416   3.825  17.688  0.00  0.00    +0.000 A 
ATOM     22  C   UNL     1      50.446   2.863  17.384  0.00  0.00    +0.000 A 
ATOM     23  C   UNL     1      50.852   1.520  17.332  0.00  0.00    +0.000 A 
ATOM     24  C   UNL     1      52.172   1.150  17.622  0.00  0.00    +0.000 A 
BRANCH  19  26
ATOM     25  N   UNL     1      55.559   1.433  18.509  0.00  0.00    +0.000 NA
ATOM     26  C   UNL     1      54.465   1.741  18.263  0.00  0.00    +0.000 C 
ENDBRANCH  19  26
ENDBRANCH  17  22
ENDBRANCH   1  17
TORSDOF 5
ENDMDL
