MODEL 1
REMARK VINA RESULT:    -8.364      0.000      0.000
REMARK INTER + INTRA:         -11.001
REMARK INTER:                 -10.320
REMARK INTRA:                  -0.681
REMARK UNBOUND:                -0.681
REMARK  Name = 
REMARK  4 active torsions:
REMARK  status: ('A' for Active; 'I' for Inactive)
REMARK    1  A    between atoms: C_2  and  C_4
REMARK    2  A    between atoms: N_8  and  C_9
REMARK    3  A    between atoms: C_9  and  C_10
REMARK    4  A    between atoms: C_13  and  C_14
REMARK                            x       y       z     vdW  Elec       q    Type
REMARK                         _______ _______ _______ _____ _____    ______ ____
ROOT
ATOM      1  C   UNL     1      46.587   2.793   7.421  0.00  0.00    +0.000 A 
ATOM      2  C   UNL     1      46.346   4.135   7.702  0.00  0.00    +0.000 A 
ATOM      3  C   UNL     1      45.551   4.469   8.802  0.00  0.00    +0.000 A 
ATOM      4  C   UNL     1      45.036   3.461   9.607  0.00  0.00    +0.000 A 
ATOM      5  N   UNL     1      44.215   3.688  10.703  0.00  0.00    +0.000 N 
ATOM      6  N   UNL     1      45.259   2.156   9.336  0.00  0.00    +0.000 NA
ATOM      7  C   UNL     1      46.009   1.846   8.249  0.00  0.00    +0.000 A 
ATOM      8  H   UNL     1      44.068   2.802  11.180  0.00  0.00    +0.000 HD
ENDROOT
BRANCH   1  10
ATOM      9  N   UNL     1      47.248   3.024   5.104  0.00  0.00    +0.000 N 
ATOM     10  C   UNL     1      47.398   2.341   6.274  0.00  0.00    +0.000 C 
ATOM     11  O   UNL     1      48.196   1.415   6.376  0.00  0.00    +0.000 OA
ATOM     12  H   UNL     1      47.891   2.779   4.354  0.00  0.00    +0.000 HD
ATOM     13  H   UNL     1      46.810   3.934   5.054  0.00  0.00    +0.000 HD
ENDBRANCH   1  10
BRANCH   5  14
ATOM     14  C   UNL     1      44.046   4.940  11.445  0.00  0.00    +0.000 C 
ATOM     15  C   UNL     1      42.702   5.031  12.155  0.00  0.00    +0.000 C 
ATOM     16  C   UNL     1      43.023   5.991  11.059  0.00  0.00    +0.000 C 
BRANCH  14  17
ATOM     17  C   UNL     1      45.315   5.432  12.125  0.00  0.00    +0.000 A 
ATOM     18  C   UNL     1      46.006   6.582  11.728  0.00  0.00    +0.000 A 
ATOM     19  C   UNL     1      47.099   7.052  12.465  0.00  0.00    +0.000 A 
ATOM     20  C   UNL     1      47.503   6.365  13.609  0.00  0.00    +0.000 A 
ATOM     21  N   UNL     1      46.890   5.210  13.989  0.00  0.00    +0.000 NA
ATOM     22  C   UNL     1      45.835   4.788  13.249  0.00  0.00    +0.000 A 
BRANCH  20  23
ATOM     23  C   UNL     1      48.614   6.919  14.489  0.00  0.00    +0.000 C 
ATOM     24  F   UNL     1      48.324   8.151  15.009  0.00  0.00    +0.000 F 
ATOM     25  F   UNL     1      48.885   6.130  15.566  0.00  0.00    +0.000 F 
ATOM     26  F   UNL     1      49.798   7.076  13.828  0.00  0.00    +0.000 F 
ENDBRANCH  20  23
ENDBRANCH  14  17
ENDBRANCH   5  14
TORSDOF 4
ENDMDL
MODEL 2
REMARK VINA RESULT:    -7.893      4.277      7.169
REMARK INTER + INTRA:         -10.419
REMARK INTER:                  -9.922
REMARK INTRA:                  -0.497
REMARK UNBOUND:                -0.681
REMARK  Name = 
REMARK  4 active torsions:
REMARK  status: ('A' for Active; 'I' for Inactive)
REMARK    1  A    between atoms: C_2  and  C_4
REMARK    2  A    between atoms: N_8  and  C_9
REMARK    3  A    between atoms: C_9  and  C_10
REMARK    4  A    between atoms: C_13  and  C_14
REMARK                            x       y       z     vdW  Elec       q    Type
REMARK                         _______ _______ _______ _____ _____    ______ ____
ROOT
ATOM      1  C   UNL     1      47.913   6.335  14.391  0.00  0.00    +0.000 A 
ATOM      2  C   UNL     1      47.189   5.146  14.411  0.00  0.00    +0.000 A 
ATOM      3  C   UNL     1      46.171   4.951  13.474  0.00  0.00    +0.000 A 
ATOM      4  C   UNL     1      45.914   5.935  12.527  0.00  0.00    +0.000 A 
ATOM      5  N   UNL     1      44.907   5.848  11.574  0.00  0.00    +0.000 N 
ATOM      6  N   UNL     1      46.606   7.095  12.506  0.00  0.00    +0.000 NA
ATOM      7  C   UNL     1      47.573   7.281  13.439  0.00  0.00    +0.000 A 
ATOM      8  H   UNL     1      45.000   6.638  10.941  0.00  0.00    +0.000 HD
ENDROOT
BRANCH   1  10
ATOM      9  N   UNL     1      48.680   6.580  16.674  0.00  0.00    +0.000 N 
ATOM     10  C   UNL     1      48.993   6.640  15.347  0.00  0.00    +0.000 C 
ATOM     11  O   UNL     1      50.131   6.902  14.971  0.00  0.00    +0.000 OA
ATOM     12  H   UNL     1      49.456   6.680  17.324  0.00  0.00    +0.000 HD
ATOM     13  H   UNL     1      47.847   6.123  17.018  0.00  0.00    +0.000 HD
ENDBRANCH   1  10
BRANCH   5  14
ATOM     14  C   UNL     1      44.212   4.642  11.121  0.00  0.00    +0.000 C 
ATOM     15  C   UNL     1      42.697   4.750  11.241  0.00  0.00    +0.000 C 
ATOM     16  C   UNL     1      43.432   3.741  12.061  0.00  0.00    +0.000 C 
BRANCH  14  17
ATOM     17  C   UNL     1      44.845   3.982   9.905  0.00  0.00    +0.000 A 
ATOM     18  C   UNL     1      45.458   4.698   8.871  0.00  0.00    +0.000 A 
ATOM     19  C   UNL     1      46.127   4.033   7.837  0.00  0.00    +0.000 A 
ATOM     20  C   UNL     1      46.183   2.640   7.839  0.00  0.00    +0.000 A 
ATOM     21  N   UNL     1      45.547   1.911   8.798  0.00  0.00    +0.000 NA
ATOM     22  C   UNL     1      44.910   2.593   9.782  0.00  0.00    +0.000 A 
BRANCH  20  23
ATOM     23  C   UNL     1      47.001   1.900   6.790  0.00  0.00    +0.000 C 
ATOM     24  F   UNL     1      46.806   0.546   6.813  0.00  0.00    +0.000 F 
ATOM     25  F   UNL     1      46.706   2.283   5.517  0.00  0.00    +0.000 F 
ATOM     26  F   UNL     1      48.347   2.072   6.935  0.00  0.00    +0.000 F 
ENDBRANCH  20  23
ENDBRANCH  14  17
ENDBRANCH   5  14
TORSDOF 4
ENDMDL
MODEL 3
REMARK VINA RESULT:    -6.247      1.683      2.142
REMARK INTER + INTRA:          -8.388
REMARK INTER:                  -8.491
REMARK INTRA:                   0.103
REMARK UNBOUND:                -0.681
REMARK  Name = 
REMARK  4 active torsions:
REMARK  status: ('A' for Active; 'I' for Inactive)
REMARK    1  A    between atoms: C_2  and  C_4
REMARK    2  A    between atoms: N_8  and  C_9
REMARK    3  A    between atoms: C_9  and  C_10
REMARK    4  A    between atoms: C_13  and  C_14
REMARK                            x       y       z     vdW  Elec       q    Type
REMARK                         _______ _______ _______ _____ _____    ______ ____
ROOT
ATOM      1  C   UNL     1      46.633   2.418   7.382  0.00  0.00    +0.000 A 
ATOM      2  C   UNL     1      46.340   2.131   8.713  0.00  0.00    +0.000 A 
ATOM      3  C   UNL     1      45.826   3.141   9.531  0.00  0.00    +0.000 A 
ATOM      4  C   UNL     1      45.594   4.403   8.999  0.00  0.00    +0.000 A 
ATOM      5  N   UNL     1      45.113   5.477   9.735  0.00  0.00    +0.000 N 
ATOM      6  N   UNL     1      45.883   4.691   7.711  0.00  0.00    +0.000 NA
ATOM      7  C   UNL     1      46.408   3.709   6.937  0.00  0.00    +0.000 A 
ATOM      8  H   UNL     1      44.930   6.245   9.095  0.00  0.00    +0.000 HD
ENDROOT
BRANCH   1  10
ATOM      9  N   UNL     1      48.111   1.878   5.543  0.00  0.00    +0.000 N 
ATOM     10  C   UNL     1      47.194   1.426   6.446  0.00  0.00    +0.000 C 
ATOM     11  O   UNL     1      46.877   0.242   6.497  0.00  0.00    +0.000 OA
ATOM     12  H   UNL     1      48.574   1.169   4.979  0.00  0.00    +0.000 HD
ATOM     13  H   UNL     1      48.581   2.768   5.641  0.00  0.00    +0.000 HD
ENDBRANCH   1  10
BRANCH   5  14
ATOM     14  C   UNL     1      44.415   5.433  11.022  0.00  0.00    +0.000 C 
ATOM     15  C   UNL     1      43.041   4.781  10.929  0.00  0.00    +0.000 C 
ATOM     16  C   UNL     1      43.149   6.224  11.297  0.00  0.00    +0.000 C 
BRANCH  14  17
ATOM     17  C   UNL     1      45.323   5.155  12.210  0.00  0.00    +0.000 A 
ATOM     18  C   UNL     1      46.182   6.110  12.764  0.00  0.00    +0.000 A 
ATOM     19  C   UNL     1      46.905   5.834  13.930  0.00  0.00    +0.000 A 
ATOM     20  C   UNL     1      46.768   4.590  14.545  0.00  0.00    +0.000 A 
ATOM     21  N   UNL     1      45.987   3.618  13.999  0.00  0.00    +0.000 NA
ATOM     22  C   UNL     1      45.302   3.925  12.870  0.00  0.00    +0.000 A 
BRANCH  20  23
ATOM     23  C   UNL     1      47.455   4.308  15.873  0.00  0.00    +0.000 C 
ATOM     24  F   UNL     1      48.457   5.194  16.160  0.00  0.00    +0.000 F 
ATOM     25  F   UNL     1      46.606   4.370  16.937  0.00  0.00    +0.000 F 
ATOM     26  F   UNL     1      48.039   3.075  15.927  0.00  0.00    +0.000 F 
ENDBRANCH  20  23
ENDBRANCH  14  17
ENDBRANCH   5  14
TORSDOF 4
ENDMDL
MODEL 4
REMARK VINA RESULT:    -5.777      5.442      8.396
REMARK INTER + INTRA:          -7.809
REMARK INTER:                  -7.311
REMARK INTRA:                  -0.498
REMARK UNBOUND:                -0.681
REMARK  Name = 
REMARK  4 active torsions:
REMARK  status: ('A' for Active; 'I' for Inactive)
REMARK    1  A    between atoms: C_2  and  C_4
REMARK    2  A    between atoms: N_8  and  C_9
REMARK    3  A    between atoms: C_9  and  C_10
REMARK    4  A    between atoms: C_13  and  C_14
REMARK                            x       y       z     vdW  Elec       q    Type
REMARK                         _______ _______ _______ _____ _____    ______ ____
ROOT
ATOM      1  C   UNL     1      52.422   1.779  17.606  0.00  0.00    +0.000 A 
ATOM      2  C   UNL     1      51.107   1.380  17.383  0.00  0.00    +0.000 A 
ATOM      3  C   UNL     1      50.095   2.344  17.371  0.00  0.00    +0.000 A 
ATOM      4  C   UNL     1      50.420   3.681  17.560  0.00  0.00    +0.000 A 
ATOM      5  N   UNL     1      49.485   4.708  17.594  0.00  0.00    +0.000 N 
ATOM      6  N   UNL     1      51.693   4.075  17.785  0.00  0.00    +0.000 NA
ATOM      7  C   UNL     1      52.660   3.125  17.821  0.00  0.00    +0.000 A 
ATOM      8  H   UNL     1      49.985   5.592  17.634  0.00  0.00    +0.000 HD
ENDROOT
BRANCH   1  10
ATOM      9  N   UNL     1      53.326  -0.377  18.232  0.00  0.00    +0.000 N 
ATOM     10  C   UNL     1      53.555   0.836  17.652  0.00  0.00    +0.000 C 
ATOM     11  O   UNL     1      54.645   1.115  17.162  0.00  0.00    +0.000 OA
ATOM     12  H   UNL     1      54.078  -1.060  18.159  0.00  0.00    +0.000 HD
ATOM     13  H   UNL     1      52.397  -0.733  18.404  0.00  0.00    +0.000 HD
ENDBRANCH   1  10
BRANCH   5  14
ATOM     14  C   UNL     1      48.114   4.681  17.081  0.00  0.00    +0.000 C 
ATOM     15  C   UNL     1      47.078   5.047  18.137  0.00  0.00    +0.000 C 
ATOM     16  C   UNL     1      47.081   3.674  17.552  0.00  0.00    +0.000 C 
BRANCH  14  17
ATOM     17  C   UNL     1      47.976   5.191  15.654  0.00  0.00    +0.000 A 
ATOM     18  C   UNL     1      47.167   4.578  14.691  0.00  0.00    +0.000 A 
ATOM     19  C   UNL     1      46.987   5.159  13.431  0.00  0.00    +0.000 A 
ATOM     20  C   UNL     1      47.622   6.364  13.133  0.00  0.00    +0.000 A 
ATOM     21  N   UNL     1      48.463   6.956  14.026  0.00  0.00    +0.000 NA
ATOM     22  C   UNL     1      48.610   6.361  15.235  0.00  0.00    +0.000 A 
BRANCH  20  23
ATOM     23  C   UNL     1      47.351   7.072  11.814  0.00  0.00    +0.000 C 
ATOM     24  F   UNL     1      46.693   6.287  10.907  0.00  0.00    +0.000 F 
ATOM     25  F   UNL     1      46.575   8.183  11.954  0.00  0.00    +0.000 F 
ATOM     26  F   UNL     1      48.487   7.483  11.178  0.00  0.00    +0.000 F 
ENDBRANCH  20  23
ENDBRANCH  14  17
ENDBRANCH   5  14
TORSDOF 4
ENDMDL
MODEL 5
REMARK VINA RESULT:    -5.571      5.409      8.498
REMARK INTER + INTRA:          -7.554
REMARK INTER:                  -6.900
REMARK INTRA:                  -0.654
REMARK UNBOUND:                -0.681
REMARK  Name = 
REMARK  4 active torsions:
REMARK  status: ('A' for Active; 'I' for Inactive)
REMARK    1  A    between atoms: C_2  and  C_4
REMARK    2  A    between atoms: N_8  and  C_9
REMARK    3  A    between atoms: C_9  and  C_10
REMARK    4  A    between atoms: C_13  and  C_14
REMARK                            x       y       z     vdW  Elec       q    Type
REMARK                         _______ _______ _______ _____ _____    ______ ____
ROOT
ATOM      1  C   UNL     1      49.497   7.411  17.957  0.00  0.00    +0.000 A 
ATOM      2  C   UNL     1      48.684   8.256  17.207  0.00  0.00    +0.000 A 
ATOM      3  C   UNL     1      48.670   8.131  15.815  0.00  0.00    +0.000 A 
ATOM      4  C   UNL     1      49.448   7.154  15.207  0.00  0.00    +0.000 A 
ATOM      5  N   UNL     1      49.524   6.969  13.832  0.00  0.00    +0.000 N 
ATOM      6  N   UNL     1      50.246   6.336  15.927  0.00  0.00    +0.000 NA
ATOM      7  C   UNL     1      50.270   6.488  17.275  0.00  0.00    +0.000 A 
ATOM      8  H   UNL     1      50.070   6.130  13.655  0.00  0.00    +0.000 HD
ENDROOT
BRANCH   1  10
ATOM      9  N   UNL     1      48.438   7.720  20.111  0.00  0.00    +0.000 N 
ATOM     10  C   UNL     1      49.593   7.477  19.427  0.00  0.00    +0.000 C 
ATOM     11  O   UNL     1      50.654   7.288  20.012  0.00  0.00    +0.000 OA
ATOM     12  H   UNL     1      48.493   7.650  21.125  0.00  0.00    +0.000 HD
ATOM     13  H   UNL     1      47.524   7.620  19.692  0.00  0.00    +0.000 HD
ENDBRANCH   1  10
BRANCH   5  14
ATOM     14  C   UNL     1      48.582   7.442  12.817  0.00  0.00    +0.000 C 
ATOM     15  C   UNL     1      49.251   7.743  11.482  0.00  0.00    +0.000 C 
ATOM     16  C   UNL     1      48.619   8.852  12.256  0.00  0.00    +0.000 C 
BRANCH  14  17
ATOM     17  C   UNL     1      47.224   6.757  12.864  0.00  0.00    +0.000 A 
ATOM     18  C   UNL     1      46.034   7.376  12.469  0.00  0.00    +0.000 A 
ATOM     19  C   UNL     1      44.834   6.658  12.421  0.00  0.00    +0.000 A 
ATOM     20  C   UNL     1      44.826   5.309  12.772  0.00  0.00    +0.000 A 
ATOM     21  N   UNL     1      45.955   4.691  13.218  0.00  0.00    +0.000 NA
ATOM     22  C   UNL     1      47.097   5.421  13.249  0.00  0.00    +0.000 A 
BRANCH  20  23
ATOM     23  C   UNL     1      43.559   4.480  12.619  0.00  0.00    +0.000 C 
ATOM     24  F   UNL     1      43.769   3.140  12.793  0.00  0.00    +0.000 F 
ATOM     25  F   UNL     1      42.593   4.812  13.521  0.00  0.00    +0.000 F 
ATOM     26  F   UNL     1      42.982   4.598  11.387  0.00  0.00    +0.000 F 
ENDBRANCH  20  23
ENDBRANCH  14  17
ENDBRANCH   5  14
TORSDOF 4
ENDMDL
MODEL 6
REMARK VINA RESULT:    -5.378      4.967      7.447
REMARK INTER + INTRA:          -7.317
REMARK INTER:                  -7.739
REMARK INTRA:                   0.422
REMARK UNBOUND:                -0.681
REMARK  Name = 
REMARK  4 active torsions:
REMARK  status: ('A' for Active; 'I' for Inactive)
REMARK    1  A    between atoms: C_2  and  C_4
REMARK    2  A    between atoms: N_8  and  C_9
REMARK    3  A    between atoms: C_9  and  C_10
REMARK    4  A    between atoms: C_13  and  C_14
REMARK                            x       y       z     vdW  Elec       q    Type
REMARK                         _______ _______ _______ _____ _____    ______ ____
ROOT
ATOM      1  C   UNL     1      48.162   4.451  16.571  0.00  0.00    +0.000 A 
ATOM      2  C   UNL     1      47.441   4.453  15.380  0.00  0.00    +0.000 A 
ATOM      3  C   UNL     1      47.572   5.536  14.506  0.00  0.00    +0.000 A 
ATOM      4  C   UNL     1      48.433   6.577  14.828  0.00  0.00    +0.000 A 
ATOM      5  N   UNL     1      48.610   7.708  14.041  0.00  0.00    +0.000 N 
ATOM      6  N   UNL     1      49.130   6.586  15.985  0.00  0.00    +0.000 NA
ATOM      7  C   UNL     1      48.972   5.542  16.836  0.00  0.00    +0.000 A 
ATOM      8  H   UNL     1      49.366   8.257  14.440  0.00  0.00    +0.000 HD
ENDROOT
BRANCH   1  10
ATOM      9  N   UNL     1      46.864   2.766  17.725  0.00  0.00    +0.000 N 
ATOM     10  C   UNL     1      48.079   3.364  17.564  0.00  0.00    +0.000 C 
ATOM     11  O   UNL     1      49.064   2.990  18.192  0.00  0.00    +0.000 OA
ATOM     12  H   UNL     1      46.843   1.945  18.327  0.00  0.00    +0.000 HD
ATOM     13  H   UNL     1      46.114   2.864  17.055  0.00  0.00    +0.000 HD
ENDBRANCH   1  10
BRANCH   5  14
ATOM     14  C   UNL     1      48.276   7.867  12.624  0.00  0.00    +0.000 C 
ATOM     15  C   UNL     1      49.477   7.677  11.706  0.00  0.00    +0.000 C 
ATOM     16  C   UNL     1      48.808   9.009  11.778  0.00  0.00    +0.000 C 
BRANCH  14  17
ATOM     17  C   UNL     1      46.915   7.304  12.242  0.00  0.00    +0.000 A 
ATOM     18  C   UNL     1      46.737   6.301  11.284  0.00  0.00    +0.000 A 
ATOM     19  C   UNL     1      45.476   5.739  11.058  0.00  0.00    +0.000 A 
ATOM     20  C   UNL     1      44.382   6.187  11.799  0.00  0.00    +0.000 A 
ATOM     21  N   UNL     1      44.509   7.203  12.697  0.00  0.00    +0.000 NA
ATOM     22  C   UNL     1      45.748   7.720  12.886  0.00  0.00    +0.000 A 
BRANCH  20  23
ATOM     23  C   UNL     1      43.025   5.514  11.653  0.00  0.00    +0.000 C 
ATOM     24  F   UNL     1      42.939   4.710  10.550  0.00  0.00    +0.000 F 
ATOM     25  F   UNL     1      42.713   4.710  12.708  0.00  0.00    +0.000 F 
ATOM     26  F   UNL     1      41.993   6.400  11.535  0.00  0.00    +0.000 F 
ENDBRANCH  20  23
ENDBRANCH  14  17
ENDBRANCH   5  14
TORSDOF 4
ENDMDL
