MODEL 1
REMARK VINA RESULT:    -7.031      0.000      0.000
REMARK INTER + INTRA:         -12.284
REMARK INTER:                 -10.936
REMARK INTRA:                  -1.348
REMARK UNBOUND:                -1.348
REMARK  Name = 
REMARK  10 active torsions:
REMARK  status: ('A' for Active; 'I' for Inactive)
REMARK    1  A    between atoms: N_1  and  C_2
REMARK    2  A    between atoms: C_2  and  C_3
REMARK    3  A    between atoms: C_3  and  N_4
REMARK    4  A    between atoms: N_4  and  C_5
REMARK    5  A    between atoms: C_5  and  C_6
REMARK    6  A    between atoms: C_9  and  C_10
REMARK    7  A    between atoms: C_10  and  C_11
REMARK    8  A    between atoms: C_14  and  C_15
REMARK    9  A    between atoms: C_15  and  N_16
REMARK   10  A    between atoms: C_17  and  C_19
REMARK                            x       y       z     vdW  Elec       q    Type
REMARK                         _______ _______ _______ _____ _____    ______ ____
ROOT
ATOM      1  C   UNL     1      45.750   6.731  12.774  0.00  0.00    +0.000 A 
ATOM      2  C   UNL     1      46.777   5.871  13.159  0.00  0.00    +0.000 A 
ATOM      3  C   UNL     1      47.901   6.404  13.790  0.00  0.00    +0.000 A 
ATOM      4  C   UNL     1      47.969   7.775  14.048  0.00  0.00    +0.000 A 
ATOM      5  C   UNL     1      46.910   8.557  13.597  0.00  0.00    +0.000 A 
ATOM      6  N   UNL     1      45.815   8.073  12.973  0.00  0.00    +0.000 NA
ENDROOT
BRANCH   1   7
ATOM      7  C   UNL     1      44.483   6.186  12.151  0.00  0.00    +0.000 C 
BRANCH   7  11
ATOM      8  C   UNL     1      45.170   3.380   8.907  0.00  0.00    +0.000 A 
ATOM      9  C   UNL     1      44.397   3.017  10.021  0.00  0.00    +0.000 A 
ATOM     10  C   UNL     1      44.171   3.926  11.056  0.00  0.00    +0.000 A 
ATOM     11  C   UNL     1      44.734   5.209  11.022  0.00  0.00    +0.000 A 
ATOM     12  C   UNL     1      45.510   5.571   9.914  0.00  0.00    +0.000 A 
ATOM     13  C   UNL     1      45.722   4.666   8.867  0.00  0.00    +0.000 A 
BRANCH   8  14
ATOM     14  C   UNL     1      45.422   2.394   7.788  0.00  0.00    +0.000 C 
BRANCH  14  15
ATOM     15  N   UNL     1      46.123   1.204   8.271  0.00  0.00    +0.000 NA
ATOM     16  H   UNL     1      46.511   1.416   9.190  0.00  0.00    +0.000 HD
BRANCH  15  17
ATOM     17  C   UNL     1      47.247   0.856   7.392  0.00  0.00    +0.000 C 
BRANCH  17  18
ATOM     18  C   UNL     1      47.915   2.129   6.832  0.00  0.00    +0.000 C 
BRANCH  18  19
ATOM     19  N   UNL     1      48.484   1.916   5.494  0.00  0.00    +0.000 NA
ATOM     20  H   UNL     1      49.113   1.114   5.534  0.00  0.00    +0.000 HD
ATOM     21  H   UNL     1      49.082   2.712   5.275  0.00  0.00    +0.000 HD
ENDBRANCH  18  19
ENDBRANCH  17  18
ENDBRANCH  15  17
ENDBRANCH  14  15
ENDBRANCH   8  14
ENDBRANCH   7  11
ENDBRANCH   1   7
BRANCH   4  22
ATOM     22  C   UNL     1      49.144   8.399  14.737  0.00  0.00    +0.000 C 
BRANCH  22  23
ATOM     23  N   UNL     1      49.292   7.893  16.077  0.00  0.00    +0.000 N 
ATOM     24  C   UNL     1      48.630   8.468  17.131  0.00  0.00    +0.000 C 
ATOM     25  O   UNL     1      47.839   9.394  16.975  0.00  0.00    +0.000 OA
ATOM     26  H   UNL     1      50.094   7.297  16.262  0.00  0.00    +0.000 HD
BRANCH  24  27
ATOM     27  C   UNL     1      48.868   7.876  18.453  0.00  0.00    +0.000 A 
ATOM     28  C   UNL     1      49.350   8.670  19.485  0.00  0.00    +0.000 A 
ATOM     29  S   UNL     1      49.520   7.842  20.966  0.00  0.00    +0.000 S 
ATOM     30  C   UNL     1      49.007   6.378  20.267  0.00  0.00    +0.000 A 
ATOM     31  N   UNL     1      48.944   5.236  21.004  0.00  0.00    +0.000 NA
ATOM     32  C   UNL     1      48.571   4.192  20.341  0.00  0.00    +0.000 A 
ATOM     33  N   UNL     1      48.245   4.189  19.009  0.00  0.00    +0.000 N 
ATOM     34  C   UNL     1      48.263   5.324  18.234  0.00  0.00    +0.000 A 
ATOM     35  O   UNL     1      47.922   5.299  17.056  0.00  0.00    +0.000 OA
ATOM     36  C   UNL     1      48.691   6.524  18.928  0.00  0.00    +0.000 A 
ATOM     37  H   UNL     1      47.951   3.339  18.551  0.00  0.00    +0.000 HD
ENDBRANCH  24  27
ENDBRANCH  22  23
ENDBRANCH   4  22
TORSDOF 10
ENDMDL
MODEL 2
REMARK VINA RESULT:    -6.782      5.421      7.782
REMARK INTER + INTRA:         -11.897
REMARK INTER:                 -10.819
REMARK INTRA:                  -1.078
REMARK UNBOUND:                -1.348
REMARK  Name = 
REMARK  10 active torsions:
REMARK  status: ('A' for Active; 'I' for Inactive)
REMARK    1  A    between atoms: N_1  and  C_2
REMARK    2  A    between atoms: C_2  and  C_3
REMARK    3  A    between atoms: C_3  and  N_4
REMARK    4  A    between atoms: N_4  and  C_5
REMARK    5  A    between atoms: C_5  and  C_6
REMARK    6  A    between atoms: C_9  and  C_10
REMARK    7  A    between atoms: C_10  and  C_11
REMARK    8  A    between atoms: C_14  and  C_15
REMARK    9  A    between atoms: C_15  and  N_16
REMARK   10  A    between atoms: C_17  and  C_19
REMARK                            x       y       z     vdW  Elec       q    Type
REMARK                         _______ _______ _______ _____ _____    ______ ____
ROOT
ATOM      1  C   UNL     1      47.239   7.147  12.622  0.00  0.00    +0.000 A 
ATOM      2  C   UNL     1      47.311   8.448  12.126  0.00  0.00    +0.000 A 
ATOM      3  C   UNL     1      48.564   8.997  11.853  0.00  0.00    +0.000 A 
ATOM      4  C   UNL     1      49.716   8.233  12.055  0.00  0.00    +0.000 A 
ATOM      5  C   UNL     1      49.545   6.958  12.584  0.00  0.00    +0.000 A 
ATOM      6  N   UNL     1      48.348   6.403  12.869  0.00  0.00    +0.000 NA
ENDROOT
BRANCH   1   7
ATOM      7  C   UNL     1      45.899   6.488  12.864  0.00  0.00    +0.000 C 
BRANCH   7  11
ATOM      8  C   UNL     1      44.913   3.376   9.997  0.00  0.00    +0.000 A 
ATOM      9  C   UNL     1      44.945   3.103  11.373  0.00  0.00    +0.000 A 
ATOM     10  C   UNL     1      45.253   4.109  12.291  0.00  0.00    +0.000 A 
ATOM     11  C   UNL     1      45.565   5.405  11.859  0.00  0.00    +0.000 A 
ATOM     12  C   UNL     1      45.537   5.679  10.486  0.00  0.00    +0.000 A 
ATOM     13  C   UNL     1      45.211   4.674   9.567  0.00  0.00    +0.000 A 
BRANCH   8  14
ATOM     14  C   UNL     1      44.586   2.286   9.001  0.00  0.00    +0.000 C 
BRANCH  14  15
ATOM     15  N   UNL     1      45.786   1.552   8.598  0.00  0.00    +0.000 NA
ATOM     16  H   UNL     1      46.386   1.451   9.416  0.00  0.00    +0.000 HD
BRANCH  15  17
ATOM     17  C   UNL     1      46.549   2.295   7.586  0.00  0.00    +0.000 C 
BRANCH  17  18
ATOM     18  C   UNL     1      47.745   1.461   7.084  0.00  0.00    +0.000 C 
BRANCH  18  19
ATOM     19  N   UNL     1      48.238   1.925   5.780  0.00  0.00    +0.000 NA
ATOM     20  H   UNL     1      48.815   1.190   5.373  0.00  0.00    +0.000 HD
ATOM     21  H   UNL     1      48.875   2.704   5.942  0.00  0.00    +0.000 HD
ENDBRANCH  18  19
ENDBRANCH  17  18
ENDBRANCH  15  17
ENDBRANCH  14  15
ENDBRANCH   8  14
ENDBRANCH   7  11
ENDBRANCH   1   7
BRANCH   4  22
ATOM     22  C   UNL     1      51.085   8.766  11.764  0.00  0.00    +0.000 C 
BRANCH  22  23
ATOM     23  N   UNL     1      51.529   8.375  10.450  0.00  0.00    +0.000 N 
ATOM     24  C   UNL     1      52.667   8.902   9.898  0.00  0.00    +0.000 C 
ATOM     25  O   UNL     1      53.390   9.678  10.516  0.00  0.00    +0.000 OA
ATOM     26  H   UNL     1      50.847   7.927   9.845  0.00  0.00    +0.000 HD
BRANCH  24  27
ATOM     27  C   UNL     1      53.014   8.439   8.549  0.00  0.00    +0.000 A 
ATOM     28  C   UNL     1      53.021   9.342   7.493  0.00  0.00    +0.000 A 
ATOM     29  S   UNL     1      53.495   8.654   6.007  0.00  0.00    +0.000 S 
ATOM     30  C   UNL     1      53.657   7.114   6.710  0.00  0.00    +0.000 A 
ATOM     31  N   UNL     1      54.024   6.039   5.961  0.00  0.00    +0.000 NA
ATOM     32  C   UNL     1      54.075   4.925   6.613  0.00  0.00    +0.000 A 
ATOM     33  N   UNL     1      53.801   4.791   7.950  0.00  0.00    +0.000 N 
ATOM     34  C   UNL     1      53.459   5.853   8.752  0.00  0.00    +0.000 A 
ATOM     35  O   UNL     1      53.265   5.710   9.955  0.00  0.00    +0.000 OA
ATOM     36  C   UNL     1      53.371   7.127   8.064  0.00  0.00    +0.000 A 
ATOM     37  H   UNL     1      53.870   3.892   8.404  0.00  0.00    +0.000 HD
ENDBRANCH  24  27
ENDBRANCH  22  23
ENDBRANCH   4  22
TORSDOF 10
ENDMDL
MODEL 3
REMARK VINA RESULT:    -6.671      4.896      9.333
REMARK INTER + INTRA:         -11.724
REMARK INTER:                 -10.697
REMARK INTRA:                  -1.028
REMARK UNBOUND:                -1.348
REMARK  Name = 
REMARK  10 active torsions:
REMARK  status: ('A' for Active; 'I' for Inactive)
REMARK    1  A    between atoms: N_1  and  C_2
REMARK    2  A    between atoms: C_2  and  C_3
REMARK    3  A    between atoms: C_3  and  N_4
REMARK    4  A    between atoms: N_4  and  C_5
REMARK    5  A    between atoms: C_5  and  C_6
REMARK    6  A    between atoms: C_9  and  C_10
REMARK    7  A    between atoms: C_10  and  C_11
REMARK    8  A    between atoms: C_14  and  C_15
REMARK    9  A    between atoms: C_15  and  N_16
REMARK   10  A    between atoms: C_17  and  C_19
REMARK                            x       y       z     vdW  Elec       q    Type
REMARK                         _______ _______ _______ _____ _____    ______ ____
ROOT
ATOM      1  C   UNL     1      49.274   5.538  16.692  0.00  0.00    +0.000 A 
ATOM      2  C   UNL     1      49.970   6.659  16.244  0.00  0.00    +0.000 A 
ATOM      3  C   UNL     1      49.598   7.243  15.033  0.00  0.00    +0.000 A 
ATOM      4  C   UNL     1      48.529   6.716  14.307  0.00  0.00    +0.000 A 
ATOM      5  C   UNL     1      47.918   5.575  14.818  0.00  0.00    +0.000 A 
ATOM      6  N   UNL     1      48.261   4.981  15.980  0.00  0.00    +0.000 NA
ENDROOT
BRANCH   1   7
ATOM      7  C   UNL     1      49.598   4.917  18.034  0.00  0.00    +0.000 C 
BRANCH   7  11
ATOM      8  C   UNL     1      52.522   1.710  17.839  0.00  0.00    +0.000 A 
ATOM      9  C   UNL     1      52.872   2.974  18.337  0.00  0.00    +0.000 A 
ATOM     10  C   UNL     1      51.926   3.999  18.406  0.00  0.00    +0.000 A 
ATOM     11  C   UNL     1      50.615   3.798  17.955  0.00  0.00    +0.000 A 
ATOM     12  C   UNL     1      50.264   2.539  17.453  0.00  0.00    +0.000 A 
ATOM     13  C   UNL     1      51.208   1.506  17.400  0.00  0.00    +0.000 A 
BRANCH   8  14
ATOM     14  C   UNL     1      53.547   0.601  17.756  0.00  0.00    +0.000 C 
BRANCH  14  15
ATOM     15  N   UNL     1      53.088  -0.605  18.445  0.00  0.00    +0.000 NA
ATOM     16  H   UNL     1      52.699  -0.327  19.345  0.00  0.00    +0.000 HD
BRANCH  15  17
ATOM     17  C   UNL     1      54.204  -1.521  18.714  0.00  0.00    +0.000 C 
BRANCH  17  18
ATOM     18  C   UNL     1      55.079  -1.699  17.457  0.00  0.00    +0.000 C 
BRANCH  18  19
ATOM     19  N   UNL     1      54.542  -2.718  16.545  0.00  0.00    +0.000 NA
ATOM     20  H   UNL     1      55.254  -3.435  16.406  0.00  0.00    +0.000 HD
ATOM     21  H   UNL     1      54.417  -2.287  15.629  0.00  0.00    +0.000 HD
ENDBRANCH  18  19
ENDBRANCH  17  18
ENDBRANCH  15  17
ENDBRANCH  14  15
ENDBRANCH   8  14
ENDBRANCH   7  11
ENDBRANCH   1   7
BRANCH   4  22
ATOM     22  C   UNL     1      48.076   7.312  13.009  0.00  0.00    +0.000 C 
BRANCH  22  23
ATOM     23  N   UNL     1      47.417   6.331  12.186  0.00  0.00    +0.000 N 
ATOM     24  C   UNL     1      46.151   6.542  11.704  0.00  0.00    +0.000 C 
ATOM     25  O   UNL     1      45.550   7.595  11.896  0.00  0.00    +0.000 OA
ATOM     26  H   UNL     1      47.787   5.385  12.206  0.00  0.00    +0.000 HD
BRANCH  24  27
ATOM     27  C   UNL     1      45.576   5.466  10.887  0.00  0.00    +0.000 A 
ATOM     28  C   UNL     1      45.698   5.513   9.504  0.00  0.00    +0.000 A 
ATOM     29  S   UNL     1      45.022   4.163   8.712  0.00  0.00    +0.000 S 
ATOM     30  C   UNL     1      44.494   3.495  10.184  0.00  0.00    +0.000 A 
ATOM     31  N   UNL     1      43.806   2.321  10.212  0.00  0.00    +0.000 NA
ATOM     32  C   UNL     1      43.437   1.946  11.392  0.00  0.00    +0.000 A 
ATOM     33  N   UNL     1      43.702   2.634  12.547  0.00  0.00    +0.000 N 
ATOM     34  C   UNL     1      44.420   3.806  12.570  0.00  0.00    +0.000 A 
ATOM     35  O   UNL     1      44.680   4.376  13.625  0.00  0.00    +0.000 OA
ATOM     36  C   UNL     1      44.846   4.281  11.267  0.00  0.00    +0.000 A 
ATOM     37  H   UNL     1      43.393   2.281  13.441  0.00  0.00    +0.000 HD
ENDBRANCH  24  27
ENDBRANCH  22  23
ENDBRANCH   4  22
TORSDOF 10
ENDMDL
MODEL 4
REMARK VINA RESULT:    -6.498      3.126      4.380
REMARK INTER + INTRA:         -11.455
REMARK INTER:                 -10.231
REMARK INTRA:                  -1.224
REMARK UNBOUND:                -1.348
REMARK  Name = 
REMARK  10 active torsions:
REMARK  status: ('A' for Active; 'I' for Inactive)
REMARK    1  A    between atoms: N_1  and  C_2
REMARK    2  A    between atoms: C_2  and  C_3
REMARK    3  A    between atoms: C_3  and  N_4
REMARK    4  A    between atoms: N_4  and  C_5
REMARK    5  A    between atoms: C_5  and  C_6
REMARK    6  A    between atoms: C_9  and  C_10
REMARK    7  A    between atoms: C_10  and  C_11
REMARK    8  A    between atoms: C_14  and  C_15
REMARK    9  A    between atoms: C_15  and  N_16
REMARK   10  A    between atoms: C_17  and  C_19
REMARK                            x       y       z     vdW  Elec       q    Type
REMARK                         _______ _______ _______ _____ _____    ______ ____
ROOT
ATOM      1  C   UNL     1      48.572   7.844  13.857  0.00  0.00    +0.000 A 
ATOM      2  C   UNL     1      48.050   8.655  14.864  0.00  0.00    +0.000 A 
ATOM      3  C   UNL     1      48.750   8.772  16.065  0.00  0.00    +0.000 A 
ATOM      4  C   UNL     1      49.964   8.101  16.230  0.00  0.00    +0.000 A 
ATOM      5  C   UNL     1      50.386   7.289  15.181  0.00  0.00    +0.000 A 
ATOM      6  N   UNL     1      49.726   7.147  14.012  0.00  0.00    +0.000 NA
ENDROOT
BRANCH   1   7
ATOM      7  C   UNL     1      47.882   7.746  12.513  0.00  0.00    +0.000 C 
BRANCH   7  11
ATOM      8  C   UNL     1      44.327   5.250  12.591  0.00  0.00    +0.000 A 
ATOM      9  C   UNL     1      45.475   4.890  13.314  0.00  0.00    +0.000 A 
ATOM     10  C   UNL     1      46.612   5.701  13.294  0.00  0.00    +0.000 A 
ATOM     11  C   UNL     1      46.643   6.875  12.530  0.00  0.00    +0.000 A 
ATOM     12  C   UNL     1      45.501   7.233  11.804  0.00  0.00    +0.000 A 
ATOM     13  C   UNL     1      44.355   6.430  11.839  0.00  0.00    +0.000 A 
BRANCH   8  14
ATOM     14  C   UNL     1      43.098   4.369  12.607  0.00  0.00    +0.000 C 
BRANCH  14  15
ATOM     15  N   UNL     1      42.832   3.797  11.287  0.00  0.00    +0.000 NA
ATOM     16  H   UNL     1      41.966   3.263  11.342  0.00  0.00    +0.000 HD
BRANCH  15  17
ATOM     17  C   UNL     1      43.895   2.868  10.886  0.00  0.00    +0.000 C 
BRANCH  17  18
ATOM     18  C   UNL     1      44.375   3.174   9.452  0.00  0.00    +0.000 C 
BRANCH  18  19
ATOM     19  N   UNL     1      43.853   4.451   8.951  0.00  0.00    +0.000 NA
ATOM     20  H   UNL     1      44.278   5.207   9.486  0.00  0.00    +0.000 HD
ATOM     21  H   UNL     1      42.858   4.495   9.173  0.00  0.00    +0.000 HD
ENDBRANCH  18  19
ENDBRANCH  17  18
ENDBRANCH  15  17
ENDBRANCH  14  15
ENDBRANCH   8  14
ENDBRANCH   7  11
ENDBRANCH   1   7
BRANCH   4  22
ATOM     22  C   UNL     1      50.766   8.203  17.491  0.00  0.00    +0.000 C 
BRANCH  22  23
ATOM     23  N   UNL     1      51.537   7.008  17.717  0.00  0.00    +0.000 N 
ATOM     24  C   UNL     1      51.074   6.007  18.531  0.00  0.00    +0.000 C 
ATOM     25  O   UNL     1      49.963   6.053  19.050  0.00  0.00    +0.000 OA
ATOM     26  H   UNL     1      52.528   7.047  17.494  0.00  0.00    +0.000 HD
BRANCH  24  27
ATOM     27  C   UNL     1      51.953   4.842  18.697  0.00  0.00    +0.000 A 
ATOM     28  C   UNL     1      53.134   4.970  19.415  0.00  0.00    +0.000 A 
ATOM     29  S   UNL     1      54.009   3.513  19.558  0.00  0.00    +0.000 S 
ATOM     30  C   UNL     1      52.867   2.672  18.620  0.00  0.00    +0.000 A 
ATOM     31  N   UNL     1      53.033   1.352  18.335  0.00  0.00    +0.000 NA
ATOM     32  C   UNL     1      52.109   0.846  17.587  0.00  0.00    +0.000 A 
ATOM     33  N   UNL     1      51.029   1.540  17.105  0.00  0.00    +0.000 N 
ATOM     34  C   UNL     1      50.804   2.865  17.393  0.00  0.00    +0.000 A 
ATOM     35  O   UNL     1      49.804   3.447  16.985  0.00  0.00    +0.000 OA
ATOM     36  C   UNL     1      51.822   3.486  18.220  0.00  0.00    +0.000 A 
ATOM     37  H   UNL     1      50.336   1.083  16.531  0.00  0.00    +0.000 HD
ENDBRANCH  24  27
ENDBRANCH  22  23
ENDBRANCH   4  22
TORSDOF 10
ENDMDL
MODEL 5
REMARK VINA RESULT:    -6.340      2.368      2.637
REMARK INTER + INTRA:         -11.209
REMARK INTER:                  -9.967
REMARK INTRA:                  -1.243
REMARK UNBOUND:                -1.348
REMARK  Name = 
REMARK  10 active torsions:
REMARK  status: ('A' for Active; 'I' for Inactive)
REMARK    1  A    between atoms: N_1  and  C_2
REMARK    2  A    between atoms: C_2  and  C_3
REMARK    3  A    between atoms: C_3  and  N_4
REMARK    4  A    between atoms: N_4  and  C_5
REMARK    5  A    between atoms: C_5  and  C_6
REMARK    6  A    between atoms: C_9  and  C_10
REMARK    7  A    between atoms: C_10  and  C_11
REMARK    8  A    between atoms: C_14  and  C_15
REMARK    9  A    between atoms: C_15  and  N_16
REMARK   10  A    between atoms: C_17  and  C_19
REMARK                            x       y       z     vdW  Elec       q    Type
REMARK                         _______ _______ _______ _____ _____    ______ ____
ROOT
ATOM      1  C   UNL     1      46.060   7.450  12.425  0.00  0.00    +0.000 A 
ATOM      2  C   UNL     1      46.445   8.750  12.100  0.00  0.00    +0.000 A 
ATOM      3  C   UNL     1      47.737   9.168  12.416  0.00  0.00    +0.000 A 
ATOM      4  C   UNL     1      48.625   8.280  13.027  0.00  0.00    +0.000 A 
ATOM      5  C   UNL     1      48.139   7.016  13.344  0.00  0.00    +0.000 A 
ATOM      6  N   UNL     1      46.891   6.585  13.060  0.00  0.00    +0.000 NA
ENDROOT
BRANCH   1   7
ATOM      7  C   UNL     1      44.692   6.933  12.035  0.00  0.00    +0.000 C 
BRANCH   7  11
ATOM      8  C   UNL     1      44.787   3.307   9.644  0.00  0.00    +0.000 A 
ATOM      9  C   UNL     1      44.061   3.359  10.844  0.00  0.00    +0.000 A 
ATOM     10  C   UNL     1      44.025   4.530  11.604  0.00  0.00    +0.000 A 
ATOM     11  C   UNL     1      44.736   5.669  11.202  0.00  0.00    +0.000 A 
ATOM     12  C   UNL     1      45.465   5.617  10.008  0.00  0.00    +0.000 A 
ATOM     13  C   UNL     1      45.486   4.449   9.237  0.00  0.00    +0.000 A 
BRANCH   8  14
ATOM     14  C   UNL     1      44.832   2.037   8.823  0.00  0.00    +0.000 C 
BRANCH  14  15
ATOM     15  N   UNL     1      45.566   2.233   7.573  0.00  0.00    +0.000 NA
ATOM     16  H   UNL     1      45.000   1.860   6.812  0.00  0.00    +0.000 HD
BRANCH  15  17
ATOM     17  C   UNL     1      46.834   1.493   7.580  0.00  0.00    +0.000 C 
BRANCH  17  18
ATOM     18  C   UNL     1      47.949   2.316   6.903  0.00  0.00    +0.000 C 
BRANCH  18  19
ATOM     19  N   UNL     1      48.349   1.752   5.608  0.00  0.00    +0.000 NA
ATOM     20  H   UNL     1      48.766   2.494   5.046  0.00  0.00    +0.000 HD
ATOM     21  H   UNL     1      47.504   1.482   5.106  0.00  0.00    +0.000 HD
ENDBRANCH  18  19
ENDBRANCH  17  18
ENDBRANCH  15  17
ENDBRANCH  14  15
ENDBRANCH   8  14
ENDBRANCH   7  11
ENDBRANCH   1   7
BRANCH   4  22
ATOM     22  C   UNL     1      50.029   8.670  13.375  0.00  0.00    +0.000 C 
BRANCH  22  23
ATOM     23  N   UNL     1      50.655   7.678  14.210  0.00  0.00    +0.000 N 
ATOM     24  C   UNL     1      51.317   8.030  15.358  0.00  0.00    +0.000 C 
ATOM     25  O   UNL     1      51.354   9.190  15.757  0.00  0.00    +0.000 OA
ATOM     26  H   UNL     1      50.833   6.768  13.795  0.00  0.00    +0.000 HD
BRANCH  24  27
ATOM     27  C   UNL     1      51.927   6.934  16.122  0.00  0.00    +0.000 A 
ATOM     28  C   UNL     1      53.310   6.837  16.199  0.00  0.00    +0.000 A 
ATOM     29  S   UNL     1      53.852   5.542  17.166  0.00  0.00    +0.000 S 
ATOM     30  C   UNL     1      52.259   5.034  17.475  0.00  0.00    +0.000 A 
ATOM     31  N   UNL     1      52.011   3.936  18.240  0.00  0.00    +0.000 NA
ATOM     32  C   UNL     1      50.759   3.643  18.364  0.00  0.00    +0.000 A 
ATOM     33  N   UNL     1      49.732   4.355  17.800  0.00  0.00    +0.000 N 
ATOM     34  C   UNL     1      49.933   5.487  17.048  0.00  0.00    +0.000 A 
ATOM     35  O   UNL     1      48.991   6.130  16.594  0.00  0.00    +0.000 OA
ATOM     36  C   UNL     1      51.325   5.852  16.863  0.00  0.00    +0.000 A 
ATOM     37  H   UNL     1      48.772   4.079  17.944  0.00  0.00    +0.000 HD
ENDBRANCH  24  27
ENDBRANCH  22  23
ENDBRANCH   4  22
TORSDOF 10
ENDMDL
MODEL 6
REMARK VINA RESULT:    -6.287      5.114      8.281
REMARK INTER + INTRA:         -11.127
REMARK INTER:                 -10.137
REMARK INTRA:                  -0.990
REMARK UNBOUND:                -1.348
REMARK  Name = 
REMARK  10 active torsions:
REMARK  status: ('A' for Active; 'I' for Inactive)
REMARK    1  A    between atoms: N_1  and  C_2
REMARK    2  A    between atoms: C_2  and  C_3
REMARK    3  A    between atoms: C_3  and  N_4
REMARK    4  A    between atoms: N_4  and  C_5
REMARK    5  A    between atoms: C_5  and  C_6
REMARK    6  A    between atoms: C_9  and  C_10
REMARK    7  A    between atoms: C_10  and  C_11
REMARK    8  A    between atoms: C_14  and  C_15
REMARK    9  A    between atoms: C_15  and  N_16
REMARK   10  A    between atoms: C_17  and  C_19
REMARK                            x       y       z     vdW  Elec       q    Type
REMARK                         _______ _______ _______ _____ _____    ______ ____
ROOT
ATOM      1  C   UNL     1      50.656   8.622  12.241  0.00  0.00    +0.000 A 
ATOM      2  C   UNL     1      49.925   7.695  11.500  0.00  0.00    +0.000 A 
ATOM      3  C   UNL     1      48.566   7.536  11.772  0.00  0.00    +0.000 A 
ATOM      4  C   UNL     1      47.958   8.318  12.757  0.00  0.00    +0.000 A 
ATOM      5  C   UNL     1      48.777   9.192  13.466  0.00  0.00    +0.000 A 
ATOM      6  N   UNL     1      50.097   9.360  13.233  0.00  0.00    +0.000 NA
ENDROOT
BRANCH   1   7
ATOM      7  C   UNL     1      52.115   8.877  11.930  0.00  0.00    +0.000 C 
BRANCH   7  11
ATOM      8  C   UNL     1      53.276   7.784   7.888  0.00  0.00    +0.000 A 
ATOM      9  C   UNL     1      52.923   9.106   8.203  0.00  0.00    +0.000 A 
ATOM     10  C   UNL     1      52.560   9.453   9.506  0.00  0.00    +0.000 A 
ATOM     11  C   UNL     1      52.512   8.488  10.521  0.00  0.00    +0.000 A 
ATOM     12  C   UNL     1      52.859   7.169  10.207  0.00  0.00    +0.000 A 
ATOM     13  C   UNL     1      53.241   6.823   8.905  0.00  0.00    +0.000 A 
BRANCH   8  14
ATOM     14  C   UNL     1      53.663   7.405   6.476  0.00  0.00    +0.000 C 
BRANCH  14  15
ATOM     15  N   UNL     1      53.325   6.012   6.185  0.00  0.00    +0.000 NA
ATOM     16  H   UNL     1      52.946   5.594   7.034  0.00  0.00    +0.000 HD
BRANCH  15  17
ATOM     17  C   UNL     1      54.518   5.242   5.811  0.00  0.00    +0.000 C 
BRANCH  17  18
ATOM     18  C   UNL     1      54.321   3.744   6.125  0.00  0.00    +0.000 C 
BRANCH  18  19
ATOM     19  N   UNL     1      53.062   3.485   6.836  0.00  0.00    +0.000 NA
ATOM     20  H   UNL     1      52.362   4.149   6.506  0.00  0.00    +0.000 HD
ATOM     21  H   UNL     1      53.202   3.714   7.819  0.00  0.00    +0.000 HD
ENDBRANCH  18  19
ENDBRANCH  17  18
ENDBRANCH  15  17
ENDBRANCH  14  15
ENDBRANCH   8  14
ENDBRANCH   7  11
ENDBRANCH   1   7
BRANCH   4  22
ATOM     22  C   UNL     1      46.500   8.201  13.080  0.00  0.00    +0.000 C 
BRANCH  22  23
ATOM     23  N   UNL     1      46.000   6.887  12.769  0.00  0.00    +0.000 N 
ATOM     24  C   UNL     1      45.066   6.697  11.785  0.00  0.00    +0.000 C 
ATOM     25  O   UNL     1      44.660   7.621  11.086  0.00  0.00    +0.000 OA
ATOM     26  H   UNL     1      46.140   6.161  13.466  0.00  0.00    +0.000 HD
BRANCH  24  27
ATOM     27  C   UNL     1      44.620   5.315  11.565  0.00  0.00    +0.000 A 
ATOM     28  C   UNL     1      43.910   4.655  12.560  0.00  0.00    +0.000 A 
ATOM     29  S   UNL     1      43.424   3.081  12.125  0.00  0.00    +0.000 S 
ATOM     30  C   UNL     1      44.191   3.203  10.612  0.00  0.00    +0.000 A 
ATOM     31  N   UNL     1      44.174   2.164   9.733  0.00  0.00    +0.000 NA
ATOM     32  C   UNL     1      44.823   2.381   8.638  0.00  0.00    +0.000 A 
ATOM     33  N   UNL     1      45.479   3.546   8.337  0.00  0.00    +0.000 N 
ATOM     34  C   UNL     1      45.495   4.633   9.179  0.00  0.00    +0.000 A 
ATOM     35  O   UNL     1      46.052   5.679   8.862  0.00  0.00    +0.000 OA
ATOM     36  C   UNL     1      44.793   4.436  10.433  0.00  0.00    +0.000 A 
ATOM     37  H   UNL     1      45.961   3.656   7.457  0.00  0.00    +0.000 HD
ENDBRANCH  24  27
ENDBRANCH  22  23
ENDBRANCH   4  22
TORSDOF 10
ENDMDL
MODEL 7
REMARK VINA RESULT:    -6.206      3.952      5.173
REMARK INTER + INTRA:         -11.001
REMARK INTER:                 -10.792
REMARK INTRA:                  -0.208
REMARK UNBOUND:                -1.348
REMARK  Name = 
REMARK  10 active torsions:
REMARK  status: ('A' for Active; 'I' for Inactive)
REMARK    1  A    between atoms: N_1  and  C_2
REMARK    2  A    between atoms: C_2  and  C_3
REMARK    3  A    between atoms: C_3  and  N_4
REMARK    4  A    between atoms: N_4  and  C_5
REMARK    5  A    between atoms: C_5  and  C_6
REMARK    6  A    between atoms: C_9  and  C_10
REMARK    7  A    between atoms: C_10  and  C_11
REMARK    8  A    between atoms: C_14  and  C_15
REMARK    9  A    between atoms: C_15  and  N_16
REMARK   10  A    between atoms: C_17  and  C_19
REMARK                            x       y       z     vdW  Elec       q    Type
REMARK                         _______ _______ _______ _____ _____    ______ ____
ROOT
ATOM      1  C   UNL     1      47.686   5.671  14.819  0.00  0.00    +0.000 A 
ATOM      2  C   UNL     1      47.132   4.392  14.831  0.00  0.00    +0.000 A 
ATOM      3  C   UNL     1      47.430   3.538  15.893  0.00  0.00    +0.000 A 
ATOM      4  C   UNL     1      48.252   3.981  16.931  0.00  0.00    +0.000 A 
ATOM      5  C   UNL     1      48.785   5.261  16.814  0.00  0.00    +0.000 A 
ATOM      6  N   UNL     1      48.525   6.107  15.794  0.00  0.00    +0.000 NA
ENDROOT
BRANCH   1   7
ATOM      7  C   UNL     1      47.332   6.653  13.724  0.00  0.00    +0.000 C 
BRANCH   7  11
ATOM      8  C   UNL     1      44.925   4.922  10.547  0.00  0.00    +0.000 A 
ATOM      9  C   UNL     1      45.933   5.855  10.260  0.00  0.00    +0.000 A 
ATOM     10  C   UNL     1      46.711   6.401  11.283  0.00  0.00    +0.000 A 
ATOM     11  C   UNL     1      46.484   6.053  12.622  0.00  0.00    +0.000 A 
ATOM     12  C   UNL     1      45.476   5.126  12.911  0.00  0.00    +0.000 A 
ATOM     13  C   UNL     1      44.708   4.565  11.883  0.00  0.00    +0.000 A 
BRANCH   8  14
ATOM     14  C   UNL     1      44.078   4.335   9.441  0.00  0.00    +0.000 C 
BRANCH  14  15
ATOM     15  N   UNL     1      44.289   2.893   9.312  0.00  0.00    +0.000 NA
ATOM     16  H   UNL     1      44.413   2.507  10.248  0.00  0.00    +0.000 HD
BRANCH  15  17
ATOM     17  C   UNL     1      45.510   2.600   8.553  0.00  0.00    +0.000 C 
BRANCH  17  18
ATOM     18  C   UNL     1      45.583   3.467   7.280  0.00  0.00    +0.000 C 
BRANCH  18  19
ATOM     19  N   UNL     1      46.834   4.232   7.198  0.00  0.00    +0.000 NA
ATOM     20  H   UNL     1      47.583   3.671   7.602  0.00  0.00    +0.000 HD
ATOM     21  H   UNL     1      46.750   5.043   7.810  0.00  0.00    +0.000 HD
ENDBRANCH  18  19
ENDBRANCH  17  18
ENDBRANCH  15  17
ENDBRANCH  14  15
ENDBRANCH   8  14
ENDBRANCH   7  11
ENDBRANCH   1   7
BRANCH   4  22
ATOM     22  C   UNL     1      48.593   3.113  18.104  0.00  0.00    +0.000 C 
BRANCH  22  23
ATOM     23  N   UNL     1      50.017   2.949  18.234  0.00  0.00    +0.000 N 
ATOM     24  C   UNL     1      50.721   2.140  17.379  0.00  0.00    +0.000 C 
ATOM     25  O   UNL     1      50.184   1.573  16.432  0.00  0.00    +0.000 OA
ATOM     26  H   UNL     1      50.435   3.212  19.122  0.00  0.00    +0.000 HD
BRANCH  24  27
ATOM     27  C   UNL     1      52.166   2.038  17.617  0.00  0.00    +0.000 A 
ATOM     28  C   UNL     1      52.754   0.787  17.748  0.00  0.00    +0.000 A 
ATOM     29  S   UNL     1      54.444   0.844  17.966  0.00  0.00    +0.000 S 
ATOM     30  C   UNL     1      54.443   2.545  17.946  0.00  0.00    +0.000 A 
ATOM     31  N   UNL     1      55.598   3.247  18.110  0.00  0.00    +0.000 NA
ATOM     32  C   UNL     1      55.448   4.530  18.107  0.00  0.00    +0.000 A 
ATOM     33  N   UNL     1      54.249   5.175  17.947  0.00  0.00    +0.000 N 
ATOM     34  C   UNL     1      53.064   4.509  17.747  0.00  0.00    +0.000 A 
ATOM     35  O   UNL     1      52.013   5.115  17.560  0.00  0.00    +0.000 OA
ATOM     36  C   UNL     1      53.174   3.062  17.756  0.00  0.00    +0.000 A 
ATOM     37  H   UNL     1      54.201   6.183  17.945  0.00  0.00    +0.000 HD
ENDBRANCH  24  27
ENDBRANCH  22  23
ENDBRANCH   4  22
TORSDOF 10
ENDMDL
MODEL 8
REMARK VINA RESULT:    -5.832      4.456      6.256
REMARK INTER + INTRA:         -10.419
REMARK INTER:                  -9.170
REMARK INTRA:                  -1.249
REMARK UNBOUND:                -1.348
REMARK  Name = 
REMARK  10 active torsions:
REMARK  status: ('A' for Active; 'I' for Inactive)
REMARK    1  A    between atoms: N_1  and  C_2
REMARK    2  A    between atoms: C_2  and  C_3
REMARK    3  A    between atoms: C_3  and  N_4
REMARK    4  A    between atoms: N_4  and  C_5
REMARK    5  A    between atoms: C_5  and  C_6
REMARK    6  A    between atoms: C_9  and  C_10
REMARK    7  A    between atoms: C_10  and  C_11
REMARK    8  A    between atoms: C_14  and  C_15
REMARK    9  A    between atoms: C_15  and  N_16
REMARK   10  A    between atoms: C_17  and  C_19
REMARK                            x       y       z     vdW  Elec       q    Type
REMARK                         _______ _______ _______ _____ _____    ______ ____
ROOT
ATOM      1  C   UNL     1      45.742   6.926  12.412  0.00  0.00    +0.000 A 
ATOM      2  C   UNL     1      46.816   6.219  12.950  0.00  0.00    +0.000 A 
ATOM      3  C   UNL     1      47.932   6.925  13.396  0.00  0.00    +0.000 A 
ATOM      4  C   UNL     1      47.949   8.319  13.320  0.00  0.00    +0.000 A 
ATOM      5  C   UNL     1      46.846   8.934  12.736  0.00  0.00    +0.000 A 
ATOM      6  N   UNL     1      45.755   8.278  12.285  0.00  0.00    +0.000 NA
ENDROOT
BRANCH   1   7
ATOM      7  C   UNL     1      44.483   6.206  11.982  0.00  0.00    +0.000 C 
BRANCH   7  11
ATOM      8  C   UNL     1      45.161   3.314   8.811  0.00  0.00    +0.000 A 
ATOM      9  C   UNL     1      45.754   4.585   8.765  0.00  0.00    +0.000 A 
ATOM     10  C   UNL     1      45.541   5.507   9.792  0.00  0.00    +0.000 A 
ATOM     11  C   UNL     1      44.708   5.197  10.875  0.00  0.00    +0.000 A 
ATOM     12  C   UNL     1      44.112   3.931  10.921  0.00  0.00    +0.000 A 
ATOM     13  C   UNL     1      44.340   3.000   9.901  0.00  0.00    +0.000 A 
BRANCH   8  14
ATOM     14  C   UNL     1      45.386   2.317   7.697  0.00  0.00    +0.000 C 
BRANCH  14  15
ATOM     15  N   UNL     1      46.292   1.246   8.111  0.00  0.00    +0.000 NA
ATOM     16  H   UNL     1      46.448   1.334   9.115  0.00  0.00    +0.000 HD
BRANCH  15  17
ATOM     17  C   UNL     1      47.598   1.370   7.452  0.00  0.00    +0.000 C 
BRANCH  17  18
ATOM     18  C   UNL     1      47.504   2.300   6.226  0.00  0.00    +0.000 C 
BRANCH  18  19
ATOM     19  N   UNL     1      48.429   1.905   5.156  0.00  0.00    +0.000 NA
ATOM     20  H   UNL     1      49.299   1.586   5.581  0.00  0.00    +0.000 HD
ATOM     21  H   UNL     1      48.682   2.743   4.632  0.00  0.00    +0.000 HD
ENDBRANCH  18  19
ENDBRANCH  17  18
ENDBRANCH  15  17
ENDBRANCH  14  15
ENDBRANCH   8  14
ENDBRANCH   7  11
ENDBRANCH   1   7
BRANCH   4  22
ATOM     22  C   UNL     1      49.115   9.130  13.799  0.00  0.00    +0.000 C 
BRANCH  22  23
ATOM     23  N   UNL     1      50.157   9.181  12.806  0.00  0.00    +0.000 N 
ATOM     24  C   UNL     1      50.266  10.241  11.944  0.00  0.00    +0.000 C 
ATOM     25  O   UNL     1      49.526  11.218  12.018  0.00  0.00    +0.000 OA
ATOM     26  H   UNL     1      50.623   8.307  12.578  0.00  0.00    +0.000 HD
BRANCH  24  27
ATOM     27  C   UNL     1      51.359  10.178  10.966  0.00  0.00    +0.000 A 
ATOM     28  C   UNL     1      51.980  11.349  10.553  0.00  0.00    +0.000 A 
ATOM     29  S   UNL     1      53.261  11.096   9.457  0.00  0.00    +0.000 S 
ATOM     30  C   UNL     1      52.998   9.415   9.454  0.00  0.00    +0.000 A 
ATOM     31  N   UNL     1      53.760   8.590   8.686  0.00  0.00    +0.000 NA
ATOM     32  C   UNL     1      53.430   7.342   8.754  0.00  0.00    +0.000 A 
ATOM     33  N   UNL     1      52.414   6.845   9.528  0.00  0.00    +0.000 N 
ATOM     34  C   UNL     1      51.641   7.636  10.344  0.00  0.00    +0.000 A 
ATOM     35  O   UNL     1      50.769   7.156  11.060  0.00  0.00    +0.000 OA
ATOM     36  C   UNL     1      51.959   9.051  10.293  0.00  0.00    +0.000 A 
ATOM     37  H   UNL     1      52.214   5.856   9.544  0.00  0.00    +0.000 HD
ENDBRANCH  24  27
ENDBRANCH  22  23
ENDBRANCH   4  22
TORSDOF 10
ENDMDL
MODEL 9
REMARK VINA RESULT:    -5.761      1.466      2.296
REMARK INTER + INTRA:         -10.309
REMARK INTER:                  -9.691
REMARK INTRA:                  -0.618
REMARK UNBOUND:                -1.348
REMARK  Name = 
REMARK  10 active torsions:
REMARK  status: ('A' for Active; 'I' for Inactive)
REMARK    1  A    between atoms: N_1  and  C_2
REMARK    2  A    between atoms: C_2  and  C_3
REMARK    3  A    between atoms: C_3  and  N_4
REMARK    4  A    between atoms: N_4  and  C_5
REMARK    5  A    between atoms: C_5  and  C_6
REMARK    6  A    between atoms: C_9  and  C_10
REMARK    7  A    between atoms: C_10  and  C_11
REMARK    8  A    between atoms: C_14  and  C_15
REMARK    9  A    between atoms: C_15  and  N_16
REMARK   10  A    between atoms: C_17  and  C_19
REMARK                            x       y       z     vdW  Elec       q    Type
REMARK                         _______ _______ _______ _____ _____    ______ ____
ROOT
ATOM      1  C   UNL     1      45.599   6.725  12.230  0.00  0.00    +0.000 A 
ATOM      2  C   UNL     1      46.381   5.820  12.946  0.00  0.00    +0.000 A 
ATOM      3  C   UNL     1      47.505   6.291  13.624  0.00  0.00    +0.000 A 
ATOM      4  C   UNL     1      47.814   7.653  13.596  0.00  0.00    +0.000 A 
ATOM      5  C   UNL     1      46.994   8.472  12.827  0.00  0.00    +0.000 A 
ATOM      6  N   UNL     1      45.906   8.045  12.150  0.00  0.00    +0.000 NA
ENDROOT
BRANCH   1   7
ATOM      7  C   UNL     1      44.332   6.269  11.540  0.00  0.00    +0.000 C 
BRANCH   7  11
ATOM      8  C   UNL     1      44.917   2.784   9.012  0.00  0.00    +0.000 A 
ATOM      9  C   UNL     1      45.409   4.041   8.629  0.00  0.00    +0.000 A 
ATOM     10  C   UNL     1      45.227   5.156   9.450  0.00  0.00    +0.000 A 
ATOM     11  C   UNL     1      44.525   5.052  10.659  0.00  0.00    +0.000 A 
ATOM     12  C   UNL     1      44.030   3.799  11.040  0.00  0.00    +0.000 A 
ATOM     13  C   UNL     1      44.228   2.678  10.226  0.00  0.00    +0.000 A 
BRANCH   8  14
ATOM     14  C   UNL     1      45.108   1.577   8.121  0.00  0.00    +0.000 C 
BRANCH  14  15
ATOM     15  N   UNL     1      46.437   0.990   8.292  0.00  0.00    +0.000 NA
ATOM     16  H   UNL     1      46.970   1.590   8.920  0.00  0.00    +0.000 HD
BRANCH  15  17
ATOM     17  C   UNL     1      47.163   0.938   7.016  0.00  0.00    +0.000 C 
BRANCH  17  18
ATOM     18  C   UNL     1      47.895   2.269   6.751  0.00  0.00    +0.000 C 
BRANCH  18  19
ATOM     19  N   UNL     1      47.265   3.047   5.676  0.00  0.00    +0.000 NA
ATOM     20  H   UNL     1      47.983   3.305   5.000  0.00  0.00    +0.000 HD
ATOM     21  H   UNL     1      46.944   3.930   6.072  0.00  0.00    +0.000 HD
ENDBRANCH  18  19
ENDBRANCH  17  18
ENDBRANCH  15  17
ENDBRANCH  14  15
ENDBRANCH   8  14
ENDBRANCH   7  11
ENDBRANCH   1   7
BRANCH   4  22
ATOM     22  C   UNL     1      49.000   8.216  14.319  0.00  0.00    +0.000 C 
BRANCH  22  23
ATOM     23  N   UNL     1      48.860   8.070  15.744  0.00  0.00    +0.000 N 
ATOM     24  C   UNL     1      49.517   7.077  16.425  0.00  0.00    +0.000 C 
ATOM     25  O   UNL     1      50.297   6.313  15.865  0.00  0.00    +0.000 OA
ATOM     26  H   UNL     1      48.065   8.526  16.182  0.00  0.00    +0.000 HD
BRANCH  24  27
ATOM     27  C   UNL     1      49.288   7.016  17.874  0.00  0.00    +0.000 A 
ATOM     28  C   UNL     1      49.816   5.963  18.609  0.00  0.00    +0.000 A 
ATOM     29  S   UNL     1      49.504   6.071  20.281  0.00  0.00    +0.000 S 
ATOM     30  C   UNL     1      48.605   7.501  20.076  0.00  0.00    +0.000 A 
ATOM     31  N   UNL     1      48.023   8.120  21.139  0.00  0.00    +0.000 NA
ATOM     32  C   UNL     1      47.343   9.176  20.836  0.00  0.00    +0.000 A 
ATOM     33  N   UNL     1      47.201   9.674  19.567  0.00  0.00    +0.000 N 
ATOM     34  C   UNL     1      47.797   9.102  18.469  0.00  0.00    +0.000 A 
ATOM     35  O   UNL     1      47.689   9.597  17.352  0.00  0.00    +0.000 OA
ATOM     36  C   UNL     1      48.561   7.901  18.752  0.00  0.00    +0.000 A 
ATOM     37  H   UNL     1      46.663  10.511  19.399  0.00  0.00    +0.000 HD
ENDBRANCH  24  27
ENDBRANCH  22  23
ENDBRANCH   4  22
TORSDOF 10
ENDMDL
