MODEL 1
REMARK VINA RESULT:    -8.893      0.000      0.000
REMARK INTER + INTRA:         -13.370
REMARK INTER:                 -12.532
REMARK INTRA:                  -0.838
REMARK UNBOUND:                -0.838
REMARK  Name = 
REMARK  7 active torsions:
REMARK  status: ('A' for Active; 'I' for Inactive)
REMARK    1  A    between atoms: C_2  and  C_20
REMARK    2  A    between atoms: N_3  and  C_4
REMARK    3  A    between atoms: C_4  and  C_5
REMARK    4  A    between atoms: C_8  and  C_9
REMARK    5  A    between atoms: C_9  and  N_10
REMARK    6  A    between atoms: N_10  and  C_11
REMARK    7  A    between atoms: C_11  and  C_12
REMARK                            x       y       z     vdW  Elec       q    Type
REMARK                         _______ _______ _______ _____ _____    ______ ____
ROOT
ATOM      1  C   UNL     1      46.447   4.419  14.904  0.00  0.00    +0.000 C 
ENDROOT
BRANCH   1   2
ATOM      2  C   UNL     1      46.680   4.489  13.388  0.00  0.00    +0.000 C 
ATOM      3  C   UNL     1      45.956   3.360  12.629  0.00  0.00    +0.000 C 
ATOM      4  C   UNL     1      44.437   3.539  12.595  0.00  0.00    +0.000 C 
ATOM      5  C   UNL     1      44.010   4.926  12.081  0.00  0.00    +0.000 C 
ATOM      6  C   UNL     1      44.730   6.035  12.867  0.00  0.00    +0.000 C 
ATOM      7  C   UNL     1      46.250   5.861  12.851  0.00  0.00    +0.000 C 
BRANCH   5   8
ATOM      8  C   UNL     1      44.260   5.108  10.571  0.00  0.00    +0.000 C 
BRANCH   8   9
ATOM      9  N   UNL     1      44.197   3.831   9.869  0.00  0.00    +0.000 NA
ATOM     10  H   UNL     1      43.277   3.409   9.993  0.00  0.00    +0.000 HD
BRANCH   9  11
ATOM     11  C   UNL     1      44.465   4.009   8.445  0.00  0.00    +0.000 C 
BRANCH  11  12
ATOM     12  C   UNL     1      45.526   3.054   7.981  0.00  0.00    +0.000 A 
ATOM     13  C   UNL     1      46.506   3.442   7.062  0.00  0.00    +0.000 A 
ATOM     14  C   UNL     1      47.476   2.530   6.663  0.00  0.00    +0.000 A 
ATOM     15  C   UNL     1      47.431   1.253   7.197  0.00  0.00    +0.000 A 
ATOM     16  N   UNL     1      46.497   0.837   8.079  0.00  0.00    +0.000 NA
ATOM     17  C   UNL     1      45.569   1.745   8.449  0.00  0.00    +0.000 A 
ENDBRANCH  11  12
ENDBRANCH   9  11
ENDBRANCH   8   9
ENDBRANCH   5   8
ENDBRANCH   1   2
BRANCH   1  20
ATOM     18  O   UNL     1      46.782   4.386  17.729  0.00  0.00    +0.000 OA
ATOM     19  C   UNL     1      47.767   4.400  16.998  0.00  0.00    +0.000 C 
ATOM     20  N   UNL     1      47.685   4.460  15.635  0.00  0.00    +0.000 N 
ATOM     21  H   UNL     1      48.533   4.422  15.080  0.00  0.00    +0.000 HD
BRANCH  19  22
ATOM     22  C   UNL     1      49.128   4.390  17.533  0.00  0.00    +0.000 A 
ATOM     23  C   UNL     1      49.612   5.466  18.260  0.00  0.00    +0.000 A 
ATOM     24  S   UNL     1      51.211   5.244  18.813  0.00  0.00    +0.000 S 
ATOM     25  C   UNL     1      51.294   3.686  18.135  0.00  0.00    +0.000 A 
ATOM     26  N   UNL     1      52.401   2.910  18.282  0.00  0.00    +0.000 NA
ATOM     27  C   UNL     1      52.306   1.736  17.749  0.00  0.00    +0.000 A 
ATOM     28  N   UNL     1      51.212   1.270  17.065  0.00  0.00    +0.000 N 
ATOM     29  C   UNL     1      50.109   2.051  16.820  0.00  0.00    +0.000 A 
ATOM     30  O   UNL     1      49.223   1.655  16.068  0.00  0.00    +0.000 OA
ATOM     31  C   UNL     1      50.136   3.355  17.455  0.00  0.00    +0.000 A 
ATOM     32  H   UNL     1      51.216   0.361  16.632  0.00  0.00    +0.000 HD
ENDBRANCH  19  22
ENDBRANCH   1  20
TORSDOF 7
ENDMDL
MODEL 2
REMARK VINA RESULT:    -8.704      2.145      2.835
REMARK INTER + INTRA:         -13.104
REMARK INTER:                 -11.900
REMARK INTRA:                  -1.204
REMARK UNBOUND:                -0.838
REMARK  Name = 
REMARK  7 active torsions:
REMARK  status: ('A' for Active; 'I' for Inactive)
REMARK    1  A    between atoms: C_2  and  C_20
REMARK    2  A    between atoms: N_3  and  C_4
REMARK    3  A    between atoms: C_4  and  C_5
REMARK    4  A    between atoms: C_8  and  C_9
REMARK    5  A    between atoms: C_9  and  N_10
REMARK    6  A    between atoms: N_10  and  C_11
REMARK    7  A    between atoms: C_11  and  C_12
REMARK                            x       y       z     vdW  Elec       q    Type
REMARK                         _______ _______ _______ _____ _____    ______ ____
ROOT
ATOM      1  C   UNL     1      46.626   7.589  12.823  0.00  0.00    +0.000 C 
ENDROOT
BRANCH   1   2
ATOM      2  C   UNL     1      45.209   7.071  12.541  0.00  0.00    +0.000 C 
ATOM      3  C   UNL     1      44.894   7.011  11.034  0.00  0.00    +0.000 C 
ATOM      4  C   UNL     1      45.651   5.898  10.307  0.00  0.00    +0.000 C 
ATOM      5  C   UNL     1      45.474   4.521  10.973  0.00  0.00    +0.000 C 
ATOM      6  C   UNL     1      45.813   4.602  12.471  0.00  0.00    +0.000 C 
ATOM      7  C   UNL     1      45.013   5.693  13.187  0.00  0.00    +0.000 C 
BRANCH   5   8
ATOM      8  C   UNL     1      44.056   3.945  10.787  0.00  0.00    +0.000 C 
BRANCH   8   9
ATOM      9  N   UNL     1      43.914   3.303   9.486  0.00  0.00    +0.000 NA
ATOM     10  H   UNL     1      44.186   3.949   8.746  0.00  0.00    +0.000 HD
BRANCH   9  11
ATOM     11  C   UNL     1      44.741   2.100   9.410  0.00  0.00    +0.000 C 
BRANCH  11  12
ATOM     12  C   UNL     1      45.710   2.195   8.268  0.00  0.00    +0.000 A 
ATOM     13  C   UNL     1      45.834   3.363   7.510  0.00  0.00    +0.000 A 
ATOM     14  C   UNL     1      46.749   3.414   6.466  0.00  0.00    +0.000 A 
ATOM     15  C   UNL     1      47.510   2.286   6.209  0.00  0.00    +0.000 A 
ATOM     16  N   UNL     1      47.414   1.136   6.910  0.00  0.00    +0.000 NA
ATOM     17  C   UNL     1      46.518   1.117   7.922  0.00  0.00    +0.000 A 
ENDBRANCH  11  12
ENDBRANCH   9  11
ENDBRANCH   8   9
ENDBRANCH   5   8
ENDBRANCH   1   2
BRANCH   1  20
ATOM     18  O   UNL     1      49.009   6.174  13.470  0.00  0.00    +0.000 OA
ATOM     19  C   UNL     1      48.264   6.557  14.366  0.00  0.00    +0.000 C 
ATOM     20  N   UNL     1      47.083   7.203  14.132  0.00  0.00    +0.000 N 
ATOM     21  H   UNL     1      46.531   7.537  14.914  0.00  0.00    +0.000 HD
BRANCH  19  22
ATOM     22  C   UNL     1      48.565   6.318  15.777  0.00  0.00    +0.000 A 
ATOM     23  C   UNL     1      49.123   7.313  16.562  0.00  0.00    +0.000 A 
ATOM     24  S   UNL     1      49.372   6.838  18.182  0.00  0.00    +0.000 S 
ATOM     25  C   UNL     1      48.704   5.299  17.897  0.00  0.00    +0.000 A 
ATOM     26  N   UNL     1      48.574   4.389  18.899  0.00  0.00    +0.000 NA
ATOM     27  C   UNL     1      48.013   3.281  18.545  0.00  0.00    +0.000 A 
ATOM     28  N   UNL     1      47.583   2.988  17.276  0.00  0.00    +0.000 N 
ATOM     29  C   UNL     1      47.773   3.844  16.218  0.00  0.00    +0.000 A 
ATOM     30  O   UNL     1      47.523   3.480  15.073  0.00  0.00    +0.000 OA
ATOM     31  C   UNL     1      48.338   5.132  16.574  0.00  0.00    +0.000 A 
ATOM     32  H   UNL     1      47.194   2.087  17.052  0.00  0.00    +0.000 HD
ENDBRANCH  19  22
ENDBRANCH   1  20
TORSDOF 7
ENDMDL
MODEL 3
REMARK VINA RESULT:    -7.920      2.428      3.141
REMARK INTER + INTRA:         -11.999
REMARK INTER:                 -10.919
REMARK INTRA:                  -1.080
REMARK UNBOUND:                -0.838
REMARK  Name = 
REMARK  7 active torsions:
REMARK  status: ('A' for Active; 'I' for Inactive)
REMARK    1  A    between atoms: C_2  and  C_20
REMARK    2  A    between atoms: N_3  and  C_4
REMARK    3  A    between atoms: C_4  and  C_5
REMARK    4  A    between atoms: C_8  and  C_9
REMARK    5  A    between atoms: C_9  and  N_10
REMARK    6  A    between atoms: N_10  and  C_11
REMARK    7  A    between atoms: C_11  and  C_12
REMARK                            x       y       z     vdW  Elec       q    Type
REMARK                         _______ _______ _______ _____ _____    ______ ____
ROOT
ATOM      1  C   UNL     1      46.378   4.381  14.439  0.00  0.00    +0.000 C 
ENDROOT
BRANCH   1   2
ATOM      2  C   UNL     1      46.278   4.785  12.962  0.00  0.00    +0.000 C 
ATOM      3  C   UNL     1      45.909   3.599  12.051  0.00  0.00    +0.000 C 
ATOM      4  C   UNL     1      44.459   3.142  12.219  0.00  0.00    +0.000 C 
ATOM      5  C   UNL     1      43.448   4.295  12.078  0.00  0.00    +0.000 C 
ATOM      6  C   UNL     1      43.827   5.458  13.011  0.00  0.00    +0.000 C 
ATOM      7  C   UNL     1      45.267   5.927  12.794  0.00  0.00    +0.000 C 
BRANCH   5   8
ATOM      8  C   UNL     1      43.323   4.806  10.628  0.00  0.00    +0.000 C 
BRANCH   8   9
ATOM      9  N   UNL     1      43.714   3.776   9.672  0.00  0.00    +0.000 NA
ATOM     10  H   UNL     1      42.891   3.418   9.189  0.00  0.00    +0.000 HD
BRANCH   9  11
ATOM     11  C   UNL     1      44.660   4.311   8.695  0.00  0.00    +0.000 C 
BRANCH  11  12
ATOM     12  C   UNL     1      45.518   3.215   8.134  0.00  0.00    +0.000 A 
ATOM     13  C   UNL     1      46.332   3.424   7.017  0.00  0.00    +0.000 A 
ATOM     14  C   UNL     1      47.118   2.386   6.531  0.00  0.00    +0.000 A 
ATOM     15  C   UNL     1      47.059   1.164   7.181  0.00  0.00    +0.000 A 
ATOM     16  N   UNL     1      46.279   0.918   8.256  0.00  0.00    +0.000 NA
ATOM     17  C   UNL     1      45.528   1.947   8.706  0.00  0.00    +0.000 A 
ENDBRANCH  11  12
ENDBRANCH   9  11
ENDBRANCH   8   9
ENDBRANCH   5   8
ENDBRANCH   1   2
BRANCH   1  20
ATOM     18  O   UNL     1      48.324   3.782  16.427  0.00  0.00    +0.000 OA
ATOM     19  C   UNL     1      48.117   4.948  16.108  0.00  0.00    +0.000 C 
ATOM     20  N   UNL     1      47.169   5.316  15.194  0.00  0.00    +0.000 N 
ATOM     21  H   UNL     1      47.075   6.292  14.936  0.00  0.00    +0.000 HD
BRANCH  19  22
ATOM     22  C   UNL     1      48.851   6.058  16.714  0.00  0.00    +0.000 A 
ATOM     23  C   UNL     1      48.893   6.213  18.090  0.00  0.00    +0.000 A 
ATOM     24  S   UNL     1      49.821   7.554  18.591  0.00  0.00    +0.000 S 
ATOM     25  C   UNL     1      50.232   7.947  16.987  0.00  0.00    +0.000 A 
ATOM     26  N   UNL     1      51.059   8.989  16.705  0.00  0.00    +0.000 NA
ATOM     27  C   UNL     1      51.315   9.143  15.448  0.00  0.00    +0.000 A 
ATOM     28  N   UNL     1      50.807   8.362  14.441  0.00  0.00    +0.000 N 
ATOM     29  C   UNL     1      49.902   7.355  14.676  0.00  0.00    +0.000 A 
ATOM     30  O   UNL     1      49.349   6.788  13.738  0.00  0.00    +0.000 OA
ATOM     31  C   UNL     1      49.633   7.096  16.077  0.00  0.00    +0.000 A 
ATOM     32  H   UNL     1      51.007   8.561  13.475  0.00  0.00    +0.000 HD
ENDBRANCH  19  22
ENDBRANCH   1  20
TORSDOF 7
ENDMDL
MODEL 4
REMARK VINA RESULT:    -7.869      4.906      5.619
REMARK INTER + INTRA:         -11.928
REMARK INTER:                 -10.904
REMARK INTRA:                  -1.023
REMARK UNBOUND:                -0.838
REMARK  Name = 
REMARK  7 active torsions:
REMARK  status: ('A' for Active; 'I' for Inactive)
REMARK    1  A    between atoms: C_2  and  C_20
REMARK    2  A    between atoms: N_3  and  C_4
REMARK    3  A    between atoms: C_4  and  C_5
REMARK    4  A    between atoms: C_8  and  C_9
REMARK    5  A    between atoms: C_9  and  N_10
REMARK    6  A    between atoms: N_10  and  C_11
REMARK    7  A    between atoms: C_11  and  C_12
REMARK                            x       y       z     vdW  Elec       q    Type
REMARK                         _______ _______ _______ _____ _____    ______ ____
ROOT
ATOM      1  C   UNL     1      44.637   7.666  12.125  0.00  0.00    +0.000 C 
ENDROOT
BRANCH   1   2
ATOM      2  C   UNL     1      44.300   6.587  11.088  0.00  0.00    +0.000 C 
ATOM      3  C   UNL     1      45.418   5.537  10.945  0.00  0.00    +0.000 C 
ATOM      4  C   UNL     1      45.526   4.608  12.156  0.00  0.00    +0.000 C 
ATOM      5  C   UNL     1      44.184   3.952  12.528  0.00  0.00    +0.000 C 
ATOM      6  C   UNL     1      43.089   5.021  12.684  0.00  0.00    +0.000 C 
ATOM      7  C   UNL     1      42.969   5.911  11.444  0.00  0.00    +0.000 C 
BRANCH   5   8
ATOM      8  C   UNL     1      43.735   2.888  11.506  0.00  0.00    +0.000 C 
BRANCH   8   9
ATOM      9  N   UNL     1      44.847   2.468  10.660  0.00  0.00    +0.000 NA
ATOM     10  H   UNL     1      45.217   1.576  10.987  0.00  0.00    +0.000 HD
BRANCH   9  11
ATOM     11  C   UNL     1      44.418   2.338   9.270  0.00  0.00    +0.000 C 
BRANCH  11  12
ATOM     12  C   UNL     1      45.605   2.300   8.351  0.00  0.00    +0.000 A 
ATOM     13  C   UNL     1      46.094   3.460   7.742  0.00  0.00    +0.000 A 
ATOM     14  C   UNL     1      47.199   3.384   6.903  0.00  0.00    +0.000 A 
ATOM     15  C   UNL     1      47.778   2.144   6.697  0.00  0.00    +0.000 A 
ATOM     16  N   UNL     1      47.331   1.000   7.258  0.00  0.00    +0.000 NA
ATOM     17  C   UNL     1      46.257   1.105   8.070  0.00  0.00    +0.000 A 
ENDBRANCH  11  12
ENDBRANCH   9  11
ENDBRANCH   8   9
ENDBRANCH   5   8
ENDBRANCH   1   2
BRANCH   1  20
ATOM     18  O   UNL     1      46.798   8.401  13.825  0.00  0.00    +0.000 OA
ATOM     19  C   UNL     1      46.838   8.681  12.632  0.00  0.00    +0.000 C 
ATOM     20  N   UNL     1      45.821   8.401  11.764  0.00  0.00    +0.000 N 
ATOM     21  H   UNL     1      45.930   8.614  10.778  0.00  0.00    +0.000 HD
BRANCH  19  22
ATOM     22  C   UNL     1      47.977   9.382  12.040  0.00  0.00    +0.000 A 
ATOM     23  C   UNL     1      47.851  10.684  11.585  0.00  0.00    +0.000 A 
ATOM     24  S   UNL     1      49.301  11.325  10.954  0.00  0.00    +0.000 S 
ATOM     25  C   UNL     1      50.156   9.896  11.305  0.00  0.00    +0.000 A 
ATOM     26  N   UNL     1      51.487   9.789  11.051  0.00  0.00    +0.000 NA
ATOM     27  C   UNL     1      52.011   8.663  11.407  0.00  0.00    +0.000 A 
ATOM     28  N   UNL     1      51.324   7.623  11.980  0.00  0.00    +0.000 N 
ATOM     29  C   UNL     1      49.964   7.658  12.175  0.00  0.00    +0.000 A 
ATOM     30  O   UNL     1      49.365   6.650  12.538  0.00  0.00    +0.000 OA
ATOM     31  C   UNL     1      49.338   8.925  11.855  0.00  0.00    +0.000 A 
ATOM     32  H   UNL     1      51.780   6.751  12.194  0.00  0.00    +0.000 HD
ENDBRANCH  19  22
ENDBRANCH   1  20
TORSDOF 7
ENDMDL
MODEL 5
REMARK VINA RESULT:    -7.706      2.364      3.143
REMARK INTER + INTRA:         -11.698
REMARK INTER:                 -10.814
REMARK INTRA:                  -0.884
REMARK UNBOUND:                -0.838
REMARK  Name = 
REMARK  7 active torsions:
REMARK  status: ('A' for Active; 'I' for Inactive)
REMARK    1  A    between atoms: C_2  and  C_20
REMARK    2  A    between atoms: N_3  and  C_4
REMARK    3  A    between atoms: C_4  and  C_5
REMARK    4  A    between atoms: C_8  and  C_9
REMARK    5  A    between atoms: C_9  and  N_10
REMARK    6  A    between atoms: N_10  and  C_11
REMARK    7  A    between atoms: C_11  and  C_12
REMARK                            x       y       z     vdW  Elec       q    Type
REMARK                         _______ _______ _______ _____ _____    ______ ____
ROOT
ATOM      1  C   UNL     1      46.290   4.383  14.644  0.00  0.00    +0.000 C 
ENDROOT
BRANCH   1   2
ATOM      2  C   UNL     1      46.272   4.782  13.162  0.00  0.00    +0.000 C 
ATOM      3  C   UNL     1      45.949   3.593  12.237  0.00  0.00    +0.000 C 
ATOM      4  C   UNL     1      44.491   3.140  12.328  0.00  0.00    +0.000 C 
ATOM      5  C   UNL     1      43.492   4.295  12.129  0.00  0.00    +0.000 C 
ATOM      6  C   UNL     1      43.822   5.460  13.077  0.00  0.00    +0.000 C 
ATOM      7  C   UNL     1      45.273   5.926  12.937  0.00  0.00    +0.000 C 
BRANCH   5   8
ATOM      8  C   UNL     1      43.446   4.801  10.673  0.00  0.00    +0.000 C 
BRANCH   8   9
ATOM      9  N   UNL     1      43.834   3.751   9.738  0.00  0.00    +0.000 NA
ATOM     10  H   UNL     1      43.007   3.368   9.281  0.00  0.00    +0.000 HD
BRANCH   9  11
ATOM     11  C   UNL     1      44.753   4.271   8.729  0.00  0.00    +0.000 C 
BRANCH  11  12
ATOM     12  C   UNL     1      45.568   3.160   8.133  0.00  0.00    +0.000 A 
ATOM     13  C   UNL     1      46.354   3.361   6.994  0.00  0.00    +0.000 A 
ATOM     14  C   UNL     1      47.100   2.309   6.476  0.00  0.00    +0.000 A 
ATOM     15  C   UNL     1      47.031   1.083   7.116  0.00  0.00    +0.000 A 
ATOM     16  N   UNL     1      46.278   0.845   8.211  0.00  0.00    +0.000 NA
ATOM     17  C   UNL     1      45.565   1.887   8.693  0.00  0.00    +0.000 A 
ENDBRANCH  11  12
ENDBRANCH   9  11
ENDBRANCH   8   9
ENDBRANCH   5   8
ENDBRANCH   1   2
BRANCH   1  20
ATOM     18  O   UNL     1      48.551   3.646  16.208  0.00  0.00    +0.000 OA
ATOM     19  C   UNL     1      48.232   4.826  16.115  0.00  0.00    +0.000 C 
ATOM     20  N   UNL     1      47.135   5.252  15.419  0.00  0.00    +0.000 N 
ATOM     21  H   UNL     1      46.948   6.245  15.338  0.00  0.00    +0.000 HD
BRANCH  19  22
ATOM     22  C   UNL     1      48.988   5.887  16.780  0.00  0.00    +0.000 A 
ATOM     23  C   UNL     1      50.182   6.347  16.250  0.00  0.00    +0.000 A 
ATOM     24  S   UNL     1      50.891   7.601  17.164  0.00  0.00    +0.000 S 
ATOM     25  C   UNL     1      49.604   7.598  18.278  0.00  0.00    +0.000 A 
ATOM     26  N   UNL     1      49.563   8.479  19.313  0.00  0.00    +0.000 NA
ATOM     27  C   UNL     1      48.507   8.389  20.052  0.00  0.00    +0.000 A 
ATOM     28  N   UNL     1      47.492   7.485  19.864  0.00  0.00    +0.000 N 
ATOM     29  C   UNL     1      47.535   6.522  18.884  0.00  0.00    +0.000 A 
ATOM     30  O   UNL     1      46.689   5.633  18.851  0.00  0.00    +0.000 OA
ATOM     31  C   UNL     1      48.667   6.623  17.984  0.00  0.00    +0.000 A 
ATOM     32  H   UNL     1      46.716   7.432  20.502  0.00  0.00    +0.000 HD
ENDBRANCH  19  22
ENDBRANCH   1  20
TORSDOF 7
ENDMDL
MODEL 6
REMARK VINA RESULT:    -7.374      2.893      3.980
REMARK INTER + INTRA:         -11.229
REMARK INTER:                 -10.506
REMARK INTRA:                  -0.724
REMARK UNBOUND:                -0.838
REMARK  Name = 
REMARK  7 active torsions:
REMARK  status: ('A' for Active; 'I' for Inactive)
REMARK    1  A    between atoms: C_2  and  C_20
REMARK    2  A    between atoms: N_3  and  C_4
REMARK    3  A    between atoms: C_4  and  C_5
REMARK    4  A    between atoms: C_8  and  C_9
REMARK    5  A    between atoms: C_9  and  N_10
REMARK    6  A    between atoms: N_10  and  C_11
REMARK    7  A    between atoms: C_11  and  C_12
REMARK                            x       y       z     vdW  Elec       q    Type
REMARK                         _______ _______ _______ _____ _____    ______ ____
ROOT
ATOM      1  C   UNL     1      47.774   7.367  13.752  0.00  0.00    +0.000 C 
ENDROOT
BRANCH   1   2
ATOM      2  C   UNL     1      47.809   6.180  12.779  0.00  0.00    +0.000 C 
ATOM      3  C   UNL     1      47.072   4.945  13.331  0.00  0.00    +0.000 C 
ATOM      4  C   UNL     1      45.552   5.118  13.363  0.00  0.00    +0.000 C 
ATOM      5  C   UNL     1      44.973   5.559  12.006  0.00  0.00    +0.000 C 
ATOM      6  C   UNL     1      45.711   6.804  11.486  0.00  0.00    +0.000 C 
ATOM      7  C   UNL     1      47.225   6.593  11.422  0.00  0.00    +0.000 C 
BRANCH   5   8
ATOM      8  C   UNL     1      45.018   4.441  10.944  0.00  0.00    +0.000 C 
BRANCH   8   9
ATOM      9  N   UNL     1      44.997   4.995   9.595  0.00  0.00    +0.000 NA
ATOM     10  H   UNL     1      45.942   5.240   9.303  0.00  0.00    +0.000 HD
BRANCH   9  11
ATOM     11  C   UNL     1      44.428   4.035   8.652  0.00  0.00    +0.000 C 
BRANCH  11  12
ATOM     12  C   UNL     1      45.491   3.116   8.126  0.00  0.00    +0.000 A 
ATOM     13  C   UNL     1      46.463   3.562   7.225  0.00  0.00    +0.000 A 
ATOM     14  C   UNL     1      47.435   2.682   6.766  0.00  0.00    +0.000 A 
ATOM     15  C   UNL     1      47.399   1.375   7.223  0.00  0.00    +0.000 A 
ATOM     16  N   UNL     1      46.473   0.901   8.084  0.00  0.00    +0.000 NA
ATOM     17  C   UNL     1      45.543   1.781   8.514  0.00  0.00    +0.000 A 
ENDBRANCH  11  12
ENDBRANCH   9  11
ENDBRANCH   8   9
ENDBRANCH   5   8
ENDBRANCH   1   2
BRANCH   1  20
ATOM     18  O   UNL     1      49.895   7.889  15.576  0.00  0.00    +0.000 OA
ATOM     19  C   UNL     1      48.909   7.263  15.950  0.00  0.00    +0.000 C 
ATOM     20  N   UNL     1      47.872   6.936  15.121  0.00  0.00    +0.000 N 
ATOM     21  H   UNL     1      47.062   6.457  15.498  0.00  0.00    +0.000 HD
BRANCH  19  22
ATOM     22  C   UNL     1      48.777   6.775  17.322  0.00  0.00    +0.000 A 
ATOM     23  C   UNL     1      49.153   5.484  17.656  0.00  0.00    +0.000 A 
ATOM     24  S   UNL     1      48.942   5.123  19.310  0.00  0.00    +0.000 S 
ATOM     25  C   UNL     1      48.380   6.695  19.644  0.00  0.00    +0.000 A 
ATOM     26  N   UNL     1      48.056   7.075  20.908  0.00  0.00    +0.000 NA
ATOM     27  C   UNL     1      47.685   8.308  21.017  0.00  0.00    +0.000 A 
ATOM     28  N   UNL     1      47.589   9.195  19.974  0.00  0.00    +0.000 N 
ATOM     29  C   UNL     1      47.824   8.828  18.671  0.00  0.00    +0.000 A 
ATOM     30  O   UNL     1      47.570   9.603  17.754  0.00  0.00    +0.000 OA
ATOM     31  C   UNL     1      48.310   7.472  18.501  0.00  0.00    +0.000 A 
ATOM     32  H   UNL     1      47.248  10.131  20.116  0.00  0.00    +0.000 HD
ENDBRANCH  19  22
ENDBRANCH   1  20
TORSDOF 7
ENDMDL
MODEL 7
REMARK VINA RESULT:    -7.279      2.116      2.749
REMARK INTER + INTRA:         -11.096
REMARK INTER:                 -10.206
REMARK INTRA:                  -0.890
REMARK UNBOUND:                -0.838
REMARK  Name = 
REMARK  7 active torsions:
REMARK  status: ('A' for Active; 'I' for Inactive)
REMARK    1  A    between atoms: C_2  and  C_20
REMARK    2  A    between atoms: N_3  and  C_4
REMARK    3  A    between atoms: C_4  and  C_5
REMARK    4  A    between atoms: C_8  and  C_9
REMARK    5  A    between atoms: C_9  and  N_10
REMARK    6  A    between atoms: N_10  and  C_11
REMARK    7  A    between atoms: C_11  and  C_12
REMARK                            x       y       z     vdW  Elec       q    Type
REMARK                         _______ _______ _______ _____ _____    ______ ____
ROOT
ATOM      1  C   UNL     1      47.517   5.486  14.141  0.00  0.00    +0.000 C 
ENDROOT
BRANCH   1   2
ATOM      2  C   UNL     1      46.069   5.776  13.722  0.00  0.00    +0.000 C 
ATOM      3  C   UNL     1      45.984   6.747  12.529  0.00  0.00    +0.000 C 
ATOM      4  C   UNL     1      46.439   6.118  11.211  0.00  0.00    +0.000 C 
ATOM      5  C   UNL     1      45.726   4.788  10.905  0.00  0.00    +0.000 C 
ATOM      6  C   UNL     1      45.842   3.829  12.102  0.00  0.00    +0.000 C 
ATOM      7  C   UNL     1      45.340   4.463  13.401  0.00  0.00    +0.000 C 
BRANCH   5   8
ATOM      8  C   UNL     1      44.243   4.979  10.527  0.00  0.00    +0.000 C 
BRANCH   8   9
ATOM      9  N   UNL     1      43.949   4.379   9.231  0.00  0.00    +0.000 NA
ATOM     10  H   UNL     1      44.482   4.848   8.500  0.00  0.00    +0.000 HD
BRANCH   9  11
ATOM     11  C   UNL     1      44.274   2.954   9.234  0.00  0.00    +0.000 C 
BRANCH  11  12
ATOM     12  C   UNL     1      45.411   2.668   8.297  0.00  0.00    +0.000 A 
ATOM     13  C   UNL     1      46.065   1.433   8.299  0.00  0.00    +0.000 A 
ATOM     14  C   UNL     1      47.109   1.204   7.411  0.00  0.00    +0.000 A 
ATOM     15  C   UNL     1      47.468   2.226   6.548  0.00  0.00    +0.000 A 
ATOM     16  N   UNL     1      46.868   3.435   6.520  0.00  0.00    +0.000 NA
ATOM     17  C   UNL     1      45.856   3.628   7.394  0.00  0.00    +0.000 A 
ENDBRANCH  11  12
ENDBRANCH   9  11
ENDBRANCH   8   9
ENDBRANCH   5   8
ENDBRANCH   1   2
BRANCH   1  20
ATOM     18  O   UNL     1      47.005   3.770  16.352  0.00  0.00    +0.000 OA
ATOM     19  C   UNL     1      47.502   4.875  16.540  0.00  0.00    +0.000 C 
ATOM     20  N   UNL     1      47.736   5.770  15.534  0.00  0.00    +0.000 N 
ATOM     21  H   UNL     1      48.192   6.651  15.743  0.00  0.00    +0.000 HD
BRANCH  19  22
ATOM     22  C   UNL     1      47.855   5.347  17.878  0.00  0.00    +0.000 A 
ATOM     23  C   UNL     1      46.874   5.590  18.827  0.00  0.00    +0.000 A 
ATOM     24  S   UNL     1      47.498   6.110  20.327  0.00  0.00    +0.000 S 
ATOM     25  C   UNL     1      49.102   5.988  19.772  0.00  0.00    +0.000 A 
ATOM     26  N   UNL     1      50.155   6.254  20.590  0.00  0.00    +0.000 NA
ATOM     27  C   UNL     1      51.313   6.079  20.045  0.00  0.00    +0.000 A 
ATOM     28  N   UNL     1      51.520   5.679  18.749  0.00  0.00    +0.000 N 
ATOM     29  C   UNL     1      50.486   5.483  17.865  0.00  0.00    +0.000 A 
ATOM     30  O   UNL     1      50.716   5.286  16.676  0.00  0.00    +0.000 OA
ATOM     31  C   UNL     1      49.162   5.600  18.445  0.00  0.00    +0.000 A 
ATOM     32  H   UNL     1      52.448   5.606  18.367  0.00  0.00    +0.000 HD
ENDBRANCH  19  22
ENDBRANCH   1  20
TORSDOF 7
ENDMDL
MODEL 8
REMARK VINA RESULT:    -7.250      3.157      4.274
REMARK INTER + INTRA:         -11.055
REMARK INTER:                 -10.454
REMARK INTRA:                  -0.602
REMARK UNBOUND:                -0.838
REMARK  Name = 
REMARK  7 active torsions:
REMARK  status: ('A' for Active; 'I' for Inactive)
REMARK    1  A    between atoms: C_2  and  C_20
REMARK    2  A    between atoms: N_3  and  C_4
REMARK    3  A    between atoms: C_4  and  C_5
REMARK    4  A    between atoms: C_8  and  C_9
REMARK    5  A    between atoms: C_9  and  N_10
REMARK    6  A    between atoms: N_10  and  C_11
REMARK    7  A    between atoms: C_11  and  C_12
REMARK                            x       y       z     vdW  Elec       q    Type
REMARK                         _______ _______ _______ _____ _____    ______ ____
ROOT
ATOM      1  C   UNL     1      46.393   6.965  12.709  0.00  0.00    +0.000 C 
ENDROOT
BRANCH   1   2
ATOM      2  C   UNL     1      46.326   5.509  12.231  0.00  0.00    +0.000 C 
ATOM      3  C   UNL     1      45.567   4.600  13.217  0.00  0.00    +0.000 C 
ATOM      4  C   UNL     1      44.060   4.862  13.236  0.00  0.00    +0.000 C 
ATOM      5  C   UNL     1      43.428   4.819  11.832  0.00  0.00    +0.000 C 
ATOM      6  C   UNL     1      44.190   5.749  10.872  0.00  0.00    +0.000 C 
ATOM      7  C   UNL     1      45.688   5.440  10.836  0.00  0.00    +0.000 C 
BRANCH   5   8
ATOM      8  C   UNL     1      43.370   3.394  11.246  0.00  0.00    +0.000 C 
BRANCH   8   9
ATOM      9  N   UNL     1      43.773   3.384   9.844  0.00  0.00    +0.000 NA
ATOM     10  H   UNL     1      44.378   4.181   9.649  0.00  0.00    +0.000 HD
BRANCH   9  11
ATOM     11  C   UNL     1      44.476   2.146   9.517  0.00  0.00    +0.000 C 
BRANCH  11  12
ATOM     12  C   UNL     1      45.495   2.384   8.441  0.00  0.00    +0.000 A 
ATOM     13  C   UNL     1      46.390   1.383   8.049  0.00  0.00    +0.000 A 
ATOM     14  C   UNL     1      47.314   1.640   7.044  0.00  0.00    +0.000 A 
ATOM     15  C   UNL     1      47.316   2.898   6.465  0.00  0.00    +0.000 A 
ATOM     16  N   UNL     1      46.476   3.894   6.821  0.00  0.00    +0.000 NA
ATOM     17  C   UNL     1      45.587   3.614   7.799  0.00  0.00    +0.000 A 
ENDBRANCH  11  12
ENDBRANCH   9  11
ENDBRANCH   8   9
ENDBRANCH   5   8
ENDBRANCH   1   2
BRANCH   1  20
ATOM     18  O   UNL     1      49.102   6.403  13.373  0.00  0.00    +0.000 OA
ATOM     19  C   UNL     1      48.337   6.823  14.235  0.00  0.00    +0.000 C 
ATOM     20  N   UNL     1      47.014   7.073  14.002  0.00  0.00    +0.000 N 
ATOM     21  H   UNL     1      46.441   7.464  14.742  0.00  0.00    +0.000 HD
BRANCH  19  22
ATOM     22  C   UNL     1      48.775   7.058  15.610  0.00  0.00    +0.000 A 
ATOM     23  C   UNL     1      48.982   5.999  16.480  0.00  0.00    +0.000 A 
ATOM     24  S   UNL     1      49.514   6.487  18.026  0.00  0.00    +0.000 S 
ATOM     25  C   UNL     1      49.526   8.127  17.571  0.00  0.00    +0.000 A 
ATOM     26  N   UNL     1      49.933   9.096  18.434  0.00  0.00    +0.000 NA
ATOM     27  C   UNL     1      49.930  10.289  17.938  0.00  0.00    +0.000 A 
ATOM     28  N   UNL     1      49.539  10.609  16.663  0.00  0.00    +0.000 N 
ATOM     29  C   UNL     1      49.040   9.673  15.789  0.00  0.00    +0.000 A 
ATOM     30  O   UNL     1      48.551  10.023  14.719  0.00  0.00    +0.000 OA
ATOM     31  C   UNL     1      49.086   8.306  16.272  0.00  0.00    +0.000 A 
ATOM     32  H   UNL     1      49.513  11.565  16.349  0.00  0.00    +0.000 HD
ENDBRANCH  19  22
ENDBRANCH   1  20
TORSDOF 7
ENDMDL
MODEL 9
REMARK VINA RESULT:    -7.172      4.083      5.057
REMARK INTER + INTRA:         -10.945
REMARK INTER:                  -9.776
REMARK INTRA:                  -1.169
REMARK UNBOUND:                -0.838
REMARK  Name = 
REMARK  7 active torsions:
REMARK  status: ('A' for Active; 'I' for Inactive)
REMARK    1  A    between atoms: C_2  and  C_20
REMARK    2  A    between atoms: N_3  and  C_4
REMARK    3  A    between atoms: C_4  and  C_5
REMARK    4  A    between atoms: C_8  and  C_9
REMARK    5  A    between atoms: C_9  and  N_10
REMARK    6  A    between atoms: N_10  and  C_11
REMARK    7  A    between atoms: C_11  and  C_12
REMARK                            x       y       z     vdW  Elec       q    Type
REMARK                         _______ _______ _______ _____ _____    ______ ____
ROOT
ATOM      1  C   UNL     1      45.821   7.871  12.371  0.00  0.00    +0.000 C 
ENDROOT
BRANCH   1   2
ATOM      2  C   UNL     1      45.486   6.477  12.918  0.00  0.00    +0.000 C 
ATOM      3  C   UNL     1      43.977   6.172  12.866  0.00  0.00    +0.000 C 
ATOM      4  C   UNL     1      43.458   5.947  11.444  0.00  0.00    +0.000 C 
ATOM      5  C   UNL     1      44.272   4.893  10.671  0.00  0.00    +0.000 C 
ATOM      6  C   UNL     1      45.772   5.230  10.720  0.00  0.00    +0.000 C 
ATOM      7  C   UNL     1      46.278   5.407  12.153  0.00  0.00    +0.000 C 
BRANCH   5   8
ATOM      8  C   UNL     1      44.039   3.459  11.190  0.00  0.00    +0.000 C 
BRANCH   8   9
ATOM      9  N   UNL     1      44.959   2.517  10.564  0.00  0.00    +0.000 NA
ATOM     10  H   UNL     1      45.037   1.675  11.133  0.00  0.00    +0.000 HD
BRANCH   9  11
ATOM     11  C   UNL     1      44.501   2.160   9.224  0.00  0.00    +0.000 C 
BRANCH  11  12
ATOM     12  C   UNL     1      45.598   2.355   8.219  0.00  0.00    +0.000 A 
ATOM     13  C   UNL     1      46.532   1.349   7.952  0.00  0.00    +0.000 A 
ATOM     14  C   UNL     1      47.529   1.567   7.009  0.00  0.00    +0.000 A 
ATOM     15  C   UNL     1      47.562   2.792   6.365  0.00  0.00    +0.000 A 
ATOM     16  N   UNL     1      46.686   3.792   6.600  0.00  0.00    +0.000 NA
ATOM     17  C   UNL     1      45.726   3.551   7.520  0.00  0.00    +0.000 A 
ENDBRANCH  11  12
ENDBRANCH   9  11
ENDBRANCH   8   9
ENDBRANCH   5   8
ENDBRANCH   1   2
BRANCH   1  20
ATOM     18  O   UNL     1      47.191  10.362  12.245  0.00  0.00    +0.000 OA
ATOM     19  C   UNL     1      47.829   9.316  12.269  0.00  0.00    +0.000 C 
ATOM     20  N   UNL     1      47.242   8.082  12.285  0.00  0.00    +0.000 N 
ATOM     21  H   UNL     1      47.821   7.252  12.352  0.00  0.00    +0.000 HD
BRANCH  19  22
ATOM     22  C   UNL     1      49.292   9.301  12.244  0.00  0.00    +0.000 A 
ATOM     23  C   UNL     1      49.992  10.014  11.284  0.00  0.00    +0.000 A 
ATOM     24  S   UNL     1      51.686   9.883  11.446  0.00  0.00    +0.000 S 
ATOM     25  C   UNL     1      51.539   8.902  12.829  0.00  0.00    +0.000 A 
ATOM     26  N   UNL     1      52.635   8.465  13.504  0.00  0.00    +0.000 NA
ATOM     27  C   UNL     1      52.370   7.765  14.558  0.00  0.00    +0.000 A 
ATOM     28  N   UNL     1      51.109   7.445  14.992  0.00  0.00    +0.000 N 
ATOM     29  C   UNL     1      49.979   7.794  14.293  0.00  0.00    +0.000 A 
ATOM     30  O   UNL     1      48.883   7.351  14.625  0.00  0.00    +0.000 OA
ATOM     31  C   UNL     1      50.217   8.639  13.138  0.00  0.00    +0.000 A 
ATOM     32  H   UNL     1      50.968   6.855  15.796  0.00  0.00    +0.000 HD
ENDBRANCH  19  22
ENDBRANCH   1  20
TORSDOF 7
ENDMDL
