MODEL 1
REMARK VINA RESULT:    -7.485      0.000      0.000
REMARK INTER + INTRA:         -11.128
REMARK INTER:                 -10.548
REMARK INTRA:                  -0.580
REMARK UNBOUND:                -0.580
REMARK  Name = 
REMARK  8 active torsions:
REMARK  status: ('A' for Active; 'I' for Inactive)
REMARK    1  A    between atoms: N_1  and  C_2
REMARK    2  A    between atoms: C_2  and  C_3
REMARK    3  A    between atoms: C_6  and  C_7
REMARK    4  A    between atoms: C_7  and  N_8
REMARK    5  A    between atoms: N_8  and  C_9
REMARK    6  A    between atoms: N_8  and  C_12
REMARK    7  A    between atoms: C_9  and  C_10
REMARK    8  A    between atoms: C_10  and  O_11
REMARK                            x       y       z     vdW  Elec       q    Type
REMARK                         _______ _______ _______ _____ _____    ______ ____
ROOT
ATOM      1  C   UNL     1      44.072   4.354  10.004  0.00  0.00    +0.000 C 
ENDROOT
BRANCH   1   5
ATOM      2  C   UNL     1      46.754   2.088   7.502  0.00  0.00    +0.000 A 
ATOM      3  C   UNL     1      46.577   3.463   7.293  0.00  0.00    +0.000 A 
ATOM      4  C   UNL     1      45.618   4.174   8.014  0.00  0.00    +0.000 A 
ATOM      5  C   UNL     1      44.816   3.528   8.966  0.00  0.00    +0.000 A 
ATOM      6  C   UNL     1      44.897   2.131   9.072  0.00  0.00    +0.000 A 
ATOM      7  C   UNL     1      45.859   1.419   8.349  0.00  0.00    +0.000 A 
BRANCH   2   8
ATOM      8  C   UNL     1      47.920   1.369   6.868  0.00  0.00    +0.000 C 
BRANCH   8   9
ATOM      9  N   UNL     1      48.319   2.030   5.623  0.00  0.00    +0.000 NA
ATOM     10  H   UNL     1      47.529   2.058   4.984  0.00  0.00    +0.000 HD
ATOM     11  H   UNL     1      49.038   1.462   5.173  0.00  0.00    +0.000 HD
ENDBRANCH   8   9
ENDBRANCH   2   8
ENDBRANCH   1   5
BRANCH   1  12
ATOM     12  N   UNL     1      44.444   4.062  11.399  0.00  0.00    +0.000 N 
BRANCH  12  13
ATOM     13  C   UNL     1      45.561   4.774  11.936  0.00  0.00    +0.000 A 
ATOM     14  C   UNL     1      46.080   5.960  11.391  0.00  0.00    +0.000 A 
ATOM     15  C   UNL     1      47.089   6.688  12.036  0.00  0.00    +0.000 A 
ATOM     16  C   UNL     1      47.595   6.256  13.255  0.00  0.00    +0.000 A 
ATOM     17  C   UNL     1      47.104   5.085  13.821  0.00  0.00    +0.000 A 
ATOM     18  C   UNL     1      46.112   4.349  13.162  0.00  0.00    +0.000 A 
ENDBRANCH  12  13
BRANCH  12  19
ATOM     19  C   UNL     1      43.360   4.123  12.433  0.00  0.00    +0.000 C 
BRANCH  19  20
ATOM     20  C   UNL     1      42.817   5.506  12.822  0.00  0.00    +0.000 C 
BRANCH  20  21
ATOM     21  O   UNL     1      41.981   6.042  11.797  0.00  0.00    +0.000 OA
ATOM     22  H   UNL     1      41.381   5.334  11.508  0.00  0.00    +0.000 HD
ENDBRANCH  20  21
ENDBRANCH  19  20
ENDBRANCH  12  19
ENDBRANCH   1  12
TORSDOF 8
ENDMDL
MODEL 2
REMARK VINA RESULT:    -7.476      1.187      1.650
REMARK INTER + INTRA:         -11.116
REMARK INTER:                 -10.399
REMARK INTRA:                  -0.717
REMARK UNBOUND:                -0.580
REMARK  Name = 
REMARK  8 active torsions:
REMARK  status: ('A' for Active; 'I' for Inactive)
REMARK    1  A    between atoms: N_1  and  C_2
REMARK    2  A    between atoms: C_2  and  C_3
REMARK    3  A    between atoms: C_6  and  C_7
REMARK    4  A    between atoms: C_7  and  N_8
REMARK    5  A    between atoms: N_8  and  C_9
REMARK    6  A    between atoms: N_8  and  C_12
REMARK    7  A    between atoms: C_9  and  C_10
REMARK    8  A    between atoms: C_10  and  O_11
REMARK                            x       y       z     vdW  Elec       q    Type
REMARK                         _______ _______ _______ _____ _____    ______ ____
ROOT
ATOM      1  C   UNL     1      44.298   4.729  10.354  0.00  0.00    +0.000 C 
ENDROOT
BRANCH   1   5
ATOM      2  C   UNL     1      46.561   2.308   7.597  0.00  0.00    +0.000 A 
ATOM      3  C   UNL     1      46.409   3.684   7.376  0.00  0.00    +0.000 A 
ATOM      4  C   UNL     1      45.575   4.447   8.192  0.00  0.00    +0.000 A 
ATOM      5  C   UNL     1      44.876   3.854   9.254  0.00  0.00    +0.000 A 
ATOM      6  C   UNL     1      44.919   2.457   9.385  0.00  0.00    +0.000 A 
ATOM      7  C   UNL     1      45.756   1.692   8.565  0.00  0.00    +0.000 A 
BRANCH   2   8
ATOM      8  C   UNL     1      47.612   1.532   6.841  0.00  0.00    +0.000 C 
BRANCH   8   9
ATOM      9  N   UNL     1      48.657   2.428   6.340  0.00  0.00    +0.000 NA
ATOM     10  H   UNL     1      48.484   3.372   6.673  0.00  0.00    +0.000 HD
ATOM     11  H   UNL     1      48.592   2.460   5.321  0.00  0.00    +0.000 HD
ENDBRANCH   8   9
ENDBRANCH   2   8
ENDBRANCH   1   5
BRANCH   1  12
ATOM     12  N   UNL     1      45.219   4.991  11.473  0.00  0.00    +0.000 N 
BRANCH  12  13
ATOM     13  C   UNL     1      45.695   6.332  11.623  0.00  0.00    +0.000 A 
ATOM     14  C   UNL     1      44.864   7.461  11.708  0.00  0.00    +0.000 A 
ATOM     15  C   UNL     1      45.378   8.734  11.991  0.00  0.00    +0.000 A 
ATOM     16  C   UNL     1      46.738   8.907  12.213  0.00  0.00    +0.000 A 
ATOM     17  C   UNL     1      47.587   7.810  12.135  0.00  0.00    +0.000 A 
ATOM     18  C   UNL     1      47.072   6.545  11.830  0.00  0.00    +0.000 A 
ENDBRANCH  12  13
BRANCH  12  19
ATOM     19  C   UNL     1      44.801   4.531  12.838  0.00  0.00    +0.000 C 
BRANCH  19  20
ATOM     20  C   UNL     1      43.315   4.216  13.066  0.00  0.00    +0.000 C 
BRANCH  20  21
ATOM     21  O   UNL     1      42.586   5.388  13.428  0.00  0.00    +0.000 OA
ATOM     22  H   UNL     1      41.998   5.151  14.165  0.00  0.00    +0.000 HD
ENDBRANCH  20  21
ENDBRANCH  19  20
ENDBRANCH  12  19
ENDBRANCH   1  12
TORSDOF 8
ENDMDL
MODEL 3
REMARK VINA RESULT:    -6.496      2.035      5.969
REMARK INTER + INTRA:          -9.735
REMARK INTER:                  -8.993
REMARK INTRA:                  -0.741
REMARK UNBOUND:                -0.580
REMARK  Name = 
REMARK  8 active torsions:
REMARK  status: ('A' for Active; 'I' for Inactive)
REMARK    1  A    between atoms: N_1  and  C_2
REMARK    2  A    between atoms: C_2  and  C_3
REMARK    3  A    between atoms: C_6  and  C_7
REMARK    4  A    between atoms: C_7  and  N_8
REMARK    5  A    between atoms: N_8  and  C_9
REMARK    6  A    between atoms: N_8  and  C_12
REMARK    7  A    between atoms: C_9  and  C_10
REMARK    8  A    between atoms: C_10  and  O_11
REMARK                            x       y       z     vdW  Elec       q    Type
REMARK                         _______ _______ _______ _____ _____    ______ ____
ROOT
ATOM      1  C   UNL     1      45.369   4.367  12.240  0.00  0.00    +0.000 C 
ENDROOT
BRANCH   1   5
ATOM      2  C   UNL     1      47.755   7.690  13.604  0.00  0.00    +0.000 A 
ATOM      3  C   UNL     1      47.009   7.787  12.420  0.00  0.00    +0.000 A 
ATOM      4  C   UNL     1      46.339   6.677  11.909  0.00  0.00    +0.000 A 
ATOM      5  C   UNL     1      46.393   5.442  12.571  0.00  0.00    +0.000 A 
ATOM      6  C   UNL     1      47.252   5.310  13.673  0.00  0.00    +0.000 A 
ATOM      7  C   UNL     1      47.924   6.425  14.186  0.00  0.00    +0.000 A 
BRANCH   2   8
ATOM      8  C   UNL     1      48.309   8.934  14.254  0.00  0.00    +0.000 C 
BRANCH   8   9
ATOM      9  N   UNL     1      47.609   9.217  15.509  0.00  0.00    +0.000 NA
ATOM     10  H   UNL     1      48.204   9.780  16.111  0.00  0.00    +0.000 HD
ATOM     11  H   UNL     1      47.452   8.334  15.997  0.00  0.00    +0.000 HD
ENDBRANCH   8   9
ENDBRANCH   2   8
ENDBRANCH   1   5
BRANCH   1  12
ATOM     12  N   UNL     1      44.585   4.626  11.020  0.00  0.00    +0.000 N 
BRANCH  12  13
ATOM     13  C   UNL     1      44.998   3.954   9.827  0.00  0.00    +0.000 A 
ATOM     14  C   UNL     1      45.616   4.588   8.736  0.00  0.00    +0.000 A 
ATOM     15  C   UNL     1      46.122   3.859   7.652  0.00  0.00    +0.000 A 
ATOM     16  C   UNL     1      46.039   2.473   7.638  0.00  0.00    +0.000 A 
ATOM     17  C   UNL     1      45.433   1.815   8.702  0.00  0.00    +0.000 A 
ATOM     18  C   UNL     1      44.907   2.549   9.772  0.00  0.00    +0.000 A 
ENDBRANCH  12  13
BRANCH  12  19
ATOM     19  C   UNL     1      43.096   4.466  11.106  0.00  0.00    +0.000 C 
BRANCH  19  20
ATOM     20  C   UNL     1      42.286   5.613  11.728  0.00  0.00    +0.000 C 
BRANCH  20  21
ATOM     21  O   UNL     1      42.666   6.874  11.178  0.00  0.00    +0.000 OA
ATOM     22  H   UNL     1      42.688   6.778  10.211  0.00  0.00    +0.000 HD
ENDBRANCH  20  21
ENDBRANCH  19  20
ENDBRANCH  12  19
ENDBRANCH   1  12
TORSDOF 8
ENDMDL
MODEL 4
REMARK VINA RESULT:    -5.757      2.371      3.319
REMARK INTER + INTRA:          -8.693
REMARK INTER:                  -8.065
REMARK INTRA:                  -0.627
REMARK UNBOUND:                -0.580
REMARK  Name = 
REMARK  8 active torsions:
REMARK  status: ('A' for Active; 'I' for Inactive)
REMARK    1  A    between atoms: N_1  and  C_2
REMARK    2  A    between atoms: C_2  and  C_3
REMARK    3  A    between atoms: C_6  and  C_7
REMARK    4  A    between atoms: C_7  and  N_8
REMARK    5  A    between atoms: N_8  and  C_9
REMARK    6  A    between atoms: N_8  and  C_12
REMARK    7  A    between atoms: C_9  and  C_10
REMARK    8  A    between atoms: C_10  and  O_11
REMARK                            x       y       z     vdW  Elec       q    Type
REMARK                         _______ _______ _______ _____ _____    ______ ____
ROOT
ATOM      1  C   UNL     1      45.205   5.187  12.146  0.00  0.00    +0.000 C 
ENDROOT
BRANCH   1   5
ATOM      2  C   UNL     1      45.697   3.467   8.223  0.00  0.00    +0.000 A 
ATOM      3  C   UNL     1      45.921   4.836   8.434  0.00  0.00    +0.000 A 
ATOM      4  C   UNL     1      45.641   5.420   9.668  0.00  0.00    +0.000 A 
ATOM      5  C   UNL     1      45.136   4.649  10.726  0.00  0.00    +0.000 A 
ATOM      6  C   UNL     1      44.780   3.316  10.471  0.00  0.00    +0.000 A 
ATOM      7  C   UNL     1      45.061   2.730   9.232  0.00  0.00    +0.000 A 
BRANCH   2   8
ATOM      8  C   UNL     1      46.186   2.806   6.958  0.00  0.00    +0.000 C 
BRANCH   8   9
ATOM      9  N   UNL     1      46.836   3.783   6.081  0.00  0.00    +0.000 NA
ATOM     10  H   UNL     1      47.202   4.550   6.639  0.00  0.00    +0.000 HD
ATOM     11  H   UNL     1      46.129   4.182   5.463  0.00  0.00    +0.000 HD
ENDBRANCH   8   9
ENDBRANCH   2   8
ENDBRANCH   1   5
BRANCH   1  12
ATOM     12  N   UNL     1      46.479   5.843  12.489  0.00  0.00    +0.000 N 
BRANCH  12  13
ATOM     13  C   UNL     1      46.508   7.272  12.438  0.00  0.00    +0.000 A 
ATOM     14  C   UNL     1      47.671   8.032  12.231  0.00  0.00    +0.000 A 
ATOM     15  C   UNL     1      47.621   9.421  12.055  0.00  0.00    +0.000 A 
ATOM     16  C   UNL     1      46.401  10.086  12.064  0.00  0.00    +0.000 A 
ATOM     17  C   UNL     1      45.232   9.363  12.267  0.00  0.00    +0.000 A 
ATOM     18  C   UNL     1      45.289   7.978  12.466  0.00  0.00    +0.000 A 
ENDBRANCH  12  13
BRANCH  12  19
ATOM     19  C   UNL     1      47.137   5.448  13.777  0.00  0.00    +0.000 C 
BRANCH  19  20
ATOM     20  C   UNL     1      46.977   3.995  14.250  0.00  0.00    +0.000 C 
BRANCH  20  21
ATOM     21  O   UNL     1      46.841   3.924  15.669  0.00  0.00    +0.000 OA
ATOM     22  H   UNL     1      45.891   3.882  15.871  0.00  0.00    +0.000 HD
ENDBRANCH  20  21
ENDBRANCH  19  20
ENDBRANCH  12  19
ENDBRANCH   1  12
TORSDOF 8
ENDMDL
MODEL 5
REMARK VINA RESULT:    -5.418      2.394      6.138
REMARK INTER + INTRA:          -8.215
REMARK INTER:                  -7.557
REMARK INTRA:                  -0.658
REMARK UNBOUND:                -0.580
REMARK  Name = 
REMARK  8 active torsions:
REMARK  status: ('A' for Active; 'I' for Inactive)
REMARK    1  A    between atoms: N_1  and  C_2
REMARK    2  A    between atoms: C_2  and  C_3
REMARK    3  A    between atoms: C_6  and  C_7
REMARK    4  A    between atoms: C_7  and  N_8
REMARK    5  A    between atoms: N_8  and  C_9
REMARK    6  A    between atoms: N_8  and  C_12
REMARK    7  A    between atoms: C_9  and  C_10
REMARK    8  A    between atoms: C_10  and  O_11
REMARK                            x       y       z     vdW  Elec       q    Type
REMARK                         _______ _______ _______ _____ _____    ______ ____
ROOT
ATOM      1  C   UNL     1      45.386   4.398  12.844  0.00  0.00    +0.000 C 
ENDROOT
BRANCH   1   5
ATOM      2  C   UNL     1      48.447   6.021  15.411  0.00  0.00    +0.000 A 
ATOM      3  C   UNL     1      48.294   6.493  14.099  0.00  0.00    +0.000 A 
ATOM      4  C   UNL     1      47.393   5.885  13.226  0.00  0.00    +0.000 A 
ATOM      5  C   UNL     1      46.617   4.794  13.644  0.00  0.00    +0.000 A 
ATOM      6  C   UNL     1      46.873   4.236  14.906  0.00  0.00    +0.000 A 
ATOM      7  C   UNL     1      47.778   4.846  15.781  0.00  0.00    +0.000 A 
BRANCH   2   8
ATOM      8  C   UNL     1      49.271   6.802  16.405  0.00  0.00    +0.000 C 
BRANCH   8   9
ATOM      9  N   UNL     1      50.692   6.472  16.272  0.00  0.00    +0.000 NA
ATOM     10  H   UNL     1      50.842   5.957  15.409  0.00  0.00    +0.000 HD
ATOM     11  H   UNL     1      50.950   5.845  17.035  0.00  0.00    +0.000 HD
ENDBRANCH   8   9
ENDBRANCH   2   8
ENDBRANCH   1   5
BRANCH   1  12
ATOM     12  N   UNL     1      45.196   5.160  11.598  0.00  0.00    +0.000 N 
BRANCH  12  13
ATOM     13  C   UNL     1      45.133   4.410  10.381  0.00  0.00    +0.000 A 
ATOM     14  C   UNL     1      45.605   4.873   9.141  0.00  0.00    +0.000 A 
ATOM     15  C   UNL     1      45.641   4.045   8.012  0.00  0.00    +0.000 A 
ATOM     16  C   UNL     1      45.221   2.724   8.097  0.00  0.00    +0.000 A 
ATOM     17  C   UNL     1      44.748   2.235   9.309  0.00  0.00    +0.000 A 
ATOM     18  C   UNL     1      44.692   3.073  10.429  0.00  0.00    +0.000 A 
ENDBRANCH  12  13
BRANCH  12  19
ATOM     19  C   UNL     1      44.067   6.144  11.552  0.00  0.00    +0.000 C 
BRANCH  19  20
ATOM     20  C   UNL     1      42.767   5.781  12.286  0.00  0.00    +0.000 C 
BRANCH  20  21
ATOM     21  O   UNL     1      41.801   5.235  11.389  0.00  0.00    +0.000 OA
ATOM     22  H   UNL     1      41.137   5.924  11.217  0.00  0.00    +0.000 HD
ENDBRANCH  20  21
ENDBRANCH  19  20
ENDBRANCH  12  19
ENDBRANCH   1  12
TORSDOF 8
ENDMDL
MODEL 6
REMARK VINA RESULT:    -5.349      2.731      4.063
REMARK INTER + INTRA:          -8.117
REMARK INTER:                  -7.479
REMARK INTRA:                  -0.638
REMARK UNBOUND:                -0.580
REMARK  Name = 
REMARK  8 active torsions:
REMARK  status: ('A' for Active; 'I' for Inactive)
REMARK    1  A    between atoms: N_1  and  C_2
REMARK    2  A    between atoms: C_2  and  C_3
REMARK    3  A    between atoms: C_6  and  C_7
REMARK    4  A    between atoms: C_7  and  N_8
REMARK    5  A    between atoms: N_8  and  C_9
REMARK    6  A    between atoms: N_8  and  C_12
REMARK    7  A    between atoms: C_9  and  C_10
REMARK    8  A    between atoms: C_10  and  O_11
REMARK                            x       y       z     vdW  Elec       q    Type
REMARK                         _______ _______ _______ _____ _____    ______ ____
ROOT
ATOM      1  C   UNL     1      45.341   6.473  12.354  0.00  0.00    +0.000 C 
ENDROOT
BRANCH   1   5
ATOM      2  C   UNL     1      44.633   3.102   9.761  0.00  0.00    +0.000 A 
ATOM      3  C   UNL     1      45.311   4.234   9.287  0.00  0.00    +0.000 A 
ATOM      4  C   UNL     1      45.430   5.375  10.080  0.00  0.00    +0.000 A 
ATOM      5  C   UNL     1      44.880   5.410  11.370  0.00  0.00    +0.000 A 
ATOM      6  C   UNL     1      44.082   4.333  11.786  0.00  0.00    +0.000 A 
ATOM      7  C   UNL     1      43.963   3.189  10.989  0.00  0.00    +0.000 A 
BRANCH   2   8
ATOM      8  C   UNL     1      44.679   1.811   8.981  0.00  0.00    +0.000 C 
BRANCH   8   9
ATOM      9  N   UNL     1      46.007   1.606   8.398  0.00  0.00    +0.000 NA
ATOM     10  H   UNL     1      46.337   0.672   8.623  0.00  0.00    +0.000 HD
ATOM     11  H   UNL     1      46.656   2.260   8.836  0.00  0.00    +0.000 HD
ENDBRANCH   8   9
ENDBRANCH   2   8
ENDBRANCH   1   5
BRANCH   1  12
ATOM     12  N   UNL     1      46.803   6.632  12.442  0.00  0.00    +0.000 N 
BRANCH  12  13
ATOM     13  C   UNL     1      47.339   7.913  12.101  0.00  0.00    +0.000 A 
ATOM     14  C   UNL     1      46.640   9.124  12.235  0.00  0.00    +0.000 A 
ATOM     15  C   UNL     1      47.261  10.361  12.015  0.00  0.00    +0.000 A 
ATOM     16  C   UNL     1      48.605  10.419  11.671  0.00  0.00    +0.000 A 
ATOM     17  C   UNL     1      49.325   9.239  11.529  0.00  0.00    +0.000 A 
ATOM     18  C   UNL     1      48.695   8.005  11.727  0.00  0.00    +0.000 A 
ENDBRANCH  12  13
BRANCH  12  19
ATOM     19  C   UNL     1      47.470   6.214  13.718  0.00  0.00    +0.000 C 
BRANCH  19  20
ATOM     20  C   UNL     1      47.056   4.872  14.339  0.00  0.00    +0.000 C 
BRANCH  20  21
ATOM     21  O   UNL     1      47.861   4.558  15.476  0.00  0.00    +0.000 OA
ATOM     22  H   UNL     1      47.532   3.721  15.846  0.00  0.00    +0.000 HD
ENDBRANCH  20  21
ENDBRANCH  19  20
ENDBRANCH  12  19
ENDBRANCH   1  12
TORSDOF 8
ENDMDL
MODEL 7
REMARK VINA RESULT:    -5.301      3.399      6.806
REMARK INTER + INTRA:          -8.051
REMARK INTER:                  -7.373
REMARK INTRA:                  -0.678
REMARK UNBOUND:                -0.580
REMARK  Name = 
REMARK  8 active torsions:
REMARK  status: ('A' for Active; 'I' for Inactive)
REMARK    1  A    between atoms: N_1  and  C_2
REMARK    2  A    between atoms: C_2  and  C_3
REMARK    3  A    between atoms: C_6  and  C_7
REMARK    4  A    between atoms: C_7  and  N_8
REMARK    5  A    between atoms: N_8  and  C_9
REMARK    6  A    between atoms: N_8  and  C_12
REMARK    7  A    between atoms: C_9  and  C_10
REMARK    8  A    between atoms: C_10  and  O_11
REMARK                            x       y       z     vdW  Elec       q    Type
REMARK                         _______ _______ _______ _____ _____    ______ ____
ROOT
ATOM      1  C   UNL     1      47.491   6.250  12.493  0.00  0.00    +0.000 C 
ENDROOT
BRANCH   1   5
ATOM      2  C   UNL     1      48.222   4.849  16.505  0.00  0.00    +0.000 A 
ATOM      3  C   UNL     1      47.280   4.208  15.688  0.00  0.00    +0.000 A 
ATOM      4  C   UNL     1      46.949   4.732  14.439  0.00  0.00    +0.000 A 
ATOM      5  C   UNL     1      47.555   5.908  13.974  0.00  0.00    +0.000 A 
ATOM      6  C   UNL     1      48.388   6.623  14.848  0.00  0.00    +0.000 A 
ATOM      7  C   UNL     1      48.720   6.096  16.101  0.00  0.00    +0.000 A 
BRANCH   2   8
ATOM      8  C   UNL     1      48.721   4.174  17.759  0.00  0.00    +0.000 C 
BRANCH   8   9
ATOM      9  N   UNL     1      47.702   4.219  18.811  0.00  0.00    +0.000 NA
ATOM     10  H   UNL     1      47.186   5.092  18.748  0.00  0.00    +0.000 HD
ATOM     11  H   UNL     1      48.174   4.222  19.716  0.00  0.00    +0.000 HD
ENDBRANCH   8   9
ENDBRANCH   2   8
ENDBRANCH   1   5
BRANCH   1  12
ATOM     12  N   UNL     1      46.236   6.891  12.067  0.00  0.00    +0.000 N 
BRANCH  12  13
ATOM     13  C   UNL     1      45.138   6.029  11.758  0.00  0.00    +0.000 A 
ATOM     14  C   UNL     1      45.095   5.170  10.647  0.00  0.00    +0.000 A 
ATOM     15  C   UNL     1      44.054   4.249  10.468  0.00  0.00    +0.000 A 
ATOM     16  C   UNL     1      43.035   4.151  11.407  0.00  0.00    +0.000 A 
ATOM     17  C   UNL     1      43.048   4.987  12.517  0.00  0.00    +0.000 A 
ATOM     18  C   UNL     1      44.077   5.922  12.680  0.00  0.00    +0.000 A 
ENDBRANCH  12  13
BRANCH  12  19
ATOM     19  C   UNL     1      45.688   7.986  12.933  0.00  0.00    +0.000 C 
BRANCH  19  20
ATOM     20  C   UNL     1      45.571   9.392  12.325  0.00  0.00    +0.000 C 
BRANCH  20  21
ATOM     21  O   UNL     1      44.337  10.012  12.686  0.00  0.00    +0.000 OA
ATOM     22  H   UNL     1      43.950  10.387  11.878  0.00  0.00    +0.000 HD
ENDBRANCH  20  21
ENDBRANCH  19  20
ENDBRANCH  12  19
ENDBRANCH   1  12
TORSDOF 8
ENDMDL
MODEL 8
REMARK VINA RESULT:    -4.980      3.559      6.665
REMARK INTER + INTRA:          -7.597
REMARK INTER:                  -6.851
REMARK INTRA:                  -0.746
REMARK UNBOUND:                -0.580
REMARK  Name = 
REMARK  8 active torsions:
REMARK  status: ('A' for Active; 'I' for Inactive)
REMARK    1  A    between atoms: N_1  and  C_2
REMARK    2  A    between atoms: C_2  and  C_3
REMARK    3  A    between atoms: C_6  and  C_7
REMARK    4  A    between atoms: C_7  and  N_8
REMARK    5  A    between atoms: N_8  and  C_9
REMARK    6  A    between atoms: N_8  and  C_12
REMARK    7  A    between atoms: C_9  and  C_10
REMARK    8  A    between atoms: C_10  and  O_11
REMARK                            x       y       z     vdW  Elec       q    Type
REMARK                         _______ _______ _______ _____ _____    ______ ____
ROOT
ATOM      1  C   UNL     1      46.732   6.119  12.302  0.00  0.00    +0.000 C 
ENDROOT
BRANCH   1   5
ATOM      2  C   UNL     1      47.870   5.125  16.340  0.00  0.00    +0.000 A 
ATOM      3  C   UNL     1      48.445   6.227  15.689  0.00  0.00    +0.000 A 
ATOM      4  C   UNL     1      48.176   6.477  14.344  0.00  0.00    +0.000 A 
ATOM      5  C   UNL     1      47.322   5.635  13.617  0.00  0.00    +0.000 A 
ATOM      6  C   UNL     1      46.863   4.458  14.229  0.00  0.00    +0.000 A 
ATOM      7  C   UNL     1      47.133   4.208  15.578  0.00  0.00    +0.000 A 
BRANCH   2   8
ATOM      8  C   UNL     1      48.005   4.975  17.836  0.00  0.00    +0.000 C 
BRANCH   8   9
ATOM      9  N   UNL     1      46.698   5.092  18.487  0.00  0.00    +0.000 NA
ATOM     10  H   UNL     1      46.077   5.649  17.906  0.00  0.00    +0.000 HD
ATOM     11  H   UNL     1      46.819   5.604  19.362  0.00  0.00    +0.000 HD
ENDBRANCH   8   9
ENDBRANCH   2   8
ENDBRANCH   1   5
BRANCH   1  12
ATOM     12  N   UNL     1      45.407   6.750  12.423  0.00  0.00    +0.000 N 
BRANCH  12  13
ATOM     13  C   UNL     1      45.317   8.140  12.100  0.00  0.00    +0.000 A 
ATOM     14  C   UNL     1      46.281   9.099  12.456  0.00  0.00    +0.000 A 
ATOM     15  C   UNL     1      46.209  10.421  11.996  0.00  0.00    +0.000 A 
ATOM     16  C   UNL     1      45.177  10.815  11.154  0.00  0.00    +0.000 A 
ATOM     17  C   UNL     1      44.207   9.892  10.784  0.00  0.00    +0.000 A 
ATOM     18  C   UNL     1      44.271   8.578  11.263  0.00  0.00    +0.000 A 
ENDBRANCH  12  13
BRANCH  12  19
ATOM     19  C   UNL     1      44.254   6.078  11.740  0.00  0.00    +0.000 C 
BRANCH  19  20
ATOM     20  C   UNL     1      44.549   4.832  10.891  0.00  0.00    +0.000 C 
BRANCH  20  21
ATOM     21  O   UNL     1      44.074   4.991   9.554  0.00  0.00    +0.000 OA
ATOM     22  H   UNL     1      43.626   5.852   9.503  0.00  0.00    +0.000 HD
ENDBRANCH  20  21
ENDBRANCH  19  20
ENDBRANCH  12  19
ENDBRANCH   1  12
TORSDOF 8
ENDMDL
MODEL 9
REMARK VINA RESULT:    -4.836      3.682      5.726
REMARK INTER + INTRA:          -7.394
REMARK INTER:                  -6.741
REMARK INTRA:                  -0.653
REMARK UNBOUND:                -0.580
REMARK  Name = 
REMARK  8 active torsions:
REMARK  status: ('A' for Active; 'I' for Inactive)
REMARK    1  A    between atoms: N_1  and  C_2
REMARK    2  A    between atoms: C_2  and  C_3
REMARK    3  A    between atoms: C_6  and  C_7
REMARK    4  A    between atoms: C_7  and  N_8
REMARK    5  A    between atoms: N_8  and  C_9
REMARK    6  A    between atoms: N_8  and  C_12
REMARK    7  A    between atoms: C_9  and  C_10
REMARK    8  A    between atoms: C_10  and  O_11
REMARK                            x       y       z     vdW  Elec       q    Type
REMARK                         _______ _______ _______ _____ _____    ______ ____
ROOT
ATOM      1  C   UNL     1      47.009   7.023  13.199  0.00  0.00    +0.000 C 
ENDROOT
BRANCH   1   5
ATOM      2  C   UNL     1      44.839   3.889  11.185  0.00  0.00    +0.000 A 
ATOM      3  C   UNL     1      45.397   3.668  12.452  0.00  0.00    +0.000 A 
ATOM      4  C   UNL     1      46.206   4.632  13.050  0.00  0.00    +0.000 A 
ATOM      5  C   UNL     1      46.473   5.846  12.400  0.00  0.00    +0.000 A 
ATOM      6  C   UNL     1      46.031   6.007  11.078  0.00  0.00    +0.000 A 
ATOM      7  C   UNL     1      45.220   5.038  10.477  0.00  0.00    +0.000 A 
BRANCH   2   8
ATOM      8  C   UNL     1      43.810   2.933  10.633  0.00  0.00    +0.000 C 
BRANCH   8   9
ATOM      9  N   UNL     1      43.055   2.302  11.718  0.00  0.00    +0.000 NA
ATOM     10  H   UNL     1      42.951   2.959  12.486  0.00  0.00    +0.000 HD
ATOM     11  H   UNL     1      43.601   1.517  12.076  0.00  0.00    +0.000 HD
ENDBRANCH   8   9
ENDBRANCH   2   8
ENDBRANCH   1   5
BRANCH   1  12
ATOM     12  N   UNL     1      48.412   7.369  12.910  0.00  0.00    +0.000 N 
BRANCH  12  13
ATOM     13  C   UNL     1      48.648   8.583  12.193  0.00  0.00    +0.000 A 
ATOM     14  C   UNL     1      47.681   9.581  11.987  0.00  0.00    +0.000 A 
ATOM     15  C   UNL     1      48.005  10.809  11.395  0.00  0.00    +0.000 A 
ATOM     16  C   UNL     1      49.312  11.078  11.007  0.00  0.00    +0.000 A 
ATOM     17  C   UNL     1      50.292  10.111  11.196  0.00  0.00    +0.000 A 
ATOM     18  C   UNL     1      49.959   8.876  11.767  0.00  0.00    +0.000 A 
ENDBRANCH  12  13
BRANCH  12  19
ATOM     19  C   UNL     1      49.379   7.354  14.056  0.00  0.00    +0.000 C 
BRANCH  19  20
ATOM     20  C   UNL     1      48.809   7.225  15.476  0.00  0.00    +0.000 C 
BRANCH  20  21
ATOM     21  O   UNL     1      48.875   8.467  16.176  0.00  0.00    +0.000 OA
ATOM     22  H   UNL     1      48.765   8.276  17.123  0.00  0.00    +0.000 HD
ENDBRANCH  20  21
ENDBRANCH  19  20
ENDBRANCH  12  19
ENDBRANCH   1  12
TORSDOF 8
ENDMDL
