MODEL 1
REMARK VINA RESULT:    -7.886      0.000      0.000
REMARK INTER + INTRA:         -11.448
REMARK INTER:                 -10.651
REMARK INTRA:                  -0.796
REMARK UNBOUND:                -0.796
REMARK  Name = 
REMARK  8 active torsions:
REMARK  status: ('A' for Active; 'I' for Inactive)
REMARK    1  A    between atoms: C_1  and  C_2
REMARK    2  A    between atoms: C_2  and  C_3
REMARK    3  A    between atoms: C_2  and  C_4
REMARK    4  A    between atoms: C_2  and  C_15
REMARK    5  A    between atoms: C_5  and  C_6
REMARK    6  A    between atoms: C_9  and  C_10
REMARK    7  A    between atoms: C_19  and  O_20
REMARK    8  A    between atoms: O_20  and  C_21
REMARK                            x       y       z     vdW  Elec       q    Type
REMARK                         _______ _______ _______ _____ _____    ______ ____
ROOT
ATOM      1  C   UNL     1      43.146   5.889  11.997  0.00  0.00    +0.000 C 
ATOM      2  C   UNL     1      44.648   5.605  11.769  0.00  0.00    +0.000 C 
ATOM      3  C   UNL     1      45.293   6.901  11.221  0.00  0.00    +0.000 C 
ENDROOT
BRANCH   2   4
ATOM      4  C   UNL     1      44.749   4.416  10.792  0.00  0.00    +0.000 A 
ATOM      5  C   UNL     1      44.062   3.218  11.073  0.00  0.00    +0.000 A 
ATOM      6  C   UNL     1      44.076   2.148  10.178  0.00  0.00    +0.000 A 
ATOM      7  C   UNL     1      44.783   2.239   8.979  0.00  0.00    +0.000 A 
ATOM      8  C   UNL     1      45.484   3.405   8.685  0.00  0.00    +0.000 A 
ATOM      9  C   UNL     1      45.462   4.477   9.585  0.00  0.00    +0.000 A 
BRANCH   8  10
ATOM     10  O   UNL     1      46.178   3.646   7.525  0.00  0.00    +0.000 OA
BRANCH  10  11
ATOM     11  C   UNL     1      46.539   2.540   6.670  0.00  0.00    +0.000 C 
ATOM     12  C   UNL     1      47.849   1.789   6.977  0.00  0.00    +0.000 C 
ATOM     13  N   UNL     1      48.314   1.994   5.598  0.00  0.00    +0.000 NA
ATOM     14  C   UNL     1      47.220   2.941   5.343  0.00  0.00    +0.000 C 
ATOM     15  H   UNL     1      48.284   1.156   5.016  0.00  0.00    +0.000 HD
ENDBRANCH  10  11
ENDBRANCH   8  10
ENDBRANCH   2   4
BRANCH   2  16
ATOM     16  C   UNL     1      45.400   5.284  13.057  0.00  0.00    +0.000 C 
ATOM     17  C   UNL     1      46.728   5.325  13.277  0.00  0.00    +0.000 C 
BRANCH  17  18
ATOM     18  C   UNL     1      47.326   4.966  14.571  0.00  0.00    +0.000 A 
ATOM     19  C   UNL     1      48.016   5.904  15.330  0.00  0.00    +0.000 A 
ATOM     20  C   UNL     1      48.597   5.495  16.533  0.00  0.00    +0.000 A 
ATOM     21  C   UNL     1      48.473   4.166  16.950  0.00  0.00    +0.000 A 
ATOM     22  C   UNL     1      47.751   3.309  16.139  0.00  0.00    +0.000 A 
ATOM     23  N   UNL     1      47.183   3.679  14.967  0.00  0.00    +0.000 NA
BRANCH  21  24
ATOM     24  C   UNL     1      49.119   3.736  18.210  0.00  0.00    +0.000 C 
ATOM     25  N   UNL     1      48.342   3.225  19.216  0.00  0.00    +0.000 N 
ATOM     26  O   UNL     1      50.331   3.824  18.361  0.00  0.00    +0.000 OA
ATOM     27  H   UNL     1      47.345   3.086  19.190  0.00  0.00    +0.000 HD
ATOM     28  H   UNL     1      48.831   2.927  20.052  0.00  0.00    +0.000 HD
ENDBRANCH  21  24
ENDBRANCH  17  18
ENDBRANCH   2  16
TORSDOF 6
ENDMDL
MODEL 2
REMARK VINA RESULT:    -7.699      1.901      8.476
REMARK INTER + INTRA:         -11.195
REMARK INTER:                 -10.385
REMARK INTRA:                  -0.811
REMARK UNBOUND:                -0.796
REMARK  Name = 
REMARK  8 active torsions:
REMARK  status: ('A' for Active; 'I' for Inactive)
REMARK    1  A    between atoms: C_1  and  C_2
REMARK    2  A    between atoms: C_2  and  C_3
REMARK    3  A    between atoms: C_2  and  C_4
REMARK    4  A    between atoms: C_2  and  C_15
REMARK    5  A    between atoms: C_5  and  C_6
REMARK    6  A    between atoms: C_9  and  C_10
REMARK    7  A    between atoms: C_19  and  O_20
REMARK    8  A    between atoms: O_20  and  C_21
REMARK                            x       y       z     vdW  Elec       q    Type
REMARK                         _______ _______ _______ _____ _____    ______ ____
ROOT
ATOM      1  C   UNL     1      44.788   8.224  11.669  0.00  0.00    +0.000 C 
ATOM      2  C   UNL     1      45.258   6.837  12.164  0.00  0.00    +0.000 C 
ATOM      3  C   UNL     1      44.047   6.143  12.833  0.00  0.00    +0.000 C 
ENDROOT
BRANCH   2   4
ATOM      4  C   UNL     1      46.436   7.068  13.131  0.00  0.00    +0.000 A 
ATOM      5  C   UNL     1      46.928   8.372  13.337  0.00  0.00    +0.000 A 
ATOM      6  C   UNL     1      47.947   8.625  14.257  0.00  0.00    +0.000 A 
ATOM      7  C   UNL     1      48.510   7.583  14.992  0.00  0.00    +0.000 A 
ATOM      8  C   UNL     1      48.054   6.282  14.794  0.00  0.00    +0.000 A 
ATOM      9  C   UNL     1      47.029   6.036  13.874  0.00  0.00    +0.000 A 
BRANCH   8  10
ATOM     10  O   UNL     1      48.485   5.175  15.482  0.00  0.00    +0.000 OA
BRANCH  10  11
ATOM     11  C   UNL     1      47.519   4.323  16.135  0.00  0.00    +0.000 C 
ATOM     12  C   UNL     1      47.207   4.592  17.619  0.00  0.00    +0.000 C 
ATOM     13  N   UNL     1      47.509   3.193  17.958  0.00  0.00    +0.000 NA
ATOM     14  C   UNL     1      48.075   2.966  16.621  0.00  0.00    +0.000 C 
ATOM     15  H   UNL     1      46.688   2.626  18.165  0.00  0.00    +0.000 HD
ENDBRANCH  10  11
ENDBRANCH   8  10
ENDBRANCH   2   4
BRANCH   2  16
ATOM     16  C   UNL     1      45.690   5.911  11.031  0.00  0.00    +0.000 C 
ATOM     17  C   UNL     1      44.931   5.045  10.330  0.00  0.00    +0.000 C 
BRANCH  17  18
ATOM     18  C   UNL     1      45.484   4.190   9.271  0.00  0.00    +0.000 A 
ATOM     19  C   UNL     1      45.300   2.813   9.288  0.00  0.00    +0.000 A 
ATOM     20  C   UNL     1      45.884   2.047   8.275  0.00  0.00    +0.000 A 
ATOM     21  C   UNL     1      46.629   2.672   7.271  0.00  0.00    +0.000 A 
ATOM     22  C   UNL     1      46.740   4.049   7.324  0.00  0.00    +0.000 A 
ATOM     23  N   UNL     1      46.190   4.813   8.298  0.00  0.00    +0.000 NA
BRANCH  21  24
ATOM     24  C   UNL     1      47.268   1.848   6.221  0.00  0.00    +0.000 C 
ATOM     25  N   UNL     1      47.990   2.468   5.235  0.00  0.00    +0.000 N 
ATOM     26  O   UNL     1      47.167   0.628   6.226  0.00  0.00    +0.000 OA
ATOM     27  H   UNL     1      48.157   3.458   5.149  0.00  0.00    +0.000 HD
ATOM     28  H   UNL     1      48.425   1.863   4.550  0.00  0.00    +0.000 HD
ENDBRANCH  21  24
ENDBRANCH  17  18
ENDBRANCH   2  16
TORSDOF 6
ENDMDL
MODEL 3
REMARK VINA RESULT:    -7.024      3.991      4.926
REMARK INTER + INTRA:         -10.284
REMARK INTER:                  -9.569
REMARK INTRA:                  -0.714
REMARK UNBOUND:                -0.796
REMARK  Name = 
REMARK  8 active torsions:
REMARK  status: ('A' for Active; 'I' for Inactive)
REMARK    1  A    between atoms: C_1  and  C_2
REMARK    2  A    between atoms: C_2  and  C_3
REMARK    3  A    between atoms: C_2  and  C_4
REMARK    4  A    between atoms: C_2  and  C_15
REMARK    5  A    between atoms: C_5  and  C_6
REMARK    6  A    between atoms: C_9  and  C_10
REMARK    7  A    between atoms: C_19  and  O_20
REMARK    8  A    between atoms: O_20  and  C_21
REMARK                            x       y       z     vdW  Elec       q    Type
REMARK                         _______ _______ _______ _____ _____    ______ ____
ROOT
ATOM      1  C   UNL     1      44.929   5.416  13.057  0.00  0.00    +0.000 C 
ATOM      2  C   UNL     1      45.134   5.942  11.617  0.00  0.00    +0.000 C 
ATOM      3  C   UNL     1      44.041   7.004  11.347  0.00  0.00    +0.000 C 
ENDROOT
BRANCH   2   4
ATOM      4  C   UNL     1      45.053   4.732  10.667  0.00  0.00    +0.000 A 
ATOM      5  C   UNL     1      44.302   3.598  11.039  0.00  0.00    +0.000 A 
ATOM      6  C   UNL     1      44.151   2.513  10.174  0.00  0.00    +0.000 A 
ATOM      7  C   UNL     1      44.751   2.525   8.915  0.00  0.00    +0.000 A 
ATOM      8  C   UNL     1      45.512   3.625   8.530  0.00  0.00    +0.000 A 
ATOM      9  C   UNL     1      45.656   4.712   9.400  0.00  0.00    +0.000 A 
BRANCH   8  10
ATOM     10  O   UNL     1      46.114   3.787   7.307  0.00  0.00    +0.000 OA
BRANCH  10  11
ATOM     11  C   UNL     1      46.527   2.624   6.557  0.00  0.00    +0.000 C 
ATOM     12  C   UNL     1      47.737   1.825   7.076  0.00  0.00    +0.000 C 
ATOM     13  N   UNL     1      48.399   1.939   5.768  0.00  0.00    +0.000 NA
ATOM     14  C   UNL     1      47.406   2.926   5.324  0.00  0.00    +0.000 C 
ATOM     15  H   UNL     1      48.402   1.076   5.223  0.00  0.00    +0.000 HD
ENDBRANCH  10  11
ENDBRANCH   8  10
ENDBRANCH   2   4
BRANCH   2  16
ATOM     16  C   UNL     1      46.466   6.663  11.428  0.00  0.00    +0.000 C 
ATOM     17  C   UNL     1      47.031   7.589  12.227  0.00  0.00    +0.000 C 
BRANCH  17  18
ATOM     18  C   UNL     1      48.318   8.224  11.912  0.00  0.00    +0.000 A 
ATOM     19  C   UNL     1      48.411   9.595  11.700  0.00  0.00    +0.000 A 
ATOM     20  C   UNL     1      49.654  10.136  11.363  0.00  0.00    +0.000 A 
ATOM     21  C   UNL     1      50.771   9.302  11.251  0.00  0.00    +0.000 A 
ATOM     22  C   UNL     1      50.586   7.955  11.500  0.00  0.00    +0.000 A 
ATOM     23  N   UNL     1      49.391   7.404  11.822  0.00  0.00    +0.000 NA
BRANCH  21  24
ATOM     24  C   UNL     1      52.076   9.883  10.863  0.00  0.00    +0.000 C 
ATOM     25  N   UNL     1      52.581   9.612   9.619  0.00  0.00    +0.000 N 
ATOM     26  O   UNL     1      52.701  10.602  11.631  0.00  0.00    +0.000 OA
ATOM     27  H   UNL     1      52.142   9.057   8.902  0.00  0.00    +0.000 HD
ATOM     28  H   UNL     1      53.467  10.047   9.391  0.00  0.00    +0.000 HD
ENDBRANCH  21  24
ENDBRANCH  17  18
ENDBRANCH   2  16
TORSDOF 6
ENDMDL
MODEL 4
REMARK VINA RESULT:    -6.931      3.553      7.977
REMARK INTER + INTRA:         -10.158
REMARK INTER:                  -9.482
REMARK INTRA:                  -0.676
REMARK UNBOUND:                -0.796
REMARK  Name = 
REMARK  8 active torsions:
REMARK  status: ('A' for Active; 'I' for Inactive)
REMARK    1  A    between atoms: C_1  and  C_2
REMARK    2  A    between atoms: C_2  and  C_3
REMARK    3  A    between atoms: C_2  and  C_4
REMARK    4  A    between atoms: C_2  and  C_15
REMARK    5  A    between atoms: C_5  and  C_6
REMARK    6  A    between atoms: C_9  and  C_10
REMARK    7  A    between atoms: C_19  and  O_20
REMARK    8  A    between atoms: O_20  and  C_21
REMARK                            x       y       z     vdW  Elec       q    Type
REMARK                         _______ _______ _______ _____ _____    ______ ____
ROOT
ATOM      1  C   UNL     1      42.682   6.733  11.547  0.00  0.00    +0.000 C 
ATOM      2  C   UNL     1      44.155   6.416  11.893  0.00  0.00    +0.000 C 
ATOM      3  C   UNL     1      44.165   5.644  13.235  0.00  0.00    +0.000 C 
ENDROOT
BRANCH   2   4
ATOM      4  C   UNL     1      44.913   7.756  11.958  0.00  0.00    +0.000 A 
ATOM      5  C   UNL     1      44.408   8.881  11.275  0.00  0.00    +0.000 A 
ATOM      6  C   UNL     1      45.031  10.126  11.369  0.00  0.00    +0.000 A 
ATOM      7  C   UNL     1      46.182  10.283  12.141  0.00  0.00    +0.000 A 
ATOM      8  C   UNL     1      46.711   9.184  12.812  0.00  0.00    +0.000 A 
ATOM      9  C   UNL     1      46.079   7.940  12.718  0.00  0.00    +0.000 A 
BRANCH   8  10
ATOM     10  O   UNL     1      47.805   9.209  13.641  0.00  0.00    +0.000 OA
BRANCH  10  11
ATOM     11  C   UNL     1      49.114   8.928  13.101  0.00  0.00    +0.000 C 
ATOM     12  C   UNL     1      49.195   8.315  11.690  0.00  0.00    +0.000 C 
ATOM     13  N   UNL     1      50.023   7.210  12.196  0.00  0.00    +0.000 NA
ATOM     14  C   UNL     1      49.745   7.604  13.584  0.00  0.00    +0.000 C 
ATOM     15  H   UNL     1      51.007   7.271  11.935  0.00  0.00    +0.000 HD
ENDBRANCH  10  11
ENDBRANCH   8  10
ENDBRANCH   2   4
BRANCH   2  16
ATOM     16  C   UNL     1      44.822   5.490  10.880  0.00  0.00    +0.000 C 
ATOM     17  C   UNL     1      44.238   4.587  10.069  0.00  0.00    +0.000 C 
BRANCH  17  18
ATOM     18  C   UNL     1      45.008   3.738   9.149  0.00  0.00    +0.000 A 
ATOM     19  C   UNL     1      45.014   2.354   9.282  0.00  0.00    +0.000 A 
ATOM     20  C   UNL     1      45.797   1.602   8.403  0.00  0.00    +0.000 A 
ATOM     21  C   UNL     1      46.548   2.244   7.413  0.00  0.00    +0.000 A 
ATOM     22  C   UNL     1      46.462   3.623   7.345  0.00  0.00    +0.000 A 
ATOM     23  N   UNL     1      45.716   4.375   8.188  0.00  0.00    +0.000 NA
BRANCH  21  24
ATOM     24  C   UNL     1      47.398   1.439   6.508  0.00  0.00    +0.000 C 
ATOM     25  N   UNL     1      48.401   2.059   5.811  0.00  0.00    +0.000 N 
ATOM     26  O   UNL     1      47.221   0.235   6.380  0.00  0.00    +0.000 OA
ATOM     27  H   UNL     1      48.649   3.034   5.858  0.00  0.00    +0.000 HD
ATOM     28  H   UNL     1      48.968   1.464   5.219  0.00  0.00    +0.000 HD
ENDBRANCH  21  24
ENDBRANCH  17  18
ENDBRANCH   2  16
TORSDOF 6
ENDMDL
MODEL 5
REMARK VINA RESULT:    -6.887      4.543      8.255
REMARK INTER + INTRA:         -10.099
REMARK INTER:                  -9.255
REMARK INTRA:                  -0.844
REMARK UNBOUND:                -0.796
REMARK  Name = 
REMARK  8 active torsions:
REMARK  status: ('A' for Active; 'I' for Inactive)
REMARK    1  A    between atoms: C_1  and  C_2
REMARK    2  A    between atoms: C_2  and  C_3
REMARK    3  A    between atoms: C_2  and  C_4
REMARK    4  A    between atoms: C_2  and  C_15
REMARK    5  A    between atoms: C_5  and  C_6
REMARK    6  A    between atoms: C_9  and  C_10
REMARK    7  A    between atoms: C_19  and  O_20
REMARK    8  A    between atoms: O_20  and  C_21
REMARK                            x       y       z     vdW  Elec       q    Type
REMARK                         _______ _______ _______ _____ _____    ______ ____
ROOT
ATOM      1  C   UNL     1      42.731   6.275  11.743  0.00  0.00    +0.000 C 
ATOM      2  C   UNL     1      44.253   6.151  11.986  0.00  0.00    +0.000 C 
ATOM      3  C   UNL     1      44.454   5.315  13.274  0.00  0.00    +0.000 C 
ENDROOT
BRANCH   2   4
ATOM      4  C   UNL     1      44.821   7.580  12.094  0.00  0.00    +0.000 A 
ATOM      5  C   UNL     1      45.984   7.815  12.854  0.00  0.00    +0.000 A 
ATOM      6  C   UNL     1      46.564   9.083  12.917  0.00  0.00    +0.000 A 
ATOM      7  C   UNL     1      45.995  10.155  12.229  0.00  0.00    +0.000 A 
ATOM      8  C   UNL     1      44.835   9.953  11.486  0.00  0.00    +0.000 A 
ATOM      9  C   UNL     1      44.262   8.678  11.423  0.00  0.00    +0.000 A 
BRANCH   8  10
ATOM     10  O   UNL     1      44.201  10.904  10.726  0.00  0.00    +0.000 OA
BRANCH  10  11
ATOM     11  C   UNL     1      43.457  10.500   9.556  0.00  0.00    +0.000 C 
ATOM     12  C   UNL     1      44.032  10.868   8.175  0.00  0.00    +0.000 C 
ATOM     13  N   UNL     1      42.766  11.514   7.797  0.00  0.00    +0.000 NA
ATOM     14  C   UNL     1      42.282  11.429   9.182  0.00  0.00    +0.000 C 
ATOM     15  H   UNL     1      42.208  10.985   7.127  0.00  0.00    +0.000 HD
ENDBRANCH  10  11
ENDBRANCH   8  10
ENDBRANCH   2   4
BRANCH   2  16
ATOM     16  C   UNL     1      44.975   5.386  10.881  0.00  0.00    +0.000 C 
ATOM     17  C   UNL     1      44.439   4.604   9.924  0.00  0.00    +0.000 C 
BRANCH  17  18
ATOM     18  C   UNL     1      45.260   3.903   8.927  0.00  0.00    +0.000 A 
ATOM     19  C   UNL     1      45.336   2.515   8.905  0.00  0.00    +0.000 A 
ATOM     20  C   UNL     1      46.165   1.906   7.959  0.00  0.00    +0.000 A 
ATOM     21  C   UNL     1      46.890   2.692   7.058  0.00  0.00    +0.000 A 
ATOM     22  C   UNL     1      46.734   4.064   7.142  0.00  0.00    +0.000 A 
ATOM     23  N   UNL     1      45.943   4.679   8.053  0.00  0.00    +0.000 NA
BRANCH  21  24
ATOM     24  C   UNL     1      47.788   2.037   6.081  0.00  0.00    +0.000 C 
ATOM     25  N   UNL     1      48.156   2.721   4.953  0.00  0.00    +0.000 N 
ATOM     26  O   UNL     1      48.208   0.903   6.270  0.00  0.00    +0.000 OA
ATOM     27  H   UNL     1      47.890   3.662   4.710  0.00  0.00    +0.000 HD
ATOM     28  H   UNL     1      48.787   2.240   4.323  0.00  0.00    +0.000 HD
ENDBRANCH  21  24
ENDBRANCH  17  18
ENDBRANCH   2  16
TORSDOF 6
ENDMDL
MODEL 6
REMARK VINA RESULT:    -6.560      2.849      8.478
REMARK INTER + INTRA:          -9.658
REMARK INTER:                  -8.820
REMARK INTRA:                  -0.838
REMARK UNBOUND:                -0.796
REMARK  Name = 
REMARK  8 active torsions:
REMARK  status: ('A' for Active; 'I' for Inactive)
REMARK    1  A    between atoms: C_1  and  C_2
REMARK    2  A    between atoms: C_2  and  C_3
REMARK    3  A    between atoms: C_2  and  C_4
REMARK    4  A    between atoms: C_2  and  C_15
REMARK    5  A    between atoms: C_5  and  C_6
REMARK    6  A    between atoms: C_9  and  C_10
REMARK    7  A    between atoms: C_19  and  O_20
REMARK    8  A    between atoms: O_20  and  C_21
REMARK                            x       y       z     vdW  Elec       q    Type
REMARK                         _______ _______ _______ _____ _____    ______ ____
ROOT
ATOM      1  C   UNL     1      50.779   8.289  12.550  0.00  0.00    +0.000 C 
ATOM      2  C   UNL     1      49.601   7.960  13.497  0.00  0.00    +0.000 C 
ATOM      3  C   UNL     1      48.779   9.258  13.689  0.00  0.00    +0.000 C 
ENDROOT
BRANCH   2   4
ATOM      4  C   UNL     1      50.201   7.422  14.811  0.00  0.00    +0.000 A 
ATOM      5  C   UNL     1      51.508   7.793  15.187  0.00  0.00    +0.000 A 
ATOM      6  C   UNL     1      52.056   7.380  16.402  0.00  0.00    +0.000 A 
ATOM      7  C   UNL     1      51.320   6.577  17.273  0.00  0.00    +0.000 A 
ATOM      8  C   UNL     1      50.033   6.183  16.917  0.00  0.00    +0.000 A 
ATOM      9  C   UNL     1      49.487   6.605  15.699  0.00  0.00    +0.000 A 
BRANCH   8  10
ATOM     10  O   UNL     1      49.184   5.438  17.698  0.00  0.00    +0.000 OA
BRANCH  10  11
ATOM     11  C   UNL     1      48.639   4.205  17.180  0.00  0.00    +0.000 C 
ATOM     12  C   UNL     1      47.152   4.186  16.780  0.00  0.00    +0.000 C 
ATOM     13  N   UNL     1      46.913   3.020  17.643  0.00  0.00    +0.000 NA
ATOM     14  C   UNL     1      48.241   3.170  18.255  0.00  0.00    +0.000 C 
ATOM     15  H   UNL     1      46.784   2.143  17.137  0.00  0.00    +0.000 HD
ENDBRANCH  10  11
ENDBRANCH   8  10
ENDBRANCH   2   4
BRANCH   2  16
ATOM     16  C   UNL     1      48.630   6.939  12.912  0.00  0.00    +0.000 C 
ATOM     17  C   UNL     1      47.295   7.049  12.769  0.00  0.00    +0.000 C 
BRANCH  17  18
ATOM     18  C   UNL     1      46.470   5.971  12.206  0.00  0.00    +0.000 A 
ATOM     19  C   UNL     1      45.859   6.106  10.965  0.00  0.00    +0.000 A 
ATOM     20  C   UNL     1      45.053   5.063  10.499  0.00  0.00    +0.000 A 
ATOM     21  C   UNL     1      44.881   3.914  11.277  0.00  0.00    +0.000 A 
ATOM     22  C   UNL     1      45.546   3.861  12.489  0.00  0.00    +0.000 A 
ATOM     23  N   UNL     1      46.327   4.860  12.966  0.00  0.00    +0.000 NA
BRANCH  21  24
ATOM     24  C   UNL     1      44.001   2.830  10.788  0.00  0.00    +0.000 C 
ATOM     25  N   UNL     1      44.421   2.055   9.739  0.00  0.00    +0.000 N 
ATOM     26  O   UNL     1      42.915   2.614  11.308  0.00  0.00    +0.000 OA
ATOM     27  H   UNL     1      45.301   2.128   9.255  0.00  0.00    +0.000 HD
ATOM     28  H   UNL     1      43.794   1.313   9.452  0.00  0.00    +0.000 HD
ENDBRANCH  21  24
ENDBRANCH  17  18
ENDBRANCH   2  16
TORSDOF 6
ENDMDL
MODEL 7
REMARK VINA RESULT:    -6.538      1.561      2.292
REMARK INTER + INTRA:          -9.627
REMARK INTER:                  -8.987
REMARK INTRA:                  -0.640
REMARK UNBOUND:                -0.796
REMARK  Name = 
REMARK  8 active torsions:
REMARK  status: ('A' for Active; 'I' for Inactive)
REMARK    1  A    between atoms: C_1  and  C_2
REMARK    2  A    between atoms: C_2  and  C_3
REMARK    3  A    between atoms: C_2  and  C_4
REMARK    4  A    between atoms: C_2  and  C_15
REMARK    5  A    between atoms: C_5  and  C_6
REMARK    6  A    between atoms: C_9  and  C_10
REMARK    7  A    between atoms: C_19  and  O_20
REMARK    8  A    between atoms: O_20  and  C_21
REMARK                            x       y       z     vdW  Elec       q    Type
REMARK                         _______ _______ _______ _____ _____    ______ ____
ROOT
ATOM      1  C   UNL     1      45.220   7.817  12.444  0.00  0.00    +0.000 C 
ATOM      2  C   UNL     1      46.079   6.535  12.349  0.00  0.00    +0.000 C 
ATOM      3  C   UNL     1      47.167   6.779  11.276  0.00  0.00    +0.000 C 
ENDROOT
BRANCH   2   4
ATOM      4  C   UNL     1      45.132   5.370  12.000  0.00  0.00    +0.000 A 
ATOM      5  C   UNL     1      44.089   5.026  12.883  0.00  0.00    +0.000 A 
ATOM      6  C   UNL     1      43.172   4.022  12.566  0.00  0.00    +0.000 A 
ATOM      7  C   UNL     1      43.275   3.327  11.361  0.00  0.00    +0.000 A 
ATOM      8  C   UNL     1      44.306   3.635  10.479  0.00  0.00    +0.000 A 
ATOM      9  C   UNL     1      45.219   4.646  10.801  0.00  0.00    +0.000 A 
BRANCH   8  10
ATOM     10  O   UNL     1      44.494   3.066   9.244  0.00  0.00    +0.000 OA
BRANCH  10  11
ATOM     11  C   UNL     1      45.834   2.915   8.727  0.00  0.00    +0.000 C 
ATOM     12  C   UNL     1      46.123   3.444   7.310  0.00  0.00    +0.000 C 
ATOM     13  N   UNL     1      46.658   2.135   6.907  0.00  0.00    +0.000 NA
ATOM     14  C   UNL     1      46.151   1.522   8.142  0.00  0.00    +0.000 C 
ATOM     15  H   UNL     1      47.673   2.108   6.814  0.00  0.00    +0.000 HD
ENDBRANCH  10  11
ENDBRANCH   8  10
ENDBRANCH   2   4
BRANCH   2  16
ATOM     16  C   UNL     1      46.833   6.223  13.638  0.00  0.00    +0.000 C 
ATOM     17  C   UNL     1      47.048   5.020  14.206  0.00  0.00    +0.000 C 
BRANCH  17  18
ATOM     18  C   UNL     1      47.778   4.863  15.471  0.00  0.00    +0.000 A 
ATOM     19  C   UNL     1      47.531   3.788  16.316  0.00  0.00    +0.000 A 
ATOM     20  C   UNL     1      48.227   3.714  17.526  0.00  0.00    +0.000 A 
ATOM     21  C   UNL     1      49.153   4.707  17.859  0.00  0.00    +0.000 A 
ATOM     22  C   UNL     1      49.348   5.728  16.946  0.00  0.00    +0.000 A 
ATOM     23  N   UNL     1      48.682   5.826  15.771  0.00  0.00    +0.000 NA
BRANCH  21  24
ATOM     24  C   UNL     1      49.862   4.635  19.156  0.00  0.00    +0.000 C 
ATOM     25  N   UNL     1      51.069   3.991  19.219  0.00  0.00    +0.000 N 
ATOM     26  O   UNL     1      49.390   5.144  20.163  0.00  0.00    +0.000 OA
ATOM     27  H   UNL     1      51.559   3.560  18.452  0.00  0.00    +0.000 HD
ATOM     28  H   UNL     1      51.526   3.984  20.123  0.00  0.00    +0.000 HD
ENDBRANCH  21  24
ENDBRANCH  17  18
ENDBRANCH   2  16
TORSDOF 6
ENDMDL
MODEL 8
REMARK VINA RESULT:    -6.215      3.000      8.707
REMARK INTER + INTRA:          -9.191
REMARK INTER:                  -8.380
REMARK INTRA:                  -0.811
REMARK UNBOUND:                -0.796
REMARK  Name = 
REMARK  8 active torsions:
REMARK  status: ('A' for Active; 'I' for Inactive)
REMARK    1  A    between atoms: C_1  and  C_2
REMARK    2  A    between atoms: C_2  and  C_3
REMARK    3  A    between atoms: C_2  and  C_4
REMARK    4  A    between atoms: C_2  and  C_15
REMARK    5  A    between atoms: C_5  and  C_6
REMARK    6  A    between atoms: C_9  and  C_10
REMARK    7  A    between atoms: C_19  and  O_20
REMARK    8  A    between atoms: O_20  and  C_21
REMARK                            x       y       z     vdW  Elec       q    Type
REMARK                         _______ _______ _______ _____ _____    ______ ____
ROOT
ATOM      1  C   UNL     1      50.508   7.668  14.730  0.00  0.00    +0.000 C 
ATOM      2  C   UNL     1      49.074   7.571  15.302  0.00  0.00    +0.000 C 
ATOM      3  C   UNL     1      48.430   8.974  15.189  0.00  0.00    +0.000 C 
ENDROOT
BRANCH   2   4
ATOM      4  C   UNL     1      49.189   7.071  16.755  0.00  0.00    +0.000 A 
ATOM      5  C   UNL     1      48.425   7.682  17.769  0.00  0.00    +0.000 A 
ATOM      6  C   UNL     1      48.453   7.210  19.082  0.00  0.00    +0.000 A 
ATOM      7  C   UNL     1      49.251   6.118  19.423  0.00  0.00    +0.000 A 
ATOM      8  C   UNL     1      50.030   5.507  18.443  0.00  0.00    +0.000 A 
ATOM      9  C   UNL     1      49.993   5.983  17.128  0.00  0.00    +0.000 A 
BRANCH   8  10
ATOM     10  O   UNL     1      50.820   4.400  18.630  0.00  0.00    +0.000 OA
BRANCH  10  11
ATOM     11  C   UNL     1      51.000   3.464  17.546  0.00  0.00    +0.000 C 
ATOM     12  C   UNL     1      49.972   2.326  17.397  0.00  0.00    +0.000 C 
ATOM     13  N   UNL     1      51.048   1.324  17.408  0.00  0.00    +0.000 NA
ATOM     14  C   UNL     1      52.024   2.341  17.823  0.00  0.00    +0.000 C 
ATOM     15  H   UNL     1      51.242   0.908  16.498  0.00  0.00    +0.000 HD
ENDBRANCH  10  11
ENDBRANCH   8  10
ENDBRANCH   2   4
BRANCH   2  16
ATOM     16  C   UNL     1      48.172   6.637  14.500  0.00  0.00    +0.000 C 
ATOM     17  C   UNL     1      47.610   6.856  13.296  0.00  0.00    +0.000 C 
BRANCH  17  18
ATOM     18  C   UNL     1      46.736   5.872  12.642  0.00  0.00    +0.000 A 
ATOM     19  C   UNL     1      46.127   6.147  11.424  0.00  0.00    +0.000 A 
ATOM     20  C   UNL     1      45.274   5.188  10.870  0.00  0.00    +0.000 A 
ATOM     21  C   UNL     1      45.056   3.981  11.540  0.00  0.00    +0.000 A 
ATOM     22  C   UNL     1      45.722   3.787  12.736  0.00  0.00    +0.000 A 
ATOM     23  N   UNL     1      46.548   4.702  13.297  0.00  0.00    +0.000 NA
BRANCH  21  24
ATOM     24  C   UNL     1      44.127   2.985  10.959  0.00  0.00    +0.000 C 
ATOM     25  N   UNL     1      44.558   2.197   9.925  0.00  0.00    +0.000 N 
ATOM     26  O   UNL     1      42.990   2.854  11.393  0.00  0.00    +0.000 OA
ATOM     27  H   UNL     1      45.476   2.204   9.509  0.00  0.00    +0.000 HD
ATOM     28  H   UNL     1      43.895   1.517   9.573  0.00  0.00    +0.000 HD
ENDBRANCH  21  24
ENDBRANCH  17  18
ENDBRANCH   2  16
TORSDOF 6
ENDMDL
MODEL 9
REMARK VINA RESULT:    -6.179      3.412      8.212
REMARK INTER + INTRA:          -9.143
REMARK INTER:                  -8.145
REMARK INTRA:                  -0.998
REMARK UNBOUND:                -0.796
REMARK  Name = 
REMARK  8 active torsions:
REMARK  status: ('A' for Active; 'I' for Inactive)
REMARK    1  A    between atoms: C_1  and  C_2
REMARK    2  A    between atoms: C_2  and  C_3
REMARK    3  A    between atoms: C_2  and  C_4
REMARK    4  A    between atoms: C_2  and  C_15
REMARK    5  A    between atoms: C_5  and  C_6
REMARK    6  A    between atoms: C_9  and  C_10
REMARK    7  A    between atoms: C_19  and  O_20
REMARK    8  A    between atoms: O_20  and  C_21
REMARK                            x       y       z     vdW  Elec       q    Type
REMARK                         _______ _______ _______ _____ _____    ______ ____
ROOT
ATOM      1  C   UNL     1      47.513   5.038  18.462  0.00  0.00    +0.000 C 
ATOM      2  C   UNL     1      48.164   4.451  17.189  0.00  0.00    +0.000 C 
ATOM      3  C   UNL     1      48.301   2.923  17.395  0.00  0.00    +0.000 C 
ENDROOT
BRANCH   2   4
ATOM      4  C   UNL     1      49.517   5.161  16.992  0.00  0.00    +0.000 A 
ATOM      5  C   UNL     1      50.684   4.618  17.567  0.00  0.00    +0.000 A 
ATOM      6  C   UNL     1      51.935   5.198  17.352  0.00  0.00    +0.000 A 
ATOM      7  C   UNL     1      52.058   6.340  16.561  0.00  0.00    +0.000 A 
ATOM      8  C   UNL     1      50.919   6.906  15.995  0.00  0.00    +0.000 A 
ATOM      9  C   UNL     1      49.667   6.318  16.211  0.00  0.00    +0.000 A 
BRANCH   8  10
ATOM     10  O   UNL     1      50.902   7.996  15.161  0.00  0.00    +0.000 OA
BRANCH  10  11
ATOM     11  C   UNL     1      49.752   8.231  14.320  0.00  0.00    +0.000 C 
ATOM     12  C   UNL     1      49.856   7.844  12.833  0.00  0.00    +0.000 C 
ATOM     13  N   UNL     1      49.452   9.200  12.430  0.00  0.00    +0.000 NA
ATOM     14  C   UNL     1      49.607   9.682  13.810  0.00  0.00    +0.000 C 
ATOM     15  H   UNL     1      48.500   9.264  12.071  0.00  0.00    +0.000 HD
ENDBRANCH  10  11
ENDBRANCH   8  10
ENDBRANCH   2   4
BRANCH   2  16
ATOM     16  C   UNL     1      47.300   4.622  15.942  0.00  0.00    +0.000 C 
ATOM     17  C   UNL     1      47.337   3.907  14.801  0.00  0.00    +0.000 C 
BRANCH  17  18
ATOM     18  C   UNL     1      46.457   4.196  13.660  0.00  0.00    +0.000 A 
ATOM     19  C   UNL     1      46.208   5.501  13.254  0.00  0.00    +0.000 A 
ATOM     20  C   UNL     1      45.330   5.715  12.189  0.00  0.00    +0.000 A 
ATOM     21  C   UNL     1      44.727   4.626  11.553  0.00  0.00    +0.000 A 
ATOM     22  C   UNL     1      45.050   3.362  12.013  0.00  0.00    +0.000 A 
ATOM     23  N   UNL     1      45.893   3.128  13.047  0.00  0.00    +0.000 NA
BRANCH  21  24
ATOM     24  C   UNL     1      43.775   4.866  10.446  0.00  0.00    +0.000 C 
ATOM     25  N   UNL     1      44.078   4.399   9.194  0.00  0.00    +0.000 N 
ATOM     26  O   UNL     1      42.725   5.466  10.635  0.00  0.00    +0.000 OA
ATOM     27  H   UNL     1      44.898   3.875   8.934  0.00  0.00    +0.000 HD
ATOM     28  H   UNL     1      43.388   4.570   8.473  0.00  0.00    +0.000 HD
ENDBRANCH  21  24
ENDBRANCH  17  18
ENDBRANCH   2  16
TORSDOF 6
ENDMDL
