MODEL 1
REMARK VINA RESULT:    -8.134      0.000      0.000
REMARK INTER + INTRA:          -9.176
REMARK INTER:                  -9.561
REMARK INTRA:                   0.385
REMARK UNBOUND:                 0.385
REMARK  Name = 
REMARK  5 active torsions:
REMARK  status: ('A' for Active; 'I' for Inactive)
REMARK    1  A    between atoms: C_1  and  C_2
REMARK    2  A    between atoms: C_2  and  C_3
REMARK    3  A    between atoms: C_2  and  N_4
REMARK    4  A    between atoms: C_2  and  C_14
REMARK    5  A    between atoms: C_8  and  C_9
REMARK                            x       y       z     vdW  Elec       q    Type
REMARK                         _______ _______ _______ _____ _____    ______ ____
ROOT
ATOM      1  N   UNL     1      43.768   4.833   9.861  0.00  0.00    +0.000 N 
ATOM      2  C   UNL     1      44.616   3.953   9.184  0.00  0.00    +0.000 A 
ATOM      3  C   UNL     1      44.813   4.120   7.816  0.00  0.00    +0.000 A 
ATOM      4  C   UNL     1      45.651   3.242   7.119  0.00  0.00    +0.000 A 
ATOM      5  C   UNL     1      46.288   2.207   7.801  0.00  0.00    +0.000 A 
ATOM      6  C   UNL     1      46.027   2.101   9.152  0.00  0.00    +0.000 A 
ATOM      7  N   UNL     1      45.207   2.937   9.835  0.00  0.00    +0.000 NA
ATOM      8  H   UNL     1      44.040   5.788   9.643  0.00  0.00    +0.000 HD
ENDROOT
BRANCH   5   9
ATOM      9  C   UNL     1      47.193   1.281   7.073  0.00  0.00    +0.000 C 
ATOM     10  N   UNL     1      48.297   1.786   6.448  0.00  0.00    +0.000 N 
ATOM     11  O   UNL     1      46.955   0.079   7.026  0.00  0.00    +0.000 OA
ATOM     12  H   UNL     1      48.575   2.753   6.413  0.00  0.00    +0.000 HD
ATOM     13  H   UNL     1      48.882   1.120   5.959  0.00  0.00    +0.000 HD
ENDBRANCH   5   9
BRANCH   1  15
ATOM     14  C   UNL     1      42.293   5.514  11.765  0.00  0.00    +0.000 C 
ATOM     15  C   UNL     1      43.503   4.670  11.312  0.00  0.00    +0.000 C 
ATOM     16  C   UNL     1      43.295   3.174  11.641  0.00  0.00    +0.000 C 
BRANCH  15  17
ATOM     17  C   UNL     1      44.719   5.252  12.087  0.00  0.00    +0.000 A 
ATOM     18  C   UNL     1      45.356   6.441  11.684  0.00  0.00    +0.000 A 
ATOM     19  C   UNL     1      46.519   6.894  12.314  0.00  0.00    +0.000 A 
ATOM     20  C   UNL     1      47.080   6.169  13.365  0.00  0.00    +0.000 A 
ATOM     21 CL   UNL     1      48.535   6.772  14.072  0.00  0.00    +0.000 Cl
ATOM     22  C   UNL     1      46.467   4.987  13.790  0.00  0.00    +0.000 A 
ATOM     23 CL   UNL     1      47.108   4.027  15.076  0.00  0.00    +0.000 Cl
ATOM     24  C   UNL     1      45.303   4.535  13.153  0.00  0.00    +0.000 A 
ENDBRANCH  15  17
ENDBRANCH   1  15
TORSDOF 3
ENDMDL
MODEL 2
REMARK VINA RESULT:    -7.370      4.130      6.514
REMARK INTER + INTRA:          -8.277
REMARK INTER:                  -8.859
REMARK INTRA:                   0.582
REMARK UNBOUND:                 0.385
REMARK  Name = 
REMARK  5 active torsions:
REMARK  status: ('A' for Active; 'I' for Inactive)
REMARK    1  A    between atoms: C_1  and  C_2
REMARK    2  A    between atoms: C_2  and  C_3
REMARK    3  A    between atoms: C_2  and  N_4
REMARK    4  A    between atoms: C_2  and  C_14
REMARK    5  A    between atoms: C_8  and  C_9
REMARK                            x       y       z     vdW  Elec       q    Type
REMARK                         _______ _______ _______ _____ _____    ______ ____
ROOT
ATOM      1  N   UNL     1      45.213   3.568  12.112  0.00  0.00    +0.000 N 
ATOM      2  C   UNL     1      45.830   4.767  12.478  0.00  0.00    +0.000 A 
ATOM      3  C   UNL     1      46.684   4.781  13.577  0.00  0.00    +0.000 A 
ATOM      4  C   UNL     1      47.304   5.975  13.964  0.00  0.00    +0.000 A 
ATOM      5  C   UNL     1      47.065   7.144  13.242  0.00  0.00    +0.000 A 
ATOM      6  C   UNL     1      46.194   7.047  12.177  0.00  0.00    +0.000 A 
ATOM      7  N   UNL     1      45.577   5.899  11.801  0.00  0.00    +0.000 NA
ATOM      8  H   UNL     1      45.920   2.841  12.038  0.00  0.00    +0.000 HD
ENDROOT
BRANCH   5   9
ATOM      9  C   UNL     1      47.732   8.411  13.635  0.00  0.00    +0.000 C 
ATOM     10  N   UNL     1      47.447   8.963  14.851  0.00  0.00    +0.000 N 
ATOM     11  O   UNL     1      48.524   8.963  12.878  0.00  0.00    +0.000 OA
ATOM     12  H   UNL     1      46.805   8.602  15.536  0.00  0.00    +0.000 HD
ATOM     13  H   UNL     1      47.921   9.830  15.074  0.00  0.00    +0.000 HD
ENDBRANCH   5   9
BRANCH   1  15
ATOM     14  C   UNL     1      43.355   2.275  11.046  0.00  0.00    +0.000 C 
ATOM     15  C   UNL     1      44.268   3.515  10.969  0.00  0.00    +0.000 C 
ATOM     16  C   UNL     1      43.438   4.818  10.916  0.00  0.00    +0.000 C 
BRANCH  15  17
ATOM     17  C   UNL     1      45.103   3.327   9.670  0.00  0.00    +0.000 A 
ATOM     18  C   UNL     1      45.333   4.389   8.776  0.00  0.00    +0.000 A 
ATOM     19  C   UNL     1      45.983   4.185   7.554  0.00  0.00    +0.000 A 
ATOM     20  C   UNL     1      46.418   2.911   7.191  0.00  0.00    +0.000 A 
ATOM     21 CL   UNL     1      47.182   2.730   5.653  0.00  0.00    +0.000 Cl
ATOM     22  C   UNL     1      46.206   1.838   8.061  0.00  0.00    +0.000 A 
ATOM     23 CL   UNL     1      46.706   0.228   7.677  0.00  0.00    +0.000 Cl
ATOM     24  C   UNL     1      45.552   2.047   9.283  0.00  0.00    +0.000 A 
ENDBRANCH  15  17
ENDBRANCH   1  15
TORSDOF 3
ENDMDL
MODEL 3
REMARK VINA RESULT:    -6.426      4.262      6.288
REMARK INTER + INTRA:          -7.168
REMARK INTER:                  -7.768
REMARK INTRA:                   0.600
REMARK UNBOUND:                 0.385
REMARK  Name = 
REMARK  5 active torsions:
REMARK  status: ('A' for Active; 'I' for Inactive)
REMARK    1  A    between atoms: C_1  and  C_2
REMARK    2  A    between atoms: C_2  and  C_3
REMARK    3  A    between atoms: C_2  and  N_4
REMARK    4  A    between atoms: C_2  and  C_14
REMARK    5  A    between atoms: C_8  and  C_9
REMARK                            x       y       z     vdW  Elec       q    Type
REMARK                         _______ _______ _______ _____ _____    ______ ____
ROOT
ATOM      1  N   UNL     1      45.214   4.534  12.599  0.00  0.00    +0.000 N 
ATOM      2  C   UNL     1      46.321   5.368  12.777  0.00  0.00    +0.000 A 
ATOM      3  C   UNL     1      47.141   5.178  13.886  0.00  0.00    +0.000 A 
ATOM      4  C   UNL     1      48.249   6.009  14.086  0.00  0.00    +0.000 A 
ATOM      5  C   UNL     1      48.529   7.021  13.169  0.00  0.00    +0.000 A 
ATOM      6  C   UNL     1      47.658   7.152  12.106  0.00  0.00    +0.000 A 
ATOM      7  N   UNL     1      46.575   6.362  11.909  0.00  0.00    +0.000 NA
ATOM      8  H   UNL     1      45.513   3.565  12.672  0.00  0.00    +0.000 HD
ENDROOT
BRANCH   5   9
ATOM      9  C   UNL     1      49.712   7.896  13.364  0.00  0.00    +0.000 C 
ATOM     10  N   UNL     1      50.650   7.548  14.293  0.00  0.00    +0.000 N 
ATOM     11  O   UNL     1      49.848   8.922  12.706  0.00  0.00    +0.000 OA
ATOM     12  H   UNL     1      50.628   6.740  14.893  0.00  0.00    +0.000 HD
ATOM     13  H   UNL     1      51.437   8.177  14.396  0.00  0.00    +0.000 HD
ENDBRANCH   5   9
BRANCH   1  15
ATOM     14  C   UNL     1      43.053   3.817  11.562  0.00  0.00    +0.000 C 
ATOM     15  C   UNL     1      44.295   4.725  11.449  0.00  0.00    +0.000 C 
ATOM     16  C   UNL     1      43.892   6.213  11.343  0.00  0.00    +0.000 C 
BRANCH  15  17
ATOM     17  C   UNL     1      45.033   4.249  10.166  0.00  0.00    +0.000 A 
ATOM     18  C   UNL     1      45.541   5.159   9.220  0.00  0.00    +0.000 A 
ATOM     19  C   UNL     1      46.098   4.723   8.014  0.00  0.00    +0.000 A 
ATOM     20  C   UNL     1      46.159   3.363   7.717  0.00  0.00    +0.000 A 
ATOM     21 CL   UNL     1      46.829   2.901   6.194  0.00  0.00    +0.000 Cl
ATOM     22  C   UNL     1      45.666   2.434   8.638  0.00  0.00    +0.000 A 
ATOM     23 CL   UNL     1      45.696   0.732   8.338  0.00  0.00    +0.000 Cl
ATOM     24  C   UNL     1      45.106   2.876   9.845  0.00  0.00    +0.000 A 
ENDBRANCH  15  17
ENDBRANCH   1  15
TORSDOF 3
ENDMDL
MODEL 4
REMARK VINA RESULT:    -5.878      3.671      5.652
REMARK INTER + INTRA:          -6.524
REMARK INTER:                  -6.883
REMARK INTRA:                   0.359
REMARK UNBOUND:                 0.385
REMARK  Name = 
REMARK  5 active torsions:
REMARK  status: ('A' for Active; 'I' for Inactive)
REMARK    1  A    between atoms: C_1  and  C_2
REMARK    2  A    between atoms: C_2  and  C_3
REMARK    3  A    between atoms: C_2  and  N_4
REMARK    4  A    between atoms: C_2  and  C_14
REMARK    5  A    between atoms: C_8  and  C_9
REMARK                            x       y       z     vdW  Elec       q    Type
REMARK                         _______ _______ _______ _____ _____    ______ ____
ROOT
ATOM      1  N   UNL     1      47.308   6.239  14.061  0.00  0.00    +0.000 N 
ATOM      2  C   UNL     1      46.559   5.624  13.055  0.00  0.00    +0.000 A 
ATOM      3  C   UNL     1      46.015   4.364  13.289  0.00  0.00    +0.000 A 
ATOM      4  C   UNL     1      45.270   3.728  12.289  0.00  0.00    +0.000 A 
ATOM      5  C   UNL     1      45.072   4.365  11.065  0.00  0.00    +0.000 A 
ATOM      6  C   UNL     1      45.658   5.604  10.908  0.00  0.00    +0.000 A 
ATOM      7  N   UNL     1      46.393   6.224  11.864  0.00  0.00    +0.000 NA
ATOM      8  H   UNL     1      46.775   6.225  14.927  0.00  0.00    +0.000 HD
ENDROOT
BRANCH   5   9
ATOM      9  C   UNL     1      44.268   3.705  10.004  0.00  0.00    +0.000 C 
ATOM     10  N   UNL     1      44.079   4.350   8.816  0.00  0.00    +0.000 N 
ATOM     11  O   UNL     1      43.773   2.599  10.190  0.00  0.00    +0.000 OA
ATOM     12  H   UNL     1      44.427   5.261   8.568  0.00  0.00    +0.000 HD
ATOM     13  H   UNL     1      43.519   3.866   8.125  0.00  0.00    +0.000 HD
ENDBRANCH   5   9
BRANCH   1  15
ATOM     14  C   UNL     1      49.075   7.490  12.805  0.00  0.00    +0.000 C 
ATOM     15  C   UNL     1      47.934   7.566  13.841  0.00  0.00    +0.000 C 
ATOM     16  C   UNL     1      46.857   8.589  13.411  0.00  0.00    +0.000 C 
BRANCH  15  17
ATOM     17  C   UNL     1      48.619   7.996  15.170  0.00  0.00    +0.000 A 
ATOM     18  C   UNL     1      49.609   7.207  15.784  0.00  0.00    +0.000 A 
ATOM     19  C   UNL     1      50.135   7.540  17.036  0.00  0.00    +0.000 A 
ATOM     20  C   UNL     1      49.682   8.673  17.711  0.00  0.00    +0.000 A 
ATOM     21 CL   UNL     1      50.353   9.004  19.268  0.00  0.00    +0.000 Cl
ATOM     22  C   UNL     1      48.703   9.479  17.125  0.00  0.00    +0.000 A 
ATOM     23 CL   UNL     1      48.083  10.892  17.903  0.00  0.00    +0.000 Cl
ATOM     24  C   UNL     1      48.177   9.139  15.871  0.00  0.00    +0.000 A 
ENDBRANCH  15  17
ENDBRANCH   1  15
TORSDOF 3
ENDMDL
MODEL 5
REMARK VINA RESULT:    -5.866      3.543      5.445
REMARK INTER + INTRA:          -6.510
REMARK INTER:                  -6.834
REMARK INTRA:                   0.324
REMARK UNBOUND:                 0.385
REMARK  Name = 
REMARK  5 active torsions:
REMARK  status: ('A' for Active; 'I' for Inactive)
REMARK    1  A    between atoms: C_1  and  C_2
REMARK    2  A    between atoms: C_2  and  C_3
REMARK    3  A    between atoms: C_2  and  N_4
REMARK    4  A    between atoms: C_2  and  C_14
REMARK    5  A    between atoms: C_8  and  C_9
REMARK                            x       y       z     vdW  Elec       q    Type
REMARK                         _______ _______ _______ _____ _____    ______ ____
ROOT
ATOM      1  N   UNL     1      47.203   6.233  14.009  0.00  0.00    +0.000 N 
ATOM      2  C   UNL     1      46.479   5.615  12.987  0.00  0.00    +0.000 A 
ATOM      3  C   UNL     1      45.888   4.377  13.227  0.00  0.00    +0.000 A 
ATOM      4  C   UNL     1      45.167   3.739  12.211  0.00  0.00    +0.000 A 
ATOM      5  C   UNL     1      45.040   4.350  10.965  0.00  0.00    +0.000 A 
ATOM      6  C   UNL     1      45.668   5.568  10.805  0.00  0.00    +0.000 A 
ATOM      7  N   UNL     1      46.380   6.190  11.776  0.00  0.00    +0.000 NA
ATOM      8  H   UNL     1      46.634   6.255  14.852  0.00  0.00    +0.000 HD
ENDROOT
BRANCH   5   9
ATOM      9  C   UNL     1      44.261   3.689   9.887  0.00  0.00    +0.000 C 
ATOM     10  N   UNL     1      44.048   4.357   8.716  0.00  0.00    +0.000 N 
ATOM     11  O   UNL     1      43.808   2.560  10.043  0.00  0.00    +0.000 OA
ATOM     12  H   UNL     1      44.361   5.286   8.491  0.00  0.00    +0.000 HD
ATOM     13  H   UNL     1      43.507   3.870   8.011  0.00  0.00    +0.000 HD
ENDBRANCH   5   9
BRANCH   1  15
ATOM     14  C   UNL     1      48.877   7.461  12.613  0.00  0.00    +0.000 C 
ATOM     15  C   UNL     1      47.878   7.535  13.785  0.00  0.00    +0.000 C 
ATOM     16  C   UNL     1      46.821   8.638  13.549  0.00  0.00    +0.000 C 
BRANCH  15  17
ATOM     17  C   UNL     1      48.743   7.846  15.039  0.00  0.00    +0.000 A 
ATOM     18  C   UNL     1      48.469   8.944  15.877  0.00  0.00    +0.000 A 
ATOM     19  C   UNL     1      49.320   9.285  16.934  0.00  0.00    +0.000 A 
ATOM     20  C   UNL     1      50.471   8.538  17.180  0.00  0.00    +0.000 A 
ATOM     21 CL   UNL     1      51.491   9.039  18.481  0.00  0.00    +0.000 Cl
ATOM     22  C   UNL     1      50.767   7.440  16.368  0.00  0.00    +0.000 A 
ATOM     23 CL   UNL     1      52.180   6.473  16.603  0.00  0.00    +0.000 Cl
ATOM     24  C   UNL     1      49.913   7.104  15.308  0.00  0.00    +0.000 A 
ENDBRANCH  15  17
ENDBRANCH   1  15
TORSDOF 3
ENDMDL
MODEL 6
REMARK VINA RESULT:    -5.780      3.857      5.843
REMARK INTER + INTRA:          -6.409
REMARK INTER:                  -6.765
REMARK INTRA:                   0.356
REMARK UNBOUND:                 0.385
REMARK  Name = 
REMARK  5 active torsions:
REMARK  status: ('A' for Active; 'I' for Inactive)
REMARK    1  A    between atoms: C_1  and  C_2
REMARK    2  A    between atoms: C_2  and  C_3
REMARK    3  A    between atoms: C_2  and  N_4
REMARK    4  A    between atoms: C_2  and  C_14
REMARK    5  A    between atoms: C_8  and  C_9
REMARK                            x       y       z     vdW  Elec       q    Type
REMARK                         _______ _______ _______ _____ _____    ______ ____
ROOT
ATOM      1  N   UNL     1      47.756   6.156  14.155  0.00  0.00    +0.000 N 
ATOM      2  C   UNL     1      46.805   5.663  13.259  0.00  0.00    +0.000 A 
ATOM      3  C   UNL     1      46.107   4.502  13.582  0.00  0.00    +0.000 A 
ATOM      4  C   UNL     1      45.157   3.988  12.692  0.00  0.00    +0.000 A 
ATOM      5  C   UNL     1      44.911   4.646  11.487  0.00  0.00    +0.000 A 
ATOM      6  C   UNL     1      45.657   5.780  11.237  0.00  0.00    +0.000 A 
ATOM      7  N   UNL     1      46.589   6.279  12.085  0.00  0.00    +0.000 NA
ATOM      8  H   UNL     1      47.337   6.224  15.079  0.00  0.00    +0.000 HD
ENDROOT
BRANCH   5   9
ATOM      9  C   UNL     1      43.892   4.118  10.545  0.00  0.00    +0.000 C 
ATOM     10  N   UNL     1      43.928   4.513   9.238  0.00  0.00    +0.000 N 
ATOM     11  O   UNL     1      43.024   3.342  10.930  0.00  0.00    +0.000 OA
ATOM     12  H   UNL     1      44.585   5.153   8.824  0.00  0.00    +0.000 HD
ATOM     13  H   UNL     1      43.210   4.133   8.633  0.00  0.00    +0.000 HD
ENDBRANCH   5   9
BRANCH   1  15
ATOM     14  C   UNL     1      49.101   7.321  12.396  0.00  0.00    +0.000 C 
ATOM     15  C   UNL     1      48.547   7.369  13.835  0.00  0.00    +0.000 C 
ATOM     16  C   UNL     1      47.683   8.631  14.059  0.00  0.00    +0.000 C 
BRANCH  15  17
ATOM     17  C   UNL     1      49.802   7.377  14.754  0.00  0.00    +0.000 A 
ATOM     18  C   UNL     1      50.978   8.064  14.400  0.00  0.00    +0.000 A 
ATOM     19  C   UNL     1      52.139   7.970  15.174  0.00  0.00    +0.000 A 
ATOM     20  C   UNL     1      52.158   7.180  16.323  0.00  0.00    +0.000 A 
ATOM     21 CL   UNL     1      53.637   7.085  17.210  0.00  0.00    +0.000 Cl
ATOM     22  C   UNL     1      51.004   6.489  16.702  0.00  0.00    +0.000 A 
ATOM     23 CL   UNL     1      50.951   5.483  18.107  0.00  0.00    +0.000 Cl
ATOM     24  C   UNL     1      49.843   6.585  15.922  0.00  0.00    +0.000 A 
ENDBRANCH  15  17
ENDBRANCH   1  15
TORSDOF 3
ENDMDL
MODEL 7
REMARK VINA RESULT:    -5.725      6.471      8.659
REMARK INTER + INTRA:          -6.344
REMARK INTER:                  -7.084
REMARK INTRA:                   0.740
REMARK UNBOUND:                 0.385
REMARK  Name = 
REMARK  5 active torsions:
REMARK  status: ('A' for Active; 'I' for Inactive)
REMARK    1  A    between atoms: C_1  and  C_2
REMARK    2  A    between atoms: C_2  and  C_3
REMARK    3  A    between atoms: C_2  and  N_4
REMARK    4  A    between atoms: C_2  and  C_14
REMARK    5  A    between atoms: C_8  and  C_9
REMARK                            x       y       z     vdW  Elec       q    Type
REMARK                         _______ _______ _______ _____ _____    ______ ____
ROOT
ATOM      1  N   UNL     1      49.509   4.841  17.909  0.00  0.00    +0.000 N 
ATOM      2  C   UNL     1      50.424   3.788  17.821  0.00  0.00    +0.000 A 
ATOM      3  C   UNL     1      51.756   4.017  18.153  0.00  0.00    +0.000 A 
ATOM      4  C   UNL     1      52.688   2.977  18.062  0.00  0.00    +0.000 A 
ATOM      5  C   UNL     1      52.274   1.713  17.643  0.00  0.00    +0.000 A 
ATOM      6  C   UNL     1      50.940   1.574  17.319  0.00  0.00    +0.000 A 
ATOM      7  N   UNL     1      50.031   2.577  17.390  0.00  0.00    +0.000 NA
ATOM      8  H   UNL     1      49.590   5.274  18.826  0.00  0.00    +0.000 HD
ENDROOT
BRANCH   5   9
ATOM      9  C   UNL     1      53.252   0.599  17.561  0.00  0.00    +0.000 C 
ATOM     10  N   UNL     1      53.058  -0.514  18.327  0.00  0.00    +0.000 N 
ATOM     11  O   UNL     1      54.227   0.674  16.820  0.00  0.00    +0.000 OA
ATOM     12  H   UNL     1      52.304  -0.670  18.975  0.00  0.00    +0.000 HD
ATOM     13  H   UNL     1      53.753  -1.246  18.243  0.00  0.00    +0.000 HD
ENDBRANCH   5   9
BRANCH   1  15
ATOM     14  C   UNL     1      47.688   3.158  17.571  0.00  0.00    +0.000 C 
ATOM     15  C   UNL     1      48.087   4.648  17.532  0.00  0.00    +0.000 C 
ATOM     16  C   UNL     1      47.182   5.493  18.456  0.00  0.00    +0.000 C 
BRANCH  15  17
ATOM     17  C   UNL     1      47.927   5.074  16.045  0.00  0.00    +0.000 A 
ATOM     18  C   UNL     1      48.507   6.254  15.544  0.00  0.00    +0.000 A 
ATOM     19  C   UNL     1      48.261   6.691  14.238  0.00  0.00    +0.000 A 
ATOM     20  C   UNL     1      47.424   5.959  13.397  0.00  0.00    +0.000 A 
ATOM     21 CL   UNL     1      47.141   6.576  11.809  0.00  0.00    +0.000 Cl
ATOM     22  C   UNL     1      46.837   4.780  13.865  0.00  0.00    +0.000 A 
ATOM     23 CL   UNL     1      45.780   3.825  12.887  0.00  0.00    +0.000 Cl
ATOM     24  C   UNL     1      47.084   4.349  15.175  0.00  0.00    +0.000 A 
ENDBRANCH  15  17
ENDBRANCH   1  15
TORSDOF 3
ENDMDL
MODEL 8
REMARK VINA RESULT:    -5.675      4.832      6.904
REMARK INTER + INTRA:          -6.285
REMARK INTER:                  -7.256
REMARK INTRA:                   0.971
REMARK UNBOUND:                 0.385
REMARK  Name = 
REMARK  5 active torsions:
REMARK  status: ('A' for Active; 'I' for Inactive)
REMARK    1  A    between atoms: C_1  and  C_2
REMARK    2  A    between atoms: C_2  and  C_3
REMARK    3  A    between atoms: C_2  and  N_4
REMARK    4  A    between atoms: C_2  and  C_14
REMARK    5  A    between atoms: C_8  and  C_9
REMARK                            x       y       z     vdW  Elec       q    Type
REMARK                         _______ _______ _______ _____ _____    ______ ____
ROOT
ATOM      1  N   UNL     1      48.264   5.736  16.007  0.00  0.00    +0.000 N 
ATOM      2  C   UNL     1      47.534   5.513  14.837  0.00  0.00    +0.000 A 
ATOM      3  C   UNL     1      47.649   6.417  13.784  0.00  0.00    +0.000 A 
ATOM      4  C   UNL     1      46.918   6.216  12.608  0.00  0.00    +0.000 A 
ATOM      5  C   UNL     1      46.082   5.106  12.495  0.00  0.00    +0.000 A 
ATOM      6  C   UNL     1      46.014   4.268  13.589  0.00  0.00    +0.000 A 
ATOM      7  N   UNL     1      46.706   4.460  14.738  0.00  0.00    +0.000 NA
ATOM      8  H   UNL     1      49.238   5.896  15.765  0.00  0.00    +0.000 HD
ENDROOT
BRANCH   5   9
ATOM      9  C   UNL     1      45.317   4.874  11.244  0.00  0.00    +0.000 C 
ATOM     10  N   UNL     1      45.283   5.855  10.294  0.00  0.00    +0.000 N 
ATOM     11  O   UNL     1      44.717   3.820  11.062  0.00  0.00    +0.000 OA
ATOM     12  H   UNL     1      45.725   6.757  10.349  0.00  0.00    +0.000 HD
ATOM     13  H   UNL     1      44.744   5.656   9.460  0.00  0.00    +0.000 HD
ENDBRANCH   5   9
BRANCH   1  15
ATOM     14  C   UNL     1      48.095   5.590  18.500  0.00  0.00    +0.000 C 
ATOM     15  C   UNL     1      48.144   4.816  17.166  0.00  0.00    +0.000 C 
ATOM     16  C   UNL     1      46.898   3.918  16.995  0.00  0.00    +0.000 C 
BRANCH  15  17
ATOM     17  C   UNL     1      49.444   3.966  17.235  0.00  0.00    +0.000 A 
ATOM     18  C   UNL     1      49.426   2.567  17.079  0.00  0.00    +0.000 A 
ATOM     19  C   UNL     1      50.580   1.798  17.259  0.00  0.00    +0.000 A 
ATOM     20  C   UNL     1      51.786   2.407  17.604  0.00  0.00    +0.000 A 
ATOM     21 CL   UNL     1      53.161   1.390  17.843  0.00  0.00    +0.000 Cl
ATOM     22  C   UNL     1      51.836   3.795  17.762  0.00  0.00    +0.000 A 
ATOM     23 CL   UNL     1      53.289   4.621  18.200  0.00  0.00    +0.000 Cl
ATOM     24  C   UNL     1      50.676   4.561  17.583  0.00  0.00    +0.000 A 
ENDBRANCH  15  17
ENDBRANCH   1  15
TORSDOF 3
ENDMDL
MODEL 9
REMARK VINA RESULT:    -5.351      3.768      5.601
REMARK INTER + INTRA:          -5.905
REMARK INTER:                  -6.457
REMARK INTRA:                   0.553
REMARK UNBOUND:                 0.385
REMARK  Name = 
REMARK  5 active torsions:
REMARK  status: ('A' for Active; 'I' for Inactive)
REMARK    1  A    between atoms: C_1  and  C_2
REMARK    2  A    between atoms: C_2  and  C_3
REMARK    3  A    between atoms: C_2  and  N_4
REMARK    4  A    between atoms: C_2  and  C_14
REMARK    5  A    between atoms: C_8  and  C_9
REMARK                            x       y       z     vdW  Elec       q    Type
REMARK                         _______ _______ _______ _____ _____    ______ ____
ROOT
ATOM      1  N   UNL     1      47.040   8.343  12.281  0.00  0.00    +0.000 N 
ATOM      2  C   UNL     1      46.254   7.191  12.199  0.00  0.00    +0.000 A 
ATOM      3  C   UNL     1      44.923   7.304  11.808  0.00  0.00    +0.000 A 
ATOM      4  C   UNL     1      44.118   6.161  11.730  0.00  0.00    +0.000 A 
ATOM      5  C   UNL     1      44.657   4.914  12.041  0.00  0.00    +0.000 A 
ATOM      6  C   UNL     1      45.979   4.890  12.436  0.00  0.00    +0.000 A 
ATOM      7  N   UNL     1      46.765   5.991  12.528  0.00  0.00    +0.000 NA
ATOM      8  H   UNL     1      46.956   8.863  11.411  0.00  0.00    +0.000 HD
ENDROOT
BRANCH   5   9
ATOM      9  C   UNL     1      43.816   3.694  11.944  0.00  0.00    +0.000 C 
ATOM     10  N   UNL     1      44.137   2.603  12.700  0.00  0.00    +0.000 N 
ATOM     11  O   UNL     1      42.847   3.659  11.193  0.00  0.00    +0.000 OA
ATOM     12  H   UNL     1      44.915   2.522  13.333  0.00  0.00    +0.000 HD
ATOM     13  H   UNL     1      43.540   1.792  12.597  0.00  0.00    +0.000 HD
ENDBRANCH   5   9
BRANCH   1  15
ATOM     14  C   UNL     1      49.142   6.986  12.223  0.00  0.00    +0.000 C 
ATOM     15  C   UNL     1      48.453   8.271  12.727  0.00  0.00    +0.000 C 
ATOM     16  C   UNL     1      49.214   9.533  12.260  0.00  0.00    +0.000 C 
BRANCH  15  17
ATOM     17  C   UNL     1      48.457   8.154  14.278  0.00  0.00    +0.000 A 
ATOM     18  C   UNL     1      48.140   9.247  15.106  0.00  0.00    +0.000 A 
ATOM     19  C   UNL     1      48.260   9.167  16.497  0.00  0.00    +0.000 A 
ATOM     20  C   UNL     1      48.704   7.991  17.100  0.00  0.00    +0.000 A 
ATOM     21 CL   UNL     1      48.859   7.977  18.820  0.00  0.00    +0.000 Cl
ATOM     22  C   UNL     1      49.022   6.887  16.304  0.00  0.00    +0.000 A 
ATOM     23 CL   UNL     1      49.589   5.399  16.975  0.00  0.00    +0.000 Cl
ATOM     24  C   UNL     1      48.903   6.973  14.910  0.00  0.00    +0.000 A 
ENDBRANCH  15  17
ENDBRANCH   1  15
TORSDOF 3
ENDMDL
