MODEL 1
REMARK VINA RESULT:    -9.739      0.000      0.000
REMARK INTER + INTRA:         -12.755
REMARK INTER:                 -12.016
REMARK INTRA:                  -0.739
REMARK UNBOUND:                -0.739
REMARK  Name = 
REMARK  4 active torsions:
REMARK  status: ('A' for Active; 'I' for Inactive)
REMARK    1  A    between atoms: C_2  and  C_4
REMARK    2  A    between atoms: N_8  and  C_9
REMARK    3  A    between atoms: C_9  and  C_10
REMARK    4  A    between atoms: C_14  and  C_15
REMARK                            x       y       z     vdW  Elec       q    Type
REMARK                         _______ _______ _______ _____ _____    ______ ____
ROOT
ATOM      1  C   UNL     1      43.904   4.826  11.474  0.00  0.00    +0.000 C 
ATOM      2  C   UNL     1      42.659   4.948  12.343  0.00  0.00    +0.000 C 
ATOM      3  C   UNL     1      42.909   5.952  11.270  0.00  0.00    +0.000 C 
ENDROOT
BRANCH   1   8
ATOM      4  C   UNL     1      46.516   2.751   7.473  0.00  0.00    +0.000 A 
ATOM      5  C   UNL     1      46.122   4.075   7.654  0.00  0.00    +0.000 A 
ATOM      6  C   UNL     1      45.298   4.400   8.735  0.00  0.00    +0.000 A 
ATOM      7  C   UNL     1      44.874   3.401   9.603  0.00  0.00    +0.000 A 
ATOM      8  N   UNL     1      43.942   3.621  10.625  0.00  0.00    +0.000 N 
ATOM      9  N   UNL     1      45.256   2.116   9.440  0.00  0.00    +0.000 NA
ATOM     10  C   UNL     1      46.061   1.817   8.388  0.00  0.00    +0.000 A 
ATOM     11  H   UNL     1      43.893   2.735  11.127  0.00  0.00    +0.000 HD
BRANCH   4  13
ATOM     12  N   UNL     1      47.235   3.008   5.164  0.00  0.00    +0.000 N 
ATOM     13  C   UNL     1      47.338   2.303   6.330  0.00  0.00    +0.000 C 
ATOM     14  O   UNL     1      48.102   1.352   6.426  0.00  0.00    +0.000 OA
ATOM     15  H   UNL     1      47.852   2.731   4.409  0.00  0.00    +0.000 HD
ATOM     16  H   UNL     1      46.802   3.918   5.109  0.00  0.00    +0.000 HD
ENDBRANCH   4  13
ENDBRANCH   1   8
BRANCH   1  17
ATOM     17  C   UNL     1      45.261   5.160  12.086  0.00  0.00    +0.000 A 
ATOM     18  C   UNL     1      46.042   6.230  11.623  0.00  0.00    +0.000 A 
ATOM     19  C   UNL     1      47.215   6.605  12.277  0.00  0.00    +0.000 A 
ATOM     20  C   UNL     1      47.620   5.926  13.428  0.00  0.00    +0.000 A 
ATOM     21  C   UNL     1      46.884   4.840  13.931  0.00  0.00    +0.000 A 
ATOM     22  C   UNL     1      45.726   4.464  13.218  0.00  0.00    +0.000 A 
BRANCH  21  23
ATOM     23  C   UNL     1      47.263   4.156  15.184  0.00  0.00    +0.000 A 
ATOM     24  N   UNL     1      47.853   2.949  15.089  0.00  0.00    +0.000 NA
ATOM     25  C   UNL     1      48.268   2.390  16.243  0.00  0.00    +0.000 A 
ATOM     26  C   UNL     1      48.110   2.979  17.473  0.00  0.00    +0.000 A 
ATOM     27  C   UNL     1      47.484   4.201  17.467  0.00  0.00    +0.000 A 
ATOM     28  N   UNL     1      47.057   4.812  16.348  0.00  0.00    +0.000 NA
ENDBRANCH  21  23
ENDBRANCH   1  17
TORSDOF 4
ENDMDL
MODEL 2
REMARK VINA RESULT:    -8.974      1.997      3.421
REMARK INTER + INTRA:         -11.811
REMARK INTER:                 -10.745
REMARK INTRA:                  -1.067
REMARK UNBOUND:                -0.739
REMARK  Name = 
REMARK  4 active torsions:
REMARK  status: ('A' for Active; 'I' for Inactive)
REMARK    1  A    between atoms: C_2  and  C_4
REMARK    2  A    between atoms: N_8  and  C_9
REMARK    3  A    between atoms: C_9  and  C_10
REMARK    4  A    between atoms: C_14  and  C_15
REMARK                            x       y       z     vdW  Elec       q    Type
REMARK                         _______ _______ _______ _____ _____    ______ ____
ROOT
ATOM      1  C   UNL     1      43.822   4.950  11.354  0.00  0.00    +0.000 C 
ATOM      2  C   UNL     1      42.472   5.261  11.990  0.00  0.00    +0.000 C 
ATOM      3  C   UNL     1      43.068   6.221  11.017  0.00  0.00    +0.000 C 
ENDROOT
BRANCH   1   8
ATOM      4  C   UNL     1      46.554   2.740   7.508  0.00  0.00    +0.000 A 
ATOM      5  C   UNL     1      46.254   4.089   7.691  0.00  0.00    +0.000 A 
ATOM      6  C   UNL     1      45.380   4.461   8.716  0.00  0.00    +0.000 A 
ATOM      7  C   UNL     1      44.813   3.484   9.526  0.00  0.00    +0.000 A 
ATOM      8  N   UNL     1      43.827   3.760  10.481  0.00  0.00    +0.000 N 
ATOM      9  N   UNL     1      45.102   2.175   9.360  0.00  0.00    +0.000 NA
ATOM     10  C   UNL     1      45.958   1.831   8.364  0.00  0.00    +0.000 A 
ATOM     11  H   UNL     1      43.669   2.873  10.957  0.00  0.00    +0.000 HD
BRANCH   4  13
ATOM     12  N   UNL     1      47.536   3.027   5.301  0.00  0.00    +0.000 N 
ATOM     13  C   UNL     1      47.422   2.248   6.418  0.00  0.00    +0.000 C 
ATOM     14  O   UNL     1      48.035   1.194   6.517  0.00  0.00    +0.000 OA
ATOM     15  H   UNL     1      48.185   2.710   4.590  0.00  0.00    +0.000 HD
ATOM     16  H   UNL     1      47.239   3.991   5.271  0.00  0.00    +0.000 HD
ENDBRANCH   4  13
ENDBRANCH   1   8
BRANCH   1  17
ATOM     17  C   UNL     1      45.079   5.058  12.211  0.00  0.00    +0.000 A 
ATOM     18  C   UNL     1      45.528   3.995  13.010  0.00  0.00    +0.000 A 
ATOM     19  C   UNL     1      46.747   4.060  13.682  0.00  0.00    +0.000 A 
ATOM     20  C   UNL     1      47.558   5.189  13.548  0.00  0.00    +0.000 A 
ATOM     21  C   UNL     1      47.156   6.287  12.770  0.00  0.00    +0.000 A 
ATOM     22  C   UNL     1      45.897   6.201  12.140  0.00  0.00    +0.000 A 
BRANCH  21  23
ATOM     23  C   UNL     1      48.033   7.458  12.565  0.00  0.00    +0.000 A 
ATOM     24  N   UNL     1      49.344   7.320  12.841  0.00  0.00    +0.000 NA
ATOM     25  C   UNL     1      50.132   8.376  12.560  0.00  0.00    +0.000 A 
ATOM     26  C   UNL     1      49.666   9.554  12.031  0.00  0.00    +0.000 A 
ATOM     27  C   UNL     1      48.313   9.603  11.800  0.00  0.00    +0.000 A 
ATOM     28  N   UNL     1      47.479   8.578  12.051  0.00  0.00    +0.000 NA
ENDBRANCH  21  23
ENDBRANCH   1  17
TORSDOF 4
ENDMDL
MODEL 3
REMARK VINA RESULT:    -6.913      3.806      8.329
REMARK INTER + INTRA:          -9.269
REMARK INTER:                  -8.364
REMARK INTRA:                  -0.905
REMARK UNBOUND:                -0.739
REMARK  Name = 
REMARK  4 active torsions:
REMARK  status: ('A' for Active; 'I' for Inactive)
REMARK    1  A    between atoms: C_2  and  C_4
REMARK    2  A    between atoms: N_8  and  C_9
REMARK    3  A    between atoms: C_9  and  C_10
REMARK    4  A    between atoms: C_14  and  C_15
REMARK                            x       y       z     vdW  Elec       q    Type
REMARK                         _______ _______ _______ _____ _____    ______ ____
ROOT
ATOM      1  C   UNL     1      48.920   7.924  12.604  0.00  0.00    +0.000 C 
ATOM      2  C   UNL     1      49.886   8.194  11.457  0.00  0.00    +0.000 C 
ATOM      3  C   UNL     1      49.514   9.301  12.383  0.00  0.00    +0.000 C 
ENDROOT
BRANCH   1   8
ATOM      4  C   UNL     1      48.464   6.769  17.663  0.00  0.00    +0.000 A 
ATOM      5  C   UNL     1      48.518   8.026  17.065  0.00  0.00    +0.000 A 
ATOM      6  C   UNL     1      48.790   8.121  15.698  0.00  0.00    +0.000 A 
ATOM      7  C   UNL     1      49.015   6.966  14.958  0.00  0.00    +0.000 A 
ATOM      8  N   UNL     1      49.426   6.982  13.621  0.00  0.00    +0.000 N 
ATOM      9  N   UNL     1      48.958   5.742  15.528  0.00  0.00    +0.000 NA
ATOM     10  C   UNL     1      48.687   5.667  16.857  0.00  0.00    +0.000 A 
ATOM     11  H   UNL     1      49.433   6.002  13.338  0.00  0.00    +0.000 HD
BRANCH   4  13
ATOM     12  N   UNL     1      47.300   5.656  19.485  0.00  0.00    +0.000 N 
ATOM     13  C   UNL     1      48.240   6.574  19.111  0.00  0.00    +0.000 C 
ATOM     14  O   UNL     1      48.885   7.191  19.946  0.00  0.00    +0.000 OA
ATOM     15  H   UNL     1      47.202   5.484  20.479  0.00  0.00    +0.000 HD
ATOM     16  H   UNL     1      46.916   4.972  18.849  0.00  0.00    +0.000 HD
ENDBRANCH   4  13
ENDBRANCH   1   8
BRANCH   1  17
ATOM     17  C   UNL     1      47.444   7.712  12.286  0.00  0.00    +0.000 A 
ATOM     18  C   UNL     1      46.478   8.695  12.549  0.00  0.00    +0.000 A 
ATOM     19  C   UNL     1      45.156   8.542  12.131  0.00  0.00    +0.000 A 
ATOM     20  C   UNL     1      44.779   7.402  11.418  0.00  0.00    +0.000 A 
ATOM     21  C   UNL     1      45.700   6.380  11.135  0.00  0.00    +0.000 A 
ATOM     22  C   UNL     1      47.016   6.553  11.610  0.00  0.00    +0.000 A 
BRANCH  21  23
ATOM     23  C   UNL     1      45.330   5.202  10.324  0.00  0.00    +0.000 A 
ATOM     24  N   UNL     1      45.715   5.180   9.033  0.00  0.00    +0.000 NA
ATOM     25  C   UNL     1      45.441   4.055   8.343  0.00  0.00    +0.000 A 
ATOM     26  C   UNL     1      44.797   2.969   8.884  0.00  0.00    +0.000 A 
ATOM     27  C   UNL     1      44.431   3.095  10.201  0.00  0.00    +0.000 A 
ATOM     28  N   UNL     1      44.685   4.188  10.942  0.00  0.00    +0.000 NA
ENDBRANCH  21  23
ENDBRANCH   1  17
TORSDOF 4
ENDMDL
MODEL 4
REMARK VINA RESULT:    -6.874      3.018      7.590
REMARK INTER + INTRA:          -9.220
REMARK INTER:                  -9.273
REMARK INTRA:                   0.053
REMARK UNBOUND:                -0.739
REMARK  Name = 
REMARK  4 active torsions:
REMARK  status: ('A' for Active; 'I' for Inactive)
REMARK    1  A    between atoms: C_2  and  C_4
REMARK    2  A    between atoms: N_8  and  C_9
REMARK    3  A    between atoms: C_9  and  C_10
REMARK    4  A    between atoms: C_14  and  C_15
REMARK                            x       y       z     vdW  Elec       q    Type
REMARK                         _______ _______ _______ _____ _____    ______ ____
ROOT
ATOM      1  C   UNL     1      48.568   7.842  12.768  0.00  0.00    +0.000 C 
ATOM      2  C   UNL     1      49.711   7.246  11.956  0.00  0.00    +0.000 C 
ATOM      3  C   UNL     1      49.473   8.717  11.923  0.00  0.00    +0.000 C 
ENDROOT
BRANCH   1   8
ATOM      4  C   UNL     1      48.027   4.352  16.598  0.00  0.00    +0.000 A 
ATOM      5  C   UNL     1      47.202   4.559  15.495  0.00  0.00    +0.000 A 
ATOM      6  C   UNL     1      47.445   5.649  14.655  0.00  0.00    +0.000 A 
ATOM      7  C   UNL     1      48.494   6.516  14.938  0.00  0.00    +0.000 A 
ATOM      8  N   UNL     1      48.719   7.702  14.230  0.00  0.00    +0.000 N 
ATOM      9  N   UNL     1      49.303   6.320  16.002  0.00  0.00    +0.000 NA
ATOM     10  C   UNL     1      49.057   5.253  16.805  0.00  0.00    +0.000 A 
ATOM     11  H   UNL     1      49.586   8.075  14.613  0.00  0.00    +0.000 HD
BRANCH   4  13
ATOM     12  N   UNL     1      48.828   2.984  18.443  0.00  0.00    +0.000 N 
ATOM     13  C   UNL     1      47.813   3.260  17.571  0.00  0.00    +0.000 C 
ATOM     14  O   UNL     1      46.759   2.640  17.614  0.00  0.00    +0.000 OA
ATOM     15  H   UNL     1      48.644   2.279  19.147  0.00  0.00    +0.000 HD
ATOM     16  H   UNL     1      49.607   3.608  18.594  0.00  0.00    +0.000 HD
ENDBRANCH   4  13
ENDBRANCH   1   8
BRANCH   1  17
ATOM     17  C   UNL     1      47.136   7.612  12.299  0.00  0.00    +0.000 A 
ATOM     18  C   UNL     1      46.144   8.596  12.429  0.00  0.00    +0.000 A 
ATOM     19  C   UNL     1      44.876   8.423  11.875  0.00  0.00    +0.000 A 
ATOM     20  C   UNL     1      44.581   7.263  11.156  0.00  0.00    +0.000 A 
ATOM     21  C   UNL     1      45.531   6.239  11.002  0.00  0.00    +0.000 A 
ATOM     22  C   UNL     1      46.788   6.433  11.612  0.00  0.00    +0.000 A 
BRANCH  21  23
ATOM     23  C   UNL     1      45.256   5.038  10.188  0.00  0.00    +0.000 A 
ATOM     24  N   UNL     1      45.683   5.031   8.911  0.00  0.00    +0.000 NA
ATOM     25  C   UNL     1      45.496   3.889   8.220  0.00  0.00    +0.000 A 
ATOM     26  C   UNL     1      44.898   2.771   8.747  0.00  0.00    +0.000 A 
ATOM     27  C   UNL     1      44.482   2.882  10.051  0.00  0.00    +0.000 A 
ATOM     28  N   UNL     1      44.650   3.992  10.793  0.00  0.00    +0.000 NA
ENDBRANCH  21  23
ENDBRANCH   1  17
TORSDOF 4
ENDMDL
