MODEL 1
REMARK VINA RESULT:    -8.495      0.000      0.000
REMARK INTER + INTRA:         -12.008
REMARK INTER:                 -10.978
REMARK INTRA:                  -1.030
REMARK UNBOUND:                -1.030
REMARK  Name = 
REMARK  5 active torsions:
REMARK  status: ('A' for Active; 'I' for Inactive)
REMARK    1  A    between atoms: C_2  and  C_3
REMARK    2  A    between atoms: C_6  and  C_7
REMARK    3  A    between atoms: C_7  and  N_8
REMARK    4  A    between atoms: N_8  and  C_9
REMARK    5  A    between atoms: C_12  and  C_13
REMARK                            x       y       z     vdW  Elec       q    Type
REMARK                         _______ _______ _______ _____ _____    ______ ____
ROOT
ATOM      1  N   UNL     1      43.851   4.775  10.089  0.00  0.00    +0.000 N 
ATOM      2  H   UNL     1      43.021   5.127   9.624  0.00  0.00    +0.000 HD
ENDROOT
BRANCH   1   3
ATOM      3  C   UNL     1      44.694   3.984   9.291  0.00  0.00    +0.000 A 
ATOM      4  C   UNL     1      44.748   2.588   9.372  0.00  0.00    +0.000 A 
ATOM      5  C   UNL     1      45.632   1.849   8.578  0.00  0.00    +0.000 A 
ATOM      6  C   UNL     1      46.500   2.500   7.699  0.00  0.00    +0.000 A 
ATOM      7  C   UNL     1      46.489   3.895   7.636  0.00  0.00    +0.000 A 
ATOM      8  C   UNL     1      45.596   4.624   8.430  0.00  0.00    +0.000 A 
BRANCH   6   9
ATOM      9  C   UNL     1      47.445   1.681   6.896  0.00  0.00    +0.000 C 
ATOM     10  N   UNL     1      48.563   2.302   6.412  0.00  0.00    +0.000 N 
ATOM     11  O   UNL     1      47.226   0.501   6.652  0.00  0.00    +0.000 OA
ATOM     12  H   UNL     1      48.675   3.304   6.401  0.00  0.00    +0.000 HD
ATOM     13  H   UNL     1      49.158   1.751   5.807  0.00  0.00    +0.000 HD
ENDBRANCH   6   9
ENDBRANCH   1   3
BRANCH   1  14
ATOM     14  C   UNL     1      43.910   4.871  11.555  0.00  0.00    +0.000 C 
ATOM     15  C   UNL     1      42.620   5.210  12.289  0.00  0.00    +0.000 C 
ATOM     16  C   UNL     1      43.181   3.832  12.387  0.00  0.00    +0.000 C 
BRANCH  14  20
ATOM     17  C   UNL     1      47.692   6.679  12.782  0.00  0.00    +0.000 A 
ATOM     18  C   UNL     1      47.342   5.403  13.234  0.00  0.00    +0.000 A 
ATOM     19  C   UNL     1      46.107   4.843  12.878  0.00  0.00    +0.000 A 
ATOM     20  C   UNL     1      45.192   5.528  12.060  0.00  0.00    +0.000 A 
ATOM     21  C   UNL     1      45.562   6.825  11.658  0.00  0.00    +0.000 A 
ATOM     22  F   UNL     1      44.728   7.543  10.889  0.00  0.00    +0.000 F 
ATOM     23  C   UNL     1      46.788   7.398  12.005  0.00  0.00    +0.000 A 
BRANCH  17  25
ATOM     24  N   UNL     1      50.024   7.670  13.333  0.00  0.00    +0.000 NA
ATOM     25  C   UNL     1      48.982   7.226  13.092  0.00  0.00    +0.000 C 
ENDBRANCH  17  25
ENDBRANCH  14  20
ENDBRANCH   1  14
TORSDOF 5
ENDMDL
MODEL 2
REMARK VINA RESULT:    -8.476      1.133      1.518
REMARK INTER + INTRA:         -11.983
REMARK INTER:                 -11.070
REMARK INTRA:                  -0.913
REMARK UNBOUND:                -1.030
REMARK  Name = 
REMARK  5 active torsions:
REMARK  status: ('A' for Active; 'I' for Inactive)
REMARK    1  A    between atoms: C_2  and  C_3
REMARK    2  A    between atoms: C_6  and  C_7
REMARK    3  A    between atoms: C_7  and  N_8
REMARK    4  A    between atoms: N_8  and  C_9
REMARK    5  A    between atoms: C_12  and  C_13
REMARK                            x       y       z     vdW  Elec       q    Type
REMARK                         _______ _______ _______ _____ _____    ______ ____
ROOT
ATOM      1  N   UNL     1      43.816   4.997   9.783  0.00  0.00    +0.000 N 
ATOM      2  H   UNL     1      43.070   5.390   9.218  0.00  0.00    +0.000 HD
ENDROOT
BRANCH   1   3
ATOM      3  C   UNL     1      44.639   4.068   9.126  0.00  0.00    +0.000 A 
ATOM      4  C   UNL     1      44.602   2.691   9.374  0.00  0.00    +0.000 A 
ATOM      5  C   UNL     1      45.468   1.811   8.716  0.00  0.00    +0.000 A 
ATOM      6  C   UNL     1      46.410   2.300   7.808  0.00  0.00    +0.000 A 
ATOM      7  C   UNL     1      46.490   3.676   7.580  0.00  0.00    +0.000 A 
ATOM      8  C   UNL     1      45.613   4.546   8.239  0.00  0.00    +0.000 A 
BRANCH   6   9
ATOM      9  C   UNL     1      47.334   1.337   7.155  0.00  0.00    +0.000 C 
ATOM     10  N   UNL     1      48.401   1.851   6.473  0.00  0.00    +0.000 N 
ATOM     11  O   UNL     1      47.139   0.128   7.200  0.00  0.00    +0.000 OA
ATOM     12  H   UNL     1      48.481   2.826   6.227  0.00  0.00    +0.000 HD
ATOM     13  H   UNL     1      48.978   1.187   5.972  0.00  0.00    +0.000 HD
ENDBRANCH   6   9
ENDBRANCH   1   3
BRANCH   1  14
ATOM     14  C   UNL     1      43.757   5.204  11.237  0.00  0.00    +0.000 C 
ATOM     15  C   UNL     1      42.530   5.909  11.798  0.00  0.00    +0.000 C 
ATOM     16  C   UNL     1      42.715   4.450  12.042  0.00  0.00    +0.000 C 
BRANCH  14  20
ATOM     17  C   UNL     1      47.502   6.302  13.198  0.00  0.00    +0.000 A 
ATOM     18  C   UNL     1      46.821   7.233  12.409  0.00  0.00    +0.000 A 
ATOM     19  C   UNL     1      45.644   6.866  11.742  0.00  0.00    +0.000 A 
ATOM     20  C   UNL     1      45.108   5.570  11.845  0.00  0.00    +0.000 A 
ATOM     21  C   UNL     1      45.843   4.650  12.614  0.00  0.00    +0.000 A 
ATOM     22  F   UNL     1      45.398   3.389  12.742  0.00  0.00    +0.000 F 
ATOM     23  C   UNL     1      47.018   4.999  13.285  0.00  0.00    +0.000 A 
BRANCH  17  25
ATOM     24  N   UNL     1      49.608   7.018  14.530  0.00  0.00    +0.000 NA
ATOM     25  C   UNL     1      48.671   6.695  13.933  0.00  0.00    +0.000 C 
ENDBRANCH  17  25
ENDBRANCH  14  20
ENDBRANCH   1  14
TORSDOF 5
ENDMDL
MODEL 3
REMARK VINA RESULT:    -6.687      2.912      6.373
REMARK INTER + INTRA:          -9.672
REMARK INTER:                  -9.017
REMARK INTRA:                  -0.655
REMARK UNBOUND:                -1.030
REMARK  Name = 
REMARK  5 active torsions:
REMARK  status: ('A' for Active; 'I' for Inactive)
REMARK    1  A    between atoms: C_2  and  C_3
REMARK    2  A    between atoms: C_6  and  C_7
REMARK    3  A    between atoms: C_7  and  N_8
REMARK    4  A    between atoms: N_8  and  C_9
REMARK    5  A    between atoms: C_12  and  C_13
REMARK                            x       y       z     vdW  Elec       q    Type
REMARK                         _______ _______ _______ _____ _____    ______ ____
ROOT
ATOM      1  N   UNL     1      44.927   4.781  12.500  0.00  0.00    +0.000 N 
ATOM      2  H   UNL     1      44.498   4.272  13.265  0.00  0.00    +0.000 HD
ENDROOT
BRANCH   1   3
ATOM      3  C   UNL     1      46.089   5.497  12.833  0.00  0.00    +0.000 A 
ATOM      4  C   UNL     1      46.697   6.424  11.979  0.00  0.00    +0.000 A 
ATOM      5  C   UNL     1      47.874   7.085  12.346  0.00  0.00    +0.000 A 
ATOM      6  C   UNL     1      48.481   6.812  13.574  0.00  0.00    +0.000 A 
ATOM      7  C   UNL     1      47.910   5.858  14.421  0.00  0.00    +0.000 A 
ATOM      8  C   UNL     1      46.729   5.208  14.046  0.00  0.00    +0.000 A 
BRANCH   6   9
ATOM      9  C   UNL     1      49.747   7.512  13.913  0.00  0.00    +0.000 C 
ATOM     10  N   UNL     1      50.659   7.685  12.910  0.00  0.00    +0.000 N 
ATOM     11  O   UNL     1      49.983   7.898  15.051  0.00  0.00    +0.000 OA
ATOM     12  H   UNL     1      50.606   7.200  12.027  0.00  0.00    +0.000 HD
ATOM     13  H   UNL     1      51.545   8.096  13.172  0.00  0.00    +0.000 HD
ENDBRANCH   6   9
ENDBRANCH   1   3
BRANCH   1  14
ATOM     14  C   UNL     1      44.146   4.952  11.266  0.00  0.00    +0.000 C 
ATOM     15  C   UNL     1      42.629   4.988  11.394  0.00  0.00    +0.000 C 
ATOM     16  C   UNL     1      43.368   6.240  11.065  0.00  0.00    +0.000 C 
BRANCH  14  20
ATOM     17  C   UNL     1      46.013   2.714   8.014  0.00  0.00    +0.000 A 
ATOM     18  C   UNL     1      46.110   4.108   8.055  0.00  0.00    +0.000 A 
ATOM     19  C   UNL     1      45.470   4.829   9.073  0.00  0.00    +0.000 A 
ATOM     20  C   UNL     1      44.726   4.188  10.079  0.00  0.00    +0.000 A 
ATOM     21  C   UNL     1      44.619   2.789   9.981  0.00  0.00    +0.000 A 
ATOM     22  F   UNL     1      43.909   2.113  10.900  0.00  0.00    +0.000 F 
ATOM     23  C   UNL     1      45.249   2.055   8.974  0.00  0.00    +0.000 A 
BRANCH  17  25
ATOM     24  N   UNL     1      47.286   1.374   6.195  0.00  0.00    +0.000 NA
ATOM     25  C   UNL     1      46.721   1.970   7.011  0.00  0.00    +0.000 C 
ENDBRANCH  17  25
ENDBRANCH  14  20
ENDBRANCH   1  14
TORSDOF 5
ENDMDL
MODEL 4
REMARK VINA RESULT:    -6.191      2.773      6.350
REMARK INTER + INTRA:          -9.031
REMARK INTER:                  -8.417
REMARK INTRA:                  -0.613
REMARK UNBOUND:                -1.030
REMARK  Name = 
REMARK  5 active torsions:
REMARK  status: ('A' for Active; 'I' for Inactive)
REMARK    1  A    between atoms: C_2  and  C_3
REMARK    2  A    between atoms: C_6  and  C_7
REMARK    3  A    between atoms: C_7  and  N_8
REMARK    4  A    between atoms: N_8  and  C_9
REMARK    5  A    between atoms: C_12  and  C_13
REMARK                            x       y       z     vdW  Elec       q    Type
REMARK                         _______ _______ _______ _____ _____    ______ ____
ROOT
ATOM      1  N   UNL     1      45.264   4.452  12.538  0.00  0.00    +0.000 N 
ATOM      2  H   UNL     1      45.158   3.865  13.358  0.00  0.00    +0.000 HD
ENDROOT
BRANCH   1   3
ATOM      3  C   UNL     1      46.082   5.581  12.711  0.00  0.00    +0.000 A 
ATOM      4  C   UNL     1      47.466   5.512  12.900  0.00  0.00    +0.000 A 
ATOM      5  C   UNL     1      48.230   6.666  13.102  0.00  0.00    +0.000 A 
ATOM      6  C   UNL     1      47.614   7.919  13.142  0.00  0.00    +0.000 A 
ATOM      7  C   UNL     1      46.227   8.004  12.996  0.00  0.00    +0.000 A 
ATOM      8  C   UNL     1      45.474   6.842  12.788  0.00  0.00    +0.000 A 
BRANCH   6   9
ATOM      9  C   UNL     1      48.456   9.118  13.391  0.00  0.00    +0.000 C 
ATOM     10  N   UNL     1      47.813  10.298  13.643  0.00  0.00    +0.000 N 
ATOM     11  O   UNL     1      49.679   9.064  13.348  0.00  0.00    +0.000 OA
ATOM     12  H   UNL     1      46.828  10.436  13.476  0.00  0.00    +0.000 HD
ATOM     13  H   UNL     1      48.398  11.118  13.738  0.00  0.00    +0.000 HD
ENDBRANCH   6   9
ENDBRANCH   1   3
BRANCH   1  14
ATOM     14  C   UNL     1      44.344   4.232  11.412  0.00  0.00    +0.000 C 
ATOM     15  C   UNL     1      43.035   3.511  11.705  0.00  0.00    +0.000 C 
ATOM     16  C   UNL     1      43.018   4.969  11.396  0.00  0.00    +0.000 C 
BRANCH  14  20
ATOM     17  C   UNL     1      46.179   3.255   7.571  0.00  0.00    +0.000 A 
ATOM     18  C   UNL     1      45.672   2.239   8.388  0.00  0.00    +0.000 A 
ATOM     19  C   UNL     1      45.126   2.549   9.641  0.00  0.00    +0.000 A 
ATOM     20  C   UNL     1      45.062   3.872  10.114  0.00  0.00    +0.000 A 
ATOM     21  C   UNL     1      45.618   4.860   9.282  0.00  0.00    +0.000 A 
ATOM     22  F   UNL     1      45.605   6.143   9.679  0.00  0.00    +0.000 F 
ATOM     23  C   UNL     1      46.166   4.569   8.031  0.00  0.00    +0.000 A 
BRANCH  17  25
ATOM     24  N   UNL     1      47.088   2.691   5.209  0.00  0.00    +0.000 NA
ATOM     25  C   UNL     1      46.678   2.946   6.262  0.00  0.00    +0.000 C 
ENDBRANCH  17  25
ENDBRANCH  14  20
ENDBRANCH   1  14
TORSDOF 5
ENDMDL
MODEL 5
REMARK VINA RESULT:    -5.508      5.033      7.051
REMARK INTER + INTRA:          -8.148
REMARK INTER:                  -7.651
REMARK INTRA:                  -0.497
REMARK UNBOUND:                -1.030
REMARK  Name = 
REMARK  5 active torsions:
REMARK  status: ('A' for Active; 'I' for Inactive)
REMARK    1  A    between atoms: C_2  and  C_3
REMARK    2  A    between atoms: C_6  and  C_7
REMARK    3  A    between atoms: C_7  and  N_8
REMARK    4  A    between atoms: N_8  and  C_9
REMARK    5  A    between atoms: C_12  and  C_13
REMARK                            x       y       z     vdW  Elec       q    Type
REMARK                         _______ _______ _______ _____ _____    ______ ____
ROOT
ATOM      1  N   UNL     1      48.416   5.987  15.927  0.00  0.00    +0.000 N 
ATOM      2  H   UNL     1      48.851   6.903  15.926  0.00  0.00    +0.000 HD
ENDROOT
BRANCH   1   3
ATOM      3  C   UNL     1      47.619   5.699  14.807  0.00  0.00    +0.000 A 
ATOM      4  C   UNL     1      46.892   4.512  14.659  0.00  0.00    +0.000 A 
ATOM      5  C   UNL     1      46.140   4.261  13.507  0.00  0.00    +0.000 A 
ATOM      6  C   UNL     1      46.120   5.189  12.464  0.00  0.00    +0.000 A 
ATOM      7  C   UNL     1      46.873   6.360  12.576  0.00  0.00    +0.000 A 
ATOM      8  C   UNL     1      47.616   6.605  13.737  0.00  0.00    +0.000 A 
BRANCH   6   9
ATOM      9  C   UNL     1      45.334   4.870  11.243  0.00  0.00    +0.000 C 
ATOM     10  N   UNL     1      45.091   5.890  10.366  0.00  0.00    +0.000 N 
ATOM     11  O   UNL     1      44.897   3.745  11.037  0.00  0.00    +0.000 OA
ATOM     12  H   UNL     1      45.239   6.861  10.595  0.00  0.00    +0.000 HD
ATOM     13  H   UNL     1      44.494   5.674   9.578  0.00  0.00    +0.000 HD
ENDBRANCH   6   9
ENDBRANCH   1   3
BRANCH   1  14
ATOM     14  C   UNL     1      48.421   5.227  17.186  0.00  0.00    +0.000 C 
ATOM     15  C   UNL     1      48.118   5.991  18.468  0.00  0.00    +0.000 C 
ATOM     16  C   UNL     1      47.111   5.032  17.928  0.00  0.00    +0.000 C 
BRANCH  14  20
ATOM     17  C   UNL     1      51.517   2.176  17.606  0.00  0.00    +0.000 A 
ATOM     18  C   UNL     1      51.839   3.529  17.747  0.00  0.00    +0.000 A 
ATOM     19  C   UNL     1      50.854   4.510  17.565  0.00  0.00    +0.000 A 
ATOM     20  C   UNL     1      49.526   4.176  17.247  0.00  0.00    +0.000 A 
ATOM     21  C   UNL     1      49.251   2.808  17.075  0.00  0.00    +0.000 A 
ATOM     22  F   UNL     1      48.006   2.418  16.754  0.00  0.00    +0.000 F 
ATOM     23  C   UNL     1      50.220   1.817  17.251  0.00  0.00    +0.000 A 
BRANCH  17  25
ATOM     24  N   UNL     1      53.308   0.357  18.067  0.00  0.00    +0.000 NA
ATOM     25  C   UNL     1      52.509   1.168  17.856  0.00  0.00    +0.000 C 
ENDBRANCH  17  25
ENDBRANCH  14  20
ENDBRANCH   1  14
TORSDOF 5
ENDMDL
