MODEL 1
REMARK VINA RESULT:    -6.807      0.000      0.000
REMARK INTER + INTRA:          -9.443
REMARK INTER:                  -8.399
REMARK INTRA:                  -1.044
REMARK UNBOUND:                -1.044
REMARK  Name = 
REMARK  7 active torsions:
REMARK  status: ('A' for Active; 'I' for Inactive)
REMARK    1  A    between atoms: C_1  and  C_2
REMARK    2  A    between atoms: C_2  and  C_3
REMARK    3  A    between atoms: C_2  and  C_4
REMARK    4  A    between atoms: C_2  and  C_5
REMARK    5  A    between atoms: C_9  and  C_10
REMARK    6  A    between atoms: N_16  and  C_17
REMARK    7  A    between atoms: C_17  and  C_18
REMARK                            x       y       z     vdW  Elec       q    Type
REMARK                         _______ _______ _______ _____ _____    ______ ____
ROOT
ATOM      1  C   UNL     1      44.602   4.131  11.085  0.00  0.00    +0.000 A 
ATOM      2  N   UNL     1      44.937   2.947  10.587  0.00  0.00    +0.000 NA
ATOM      3  C   UNL     1      45.582   3.180   9.415  0.00  0.00    +0.000 A 
ATOM      4  C   UNL     1      46.108   2.285   8.504  0.00  0.00    +0.000 A 
ATOM      5  C   UNL     1      46.670   2.876   7.391  0.00  0.00    +0.000 A 
ATOM      6  N   UNL     1      46.744   4.225   7.183  0.00  0.00    +0.000 NA
ATOM      7  N   UNL     1      46.254   5.085   8.081  0.00  0.00    +0.000 NA
ATOM      8  C   UNL     1      45.673   4.532   9.171  0.00  0.00    +0.000 A 
ATOM      9  N   UNL     1      45.064   5.145  10.245  0.00  0.00    +0.000 N 
ENDROOT
BRANCH   5  10
ATOM     10  C   UNL     1      47.227   1.988   6.323  0.00  0.00    +0.000 C 
ATOM     11  N   UNL     1      47.896   2.588   5.297  0.00  0.00    +0.000 N 
ATOM     12  O   UNL     1      47.079   0.772   6.349  0.00  0.00    +0.000 OA
ATOM     13  H   UNL     1      48.013   3.596   5.252  0.00  0.00    +0.000 HD
ATOM     14  H   UNL     1      48.263   2.007   4.555  0.00  0.00    +0.000 HD
ENDBRANCH   5  10
BRANCH   1  16
ATOM     15  C   UNL     1      44.883   4.614  13.525  0.00  0.00    +0.000 C 
ATOM     16  C   UNL     1      43.881   4.212  12.429  0.00  0.00    +0.000 C 
ATOM     17  C   UNL     1      43.354   2.792  12.793  0.00  0.00    +0.000 C 
ATOM     18  C   UNL     1      42.649   5.121  12.432  0.00  0.00    +0.000 C 
ENDBRANCH   1  16
BRANCH   9  19
ATOM     19  C   UNL     1      45.045   6.598  10.407  0.00  0.00    +0.000 C 
BRANCH  19  20
ATOM     20  C   UNL     1      45.982   7.128  11.475  0.00  0.00    +0.000 A 
ATOM     21  C   UNL     1      47.283   6.597  11.562  0.00  0.00    +0.000 A 
ATOM     22  C   UNL     1      48.120   6.928  12.629  0.00  0.00    +0.000 A 
ATOM     23  C   UNL     1      47.685   7.820  13.606  0.00  0.00    +0.000 A 
ATOM     24  C   UNL     1      46.442   8.434  13.475  0.00  0.00    +0.000 A 
ATOM     25  C   UNL     1      45.605   8.107  12.406  0.00  0.00    +0.000 A 
ENDBRANCH  19  20
ENDBRANCH   9  19
TORSDOF 4
ENDMDL
MODEL 2
REMARK VINA RESULT:    -6.222      4.062      6.063
REMARK INTER + INTRA:          -8.721
REMARK INTER:                  -7.955
REMARK INTRA:                  -0.766
REMARK UNBOUND:                -1.044
REMARK  Name = 
REMARK  7 active torsions:
REMARK  status: ('A' for Active; 'I' for Inactive)
REMARK    1  A    between atoms: C_1  and  C_2
REMARK    2  A    between atoms: C_2  and  C_3
REMARK    3  A    between atoms: C_2  and  C_4
REMARK    4  A    between atoms: C_2  and  C_5
REMARK    5  A    between atoms: C_9  and  C_10
REMARK    6  A    between atoms: N_16  and  C_17
REMARK    7  A    between atoms: C_17  and  C_18
REMARK                            x       y       z     vdW  Elec       q    Type
REMARK                         _______ _______ _______ _____ _____    ______ ____
ROOT
ATOM      1  C   UNL     1      45.362   4.644  12.475  0.00  0.00    +0.000 A 
ATOM      2  N   UNL     1      45.344   4.022  13.649  0.00  0.00    +0.000 NA
ATOM      3  C   UNL     1      46.403   4.491  14.358  0.00  0.00    +0.000 A 
ATOM      4  C   UNL     1      46.840   4.147  15.623  0.00  0.00    +0.000 A 
ATOM      5  C   UNL     1      47.984   4.804  16.024  0.00  0.00    +0.000 A 
ATOM      6  N   UNL     1      48.644   5.739  15.277  0.00  0.00    +0.000 NA
ATOM      7  N   UNL     1      48.202   6.083  14.063  0.00  0.00    +0.000 NA
ATOM      8  C   UNL     1      47.095   5.435  13.633  0.00  0.00    +0.000 A 
ATOM      9  N   UNL     1      46.421   5.550  12.436  0.00  0.00    +0.000 N 
ENDROOT
BRANCH   5  10
ATOM     10  C   UNL     1      48.563   4.466  17.363  0.00  0.00    +0.000 C 
ATOM     11  N   UNL     1      47.690   4.300  18.397  0.00  0.00    +0.000 N 
ATOM     12  O   UNL     1      49.770   4.359  17.537  0.00  0.00    +0.000 OA
ATOM     13  H   UNL     1      46.687   4.402  18.272  0.00  0.00    +0.000 HD
ATOM     14  H   UNL     1      48.062   4.091  19.314  0.00  0.00    +0.000 HD
ENDBRANCH   5  10
BRANCH   1  16
ATOM     15  C   UNL     1      43.115   5.357  11.632  0.00  0.00    +0.000 C 
ATOM     16  C   UNL     1      44.267   4.356  11.449  0.00  0.00    +0.000 C 
ATOM     17  C   UNL     1      43.688   2.938  11.731  0.00  0.00    +0.000 C 
ATOM     18  C   UNL     1      44.756   4.319   9.998  0.00  0.00    +0.000 C 
ENDBRANCH   1  16
BRANCH   9  19
ATOM     19  C   UNL     1      46.793   6.538  11.423  0.00  0.00    +0.000 C 
BRANCH  19  20
ATOM     20  C   UNL     1      46.303   7.945  11.703  0.00  0.00    +0.000 A 
ATOM     21  C   UNL     1      44.948   8.251  11.472  0.00  0.00    +0.000 A 
ATOM     22  C   UNL     1      44.489   9.568  11.552  0.00  0.00    +0.000 A 
ATOM     23  C   UNL     1      45.366  10.592  11.898  0.00  0.00    +0.000 A 
ATOM     24  C   UNL     1      46.683  10.288  12.233  0.00  0.00    +0.000 A 
ATOM     25  C   UNL     1      47.143   8.972  12.158  0.00  0.00    +0.000 A 
ENDBRANCH  19  20
ENDBRANCH   9  19
TORSDOF 4
ENDMDL
MODEL 3
REMARK VINA RESULT:    -5.999      4.089      6.970
REMARK INTER + INTRA:          -8.446
REMARK INTER:                  -7.767
REMARK INTRA:                  -0.679
REMARK UNBOUND:                -1.044
REMARK  Name = 
REMARK  7 active torsions:
REMARK  status: ('A' for Active; 'I' for Inactive)
REMARK    1  A    between atoms: C_1  and  C_2
REMARK    2  A    between atoms: C_2  and  C_3
REMARK    3  A    between atoms: C_2  and  C_4
REMARK    4  A    between atoms: C_2  and  C_5
REMARK    5  A    between atoms: C_9  and  C_10
REMARK    6  A    between atoms: N_16  and  C_17
REMARK    7  A    between atoms: C_17  and  C_18
REMARK                            x       y       z     vdW  Elec       q    Type
REMARK                         _______ _______ _______ _____ _____    ______ ____
ROOT
ATOM      1  C   UNL     1      47.920   7.761  13.315  0.00  0.00    +0.000 A 
ATOM      2  N   UNL     1      48.266   7.494  14.569  0.00  0.00    +0.000 NA
ATOM      3  C   UNL     1      47.964   6.189  14.791  0.00  0.00    +0.000 A 
ATOM      4  C   UNL     1      48.107   5.434  15.940  0.00  0.00    +0.000 A 
ATOM      5  C   UNL     1      47.660   4.134  15.821  0.00  0.00    +0.000 A 
ATOM      6  N   UNL     1      47.139   3.595  14.677  0.00  0.00    +0.000 NA
ATOM      7  N   UNL     1      47.026   4.326  13.563  0.00  0.00    +0.000 NA
ATOM      8  C   UNL     1      47.433   5.612  13.659  0.00  0.00    +0.000 A 
ATOM      9  N   UNL     1      47.420   6.609  12.707  0.00  0.00    +0.000 N 
ENDROOT
BRANCH   5  10
ATOM     10  C   UNL     1      47.729   3.248  17.024  0.00  0.00    +0.000 C 
ATOM     11  N   UNL     1      48.967   2.965  17.522  0.00  0.00    +0.000 N 
ATOM     12  O   UNL     1      46.723   2.775  17.539  0.00  0.00    +0.000 OA
ATOM     13  H   UNL     1      49.812   3.337  17.097  0.00  0.00    +0.000 HD
ATOM     14  H   UNL     1      49.037   2.353  18.323  0.00  0.00    +0.000 HD
ENDBRANCH   5  10
BRANCH   1  16
ATOM     15  C   UNL     1      49.288   9.090  11.692  0.00  0.00    +0.000 C 
ATOM     16  C   UNL     1      48.165   9.155  12.741  0.00  0.00    +0.000 C 
ATOM     17  C   UNL     1      48.668  10.079  13.890  0.00  0.00    +0.000 C 
ATOM     18  C   UNL     1      46.913   9.838  12.184  0.00  0.00    +0.000 C 
ENDBRANCH   1  16
BRANCH   9  19
ATOM     19  C   UNL     1      47.016   6.361  11.323  0.00  0.00    +0.000 C 
BRANCH  19  20
ATOM     20  C   UNL     1      45.568   5.944  11.153  0.00  0.00    +0.000 A 
ATOM     21  C   UNL     1      44.561   6.728  11.747  0.00  0.00    +0.000 A 
ATOM     22  C   UNL     1      43.234   6.294  11.762  0.00  0.00    +0.000 A 
ATOM     23  C   UNL     1      42.886   5.091  11.154  0.00  0.00    +0.000 A 
ATOM     24  C   UNL     1      43.854   4.359  10.470  0.00  0.00    +0.000 A 
ATOM     25  C   UNL     1      45.181   4.793  10.451  0.00  0.00    +0.000 A 
ENDBRANCH  19  20
ENDBRANCH   9  19
TORSDOF 4
ENDMDL
MODEL 4
REMARK VINA RESULT:    -5.999      4.848      7.656
REMARK INTER + INTRA:          -8.446
REMARK INTER:                  -7.382
REMARK INTRA:                  -1.064
REMARK UNBOUND:                -1.044
REMARK  Name = 
REMARK  7 active torsions:
REMARK  status: ('A' for Active; 'I' for Inactive)
REMARK    1  A    between atoms: C_1  and  C_2
REMARK    2  A    between atoms: C_2  and  C_3
REMARK    3  A    between atoms: C_2  and  C_4
REMARK    4  A    between atoms: C_2  and  C_5
REMARK    5  A    between atoms: C_9  and  C_10
REMARK    6  A    between atoms: N_16  and  C_17
REMARK    7  A    between atoms: C_17  and  C_18
REMARK                            x       y       z     vdW  Elec       q    Type
REMARK                         _______ _______ _______ _____ _____    ______ ____
ROOT
ATOM      1  C   UNL     1      47.538   6.539  13.760  0.00  0.00    +0.000 A 
ATOM      2  N   UNL     1      48.106   6.901  14.904  0.00  0.00    +0.000 NA
ATOM      3  C   UNL     1      48.096   5.809  15.711  0.00  0.00    +0.000 A 
ATOM      4  C   UNL     1      48.546   5.667  17.010  0.00  0.00    +0.000 A 
ATOM      5  C   UNL     1      48.345   4.411  17.544  0.00  0.00    +0.000 A 
ATOM      6  N   UNL     1      47.779   3.364  16.871  0.00  0.00    +0.000 NA
ATOM      7  N   UNL     1      47.368   3.503  15.606  0.00  0.00    +0.000 NA
ATOM      8  C   UNL     1      47.529   4.732  15.066  0.00  0.00    +0.000 A 
ATOM      9  N   UNL     1      47.188   5.190  13.811  0.00  0.00    +0.000 N 
ENDROOT
BRANCH   5  10
ATOM     10  C   UNL     1      48.757   4.170  18.962  0.00  0.00    +0.000 C 
ATOM     11  N   UNL     1      48.341   3.009  19.546  0.00  0.00    +0.000 N 
ATOM     12  O   UNL     1      49.426   4.982  19.589  0.00  0.00    +0.000 OA
ATOM     13  H   UNL     1      47.772   2.333  19.044  0.00  0.00    +0.000 HD
ATOM     14  H   UNL     1      48.592   2.837  20.509  0.00  0.00    +0.000 HD
ENDBRANCH   5  10
BRANCH   1  16
ATOM     15  C   UNL     1      48.232   8.810  12.965  0.00  0.00    +0.000 C 
ATOM     16  C   UNL     1      47.425   7.548  12.618  0.00  0.00    +0.000 C 
ATOM     17  C   UNL     1      45.935   7.982  12.489  0.00  0.00    +0.000 C 
ATOM     18  C   UNL     1      47.811   6.993  11.244  0.00  0.00    +0.000 C 
ENDBRANCH   1  16
BRANCH   9  19
ATOM     19  C   UNL     1      46.645   4.307  12.780  0.00  0.00    +0.000 C 
BRANCH  19  20
ATOM     20  C   UNL     1      45.194   4.569  12.423  0.00  0.00    +0.000 A 
ATOM     21  C   UNL     1      44.839   4.686  11.066  0.00  0.00    +0.000 A 
ATOM     22  C   UNL     1      43.555   5.093  10.696  0.00  0.00    +0.000 A 
ATOM     23  C   UNL     1      42.599   5.356  11.672  0.00  0.00    +0.000 A 
ATOM     24  C   UNL     1      42.905   5.142  13.013  0.00  0.00    +0.000 A 
ATOM     25  C   UNL     1      44.186   4.730  13.385  0.00  0.00    +0.000 A 
ENDBRANCH  19  20
ENDBRANCH   9  19
TORSDOF 4
ENDMDL
MODEL 5
REMARK VINA RESULT:    -5.935      4.613      7.061
REMARK INTER + INTRA:          -8.367
REMARK INTER:                  -7.575
REMARK INTRA:                  -0.792
REMARK UNBOUND:                -1.044
REMARK  Name = 
REMARK  7 active torsions:
REMARK  status: ('A' for Active; 'I' for Inactive)
REMARK    1  A    between atoms: C_1  and  C_2
REMARK    2  A    between atoms: C_2  and  C_3
REMARK    3  A    between atoms: C_2  and  C_4
REMARK    4  A    between atoms: C_2  and  C_5
REMARK    5  A    between atoms: C_9  and  C_10
REMARK    6  A    between atoms: N_16  and  C_17
REMARK    7  A    between atoms: C_17  and  C_18
REMARK                            x       y       z     vdW  Elec       q    Type
REMARK                         _______ _______ _______ _____ _____    ______ ____
ROOT
ATOM      1  C   UNL     1      48.822   6.727  15.166  0.00  0.00    +0.000 A 
ATOM      2  N   UNL     1      48.373   6.934  13.934  0.00  0.00    +0.000 NA
ATOM      3  C   UNL     1      47.462   5.960  13.679  0.00  0.00    +0.000 A 
ATOM      4  C   UNL     1      46.727   5.718  12.534  0.00  0.00    +0.000 A 
ATOM      5  C   UNL     1      45.910   4.608  12.610  0.00  0.00    +0.000 A 
ATOM      6  N   UNL     1      45.790   3.809  13.713  0.00  0.00    +0.000 NA
ATOM      7  N   UNL     1      46.487   4.065  14.825  0.00  0.00    +0.000 NA
ATOM      8  C   UNL     1      47.315   5.132  14.769  0.00  0.00    +0.000 A 
ATOM      9  N   UNL     1      48.170   5.630  15.729  0.00  0.00    +0.000 N 
ENDROOT
BRANCH   5  10
ATOM     10  C   UNL     1      45.107   4.235  11.404  0.00  0.00    +0.000 C 
ATOM     11  N   UNL     1      44.701   2.937  11.300  0.00  0.00    +0.000 N 
ATOM     12  O   UNL     1      44.835   5.049  10.530  0.00  0.00    +0.000 OA
ATOM     13  H   UNL     1      44.932   2.247  12.009  0.00  0.00    +0.000 HD
ATOM     14  H   UNL     1      44.174   2.660  10.483  0.00  0.00    +0.000 HD
ENDBRANCH   5  10
BRANCH   1  16
ATOM     15  C   UNL     1      49.348   8.183  17.134  0.00  0.00    +0.000 C 
ATOM     16  C   UNL     1      49.850   7.683  15.769  0.00  0.00    +0.000 C 
ATOM     17  C   UNL     1      49.966   8.930  14.843  0.00  0.00    +0.000 C 
ATOM     18  C   UNL     1      51.267   7.110  15.865  0.00  0.00    +0.000 C 
ENDBRANCH   1  16
BRANCH   9  19
ATOM     19  C   UNL     1      48.231   5.077  17.082  0.00  0.00    +0.000 C 
BRANCH  19  20
ATOM     20  C   UNL     1      49.300   4.021  17.286  0.00  0.00    +0.000 A 
ATOM     21  C   UNL     1      50.552   4.412  17.796  0.00  0.00    +0.000 A 
ATOM     22  C   UNL     1      51.619   3.511  17.841  0.00  0.00    +0.000 A 
ATOM     23  C   UNL     1      51.441   2.199  17.412  0.00  0.00    +0.000 A 
ATOM     24  C   UNL     1      50.180   1.770  17.006  0.00  0.00    +0.000 A 
ATOM     25  C   UNL     1      49.111   2.669  16.964  0.00  0.00    +0.000 A 
ENDBRANCH  19  20
ENDBRANCH   9  19
TORSDOF 4
ENDMDL
MODEL 6
REMARK VINA RESULT:    -5.863      3.178      5.336
REMARK INTER + INTRA:          -8.278
REMARK INTER:                  -7.319
REMARK INTRA:                  -0.959
REMARK UNBOUND:                -1.044
REMARK  Name = 
REMARK  7 active torsions:
REMARK  status: ('A' for Active; 'I' for Inactive)
REMARK    1  A    between atoms: C_1  and  C_2
REMARK    2  A    between atoms: C_2  and  C_3
REMARK    3  A    between atoms: C_2  and  C_4
REMARK    4  A    between atoms: C_2  and  C_5
REMARK    5  A    between atoms: C_9  and  C_10
REMARK    6  A    between atoms: N_16  and  C_17
REMARK    7  A    between atoms: C_17  and  C_18
REMARK                            x       y       z     vdW  Elec       q    Type
REMARK                         _______ _______ _______ _____ _____    ______ ____
ROOT
ATOM      1  C   UNL     1      47.998   6.787  14.381  0.00  0.00    +0.000 A 
ATOM      2  N   UNL     1      47.580   5.530  14.482  0.00  0.00    +0.000 NA
ATOM      3  C   UNL     1      46.778   5.296  13.411  0.00  0.00    +0.000 A 
ATOM      4  C   UNL     1      46.078   4.155  13.066  0.00  0.00    +0.000 A 
ATOM      5  C   UNL     1      45.326   4.280  11.916  0.00  0.00    +0.000 A 
ATOM      6  N   UNL     1      45.273   5.406  11.143  0.00  0.00    +0.000 NA
ATOM      7  N   UNL     1      45.972   6.498  11.471  0.00  0.00    +0.000 NA
ATOM      8  C   UNL     1      46.697   6.412  12.609  0.00  0.00    +0.000 A 
ATOM      9  N   UNL     1      47.491   7.362  13.215  0.00  0.00    +0.000 N 
ENDROOT
BRANCH   5  10
ATOM     10  C   UNL     1      44.496   3.113  11.483  0.00  0.00    +0.000 C 
ATOM     11  N   UNL     1      43.853   2.406  12.457  0.00  0.00    +0.000 N 
ATOM     12  O   UNL     1      44.403   2.786  10.306  0.00  0.00    +0.000 OA
ATOM     13  H   UNL     1      43.934   2.655  13.438  0.00  0.00    +0.000 HD
ATOM     14  H   UNL     1      43.303   1.602  12.187  0.00  0.00    +0.000 HD
ENDBRANCH   5  10
BRANCH   1  16
ATOM     15  C   UNL     1      50.389   7.341  14.876  0.00  0.00    +0.000 C 
ATOM     16  C   UNL     1      48.954   7.353  15.429  0.00  0.00    +0.000 C 
ATOM     17  C   UNL     1      48.937   6.414  16.671  0.00  0.00    +0.000 C 
ATOM     18  C   UNL     1      48.565   8.738  15.956  0.00  0.00    +0.000 C 
ENDBRANCH   1  16
BRANCH   9  19
ATOM     19  C   UNL     1      47.748   8.667  12.608  0.00  0.00    +0.000 C 
BRANCH  19  20
ATOM     20  C   UNL     1      49.122   8.816  11.985  0.00  0.00    +0.000 A 
ATOM     21  C   UNL     1      49.717   7.694  11.377  0.00  0.00    +0.000 A 
ATOM     22  C   UNL     1      51.044   7.736  10.942  0.00  0.00    +0.000 A 
ATOM     23  C   UNL     1      51.784   8.907  11.075  0.00  0.00    +0.000 A 
ATOM     24  C   UNL     1      51.175  10.055  11.576  0.00  0.00    +0.000 A 
ATOM     25  C   UNL     1      49.847  10.016  12.007  0.00  0.00    +0.000 A 
ENDBRANCH  19  20
ENDBRANCH   9  19
TORSDOF 4
ENDMDL
MODEL 7
REMARK VINA RESULT:    -5.802      4.452      6.304
REMARK INTER + INTRA:          -8.203
REMARK INTER:                  -7.544
REMARK INTRA:                  -0.659
REMARK UNBOUND:                -1.044
REMARK  Name = 
REMARK  7 active torsions:
REMARK  status: ('A' for Active; 'I' for Inactive)
REMARK    1  A    between atoms: C_1  and  C_2
REMARK    2  A    between atoms: C_2  and  C_3
REMARK    3  A    between atoms: C_2  and  C_4
REMARK    4  A    between atoms: C_2  and  C_5
REMARK    5  A    between atoms: C_9  and  C_10
REMARK    6  A    between atoms: N_16  and  C_17
REMARK    7  A    between atoms: C_17  and  C_18
REMARK                            x       y       z     vdW  Elec       q    Type
REMARK                         _______ _______ _______ _____ _____    ______ ____
ROOT
ATOM      1  C   UNL     1      46.097   4.914  12.948  0.00  0.00    +0.000 A 
ATOM      2  N   UNL     1      46.316   3.762  13.572  0.00  0.00    +0.000 NA
ATOM      3  C   UNL     1      47.149   4.031  14.611  0.00  0.00    +0.000 A 
ATOM      4  C   UNL     1      47.695   3.175  15.548  0.00  0.00    +0.000 A 
ATOM      5  C   UNL     1      48.536   3.789  16.453  0.00  0.00    +0.000 A 
ATOM      6  N   UNL     1      48.810   5.128  16.470  0.00  0.00    +0.000 NA
ATOM      7  N   UNL     1      48.259   5.953  15.574  0.00  0.00    +0.000 NA
ATOM      8  C   UNL     1      47.450   5.373  14.659  0.00  0.00    +0.000 A 
ATOM      9  N   UNL     1      46.764   5.945  13.608  0.00  0.00    +0.000 N 
ENDROOT
BRANCH   5  10
ATOM     10  C   UNL     1      49.214   2.938  17.480  0.00  0.00    +0.000 C 
ATOM     11  N   UNL     1      48.778   3.047  18.768  0.00  0.00    +0.000 N 
ATOM     12  O   UNL     1      50.135   2.184  17.191  0.00  0.00    +0.000 OA
ATOM     13  H   UNL     1      48.027   3.680  19.026  0.00  0.00    +0.000 HD
ATOM     14  H   UNL     1      49.236   2.495  19.481  0.00  0.00    +0.000 HD
ENDBRANCH   5  10
BRANCH   1  16
ATOM     15  C   UNL     1      43.802   5.534  12.159  0.00  0.00    +0.000 C 
ATOM     16  C   UNL     1      45.163   4.954  11.739  0.00  0.00    +0.000 C 
ATOM     17  C   UNL     1      44.908   3.493  11.264  0.00  0.00    +0.000 C 
ATOM     18  C   UNL     1      45.736   5.687  10.523  0.00  0.00    +0.000 C 
ENDBRANCH   1  16
BRANCH   9  19
ATOM     19  C   UNL     1      46.747   7.389  13.382  0.00  0.00    +0.000 C 
BRANCH  19  20
ATOM     20  C   UNL     1      47.910   7.914  12.561  0.00  0.00    +0.000 A 
ATOM     21  C   UNL     1      48.941   7.027  12.198  0.00  0.00    +0.000 A 
ATOM     22  C   UNL     1      50.108   7.497  11.592  0.00  0.00    +0.000 A 
ATOM     23  C   UNL     1      50.248   8.852  11.307  0.00  0.00    +0.000 A 
ATOM     24  C   UNL     1      49.193   9.724  11.563  0.00  0.00    +0.000 A 
ATOM     25  C   UNL     1      48.023   9.255  12.165  0.00  0.00    +0.000 A 
ENDBRANCH  19  20
ENDBRANCH   9  19
TORSDOF 4
ENDMDL
MODEL 8
REMARK VINA RESULT:    -5.791      4.084      5.899
REMARK INTER + INTRA:          -8.189
REMARK INTER:                  -7.215
REMARK INTRA:                  -0.974
REMARK UNBOUND:                -1.044
REMARK  Name = 
REMARK  7 active torsions:
REMARK  status: ('A' for Active; 'I' for Inactive)
REMARK    1  A    between atoms: C_1  and  C_2
REMARK    2  A    between atoms: C_2  and  C_3
REMARK    3  A    between atoms: C_2  and  C_4
REMARK    4  A    between atoms: C_2  and  C_5
REMARK    5  A    between atoms: C_9  and  C_10
REMARK    6  A    between atoms: N_16  and  C_17
REMARK    7  A    between atoms: C_17  and  C_18
REMARK                            x       y       z     vdW  Elec       q    Type
REMARK                         _______ _______ _______ _____ _____    ______ ____
ROOT
ATOM      1  C   UNL     1      47.707   4.869  15.894  0.00  0.00    +0.000 A 
ATOM      2  N   UNL     1      46.764   4.290  15.159  0.00  0.00    +0.000 NA
ATOM      3  C   UNL     1      46.714   4.965  13.982  0.00  0.00    +0.000 A 
ATOM      4  C   UNL     1      45.888   4.774  12.890  0.00  0.00    +0.000 A 
ATOM      5  C   UNL     1      46.088   5.676  11.865  0.00  0.00    +0.000 A 
ATOM      6  N   UNL     1      47.028   6.669  11.879  0.00  0.00    +0.000 NA
ATOM      7  N   UNL     1      47.839   6.832  12.930  0.00  0.00    +0.000 NA
ATOM      8  C   UNL     1      47.647   5.977  13.960  0.00  0.00    +0.000 A 
ATOM      9  N   UNL     1      48.297   5.907  15.174  0.00  0.00    +0.000 N 
ENDROOT
BRANCH   5  10
ATOM     10  C   UNL     1      45.211   5.581  10.657  0.00  0.00    +0.000 C 
ATOM     11  N   UNL     1      43.911   5.969  10.795  0.00  0.00    +0.000 N 
ATOM     12  O   UNL     1      45.629   5.157   9.586  0.00  0.00    +0.000 OA
ATOM     13  H   UNL     1      43.546   6.307  11.681  0.00  0.00    +0.000 HD
ATOM     14  H   UNL     1      43.297   5.894   9.995  0.00  0.00    +0.000 HD
ENDBRANCH   5  10
BRANCH   1  16
ATOM     15  C   UNL     1      49.546   4.061  17.389  0.00  0.00    +0.000 C 
ATOM     16  C   UNL     1      48.033   4.315  17.280  0.00  0.00    +0.000 C 
ATOM     17  C   UNL     1      47.328   2.936  17.439  0.00  0.00    +0.000 C 
ATOM     18  C   UNL     1      47.522   5.175  18.440  0.00  0.00    +0.000 C 
ENDBRANCH   1  16
BRANCH   9  19
ATOM     19  C   UNL     1      49.439   6.762  15.497  0.00  0.00    +0.000 C 
BRANCH  19  20
ATOM     20  C   UNL     1      49.149   7.843  16.521  0.00  0.00    +0.000 A 
ATOM     21  C   UNL     1      49.792   7.784  17.772  0.00  0.00    +0.000 A 
ATOM     22  C   UNL     1      49.432   8.654  18.803  0.00  0.00    +0.000 A 
ATOM     23  C   UNL     1      48.451   9.619  18.590  0.00  0.00    +0.000 A 
ATOM     24  C   UNL     1      47.883   9.758  17.326  0.00  0.00    +0.000 A 
ATOM     25  C   UNL     1      48.245   8.891  16.293  0.00  0.00    +0.000 A 
ENDBRANCH  19  20
ENDBRANCH   9  19
TORSDOF 4
ENDMDL
MODEL 9
REMARK VINA RESULT:    -5.283      3.882      6.133
REMARK INTER + INTRA:          -7.562
REMARK INTER:                  -7.050
REMARK INTRA:                  -0.512
REMARK UNBOUND:                -1.044
REMARK  Name = 
REMARK  7 active torsions:
REMARK  status: ('A' for Active; 'I' for Inactive)
REMARK    1  A    between atoms: C_1  and  C_2
REMARK    2  A    between atoms: C_2  and  C_3
REMARK    3  A    between atoms: C_2  and  C_4
REMARK    4  A    between atoms: C_2  and  C_5
REMARK    5  A    between atoms: C_9  and  C_10
REMARK    6  A    between atoms: N_16  and  C_17
REMARK    7  A    between atoms: C_17  and  C_18
REMARK                            x       y       z     vdW  Elec       q    Type
REMARK                         _______ _______ _______ _____ _____    ______ ____
ROOT
ATOM      1  C   UNL     1      47.633   8.079  12.705  0.00  0.00    +0.000 A 
ATOM      2  N   UNL     1      46.462   7.857  12.117  0.00  0.00    +0.000 NA
ATOM      3  C   UNL     1      46.099   6.587  12.431  0.00  0.00    +0.000 A 
ATOM      4  C   UNL     1      44.981   5.870  12.050  0.00  0.00    +0.000 A 
ATOM      5  C   UNL     1      44.947   4.577  12.531  0.00  0.00    +0.000 A 
ATOM      6  N   UNL     1      45.903   4.025  13.337  0.00  0.00    +0.000 NA
ATOM      7  N   UNL     1      46.970   4.734  13.721  0.00  0.00    +0.000 NA
ATOM      8  C   UNL     1      47.041   5.997  13.243  0.00  0.00    +0.000 A 
ATOM      9  N   UNL     1      48.015   6.954  13.436  0.00  0.00    +0.000 N 
ENDROOT
BRANCH   5  10
ATOM     10  C   UNL     1      43.798   3.704  12.135  0.00  0.00    +0.000 C 
ATOM     11  N   UNL     1      43.823   2.407  12.559  0.00  0.00    +0.000 N 
ATOM     12  O   UNL     1      42.876   4.120  11.445  0.00  0.00    +0.000 OA
ATOM     13  H   UNL     1      44.589   2.043  13.118  0.00  0.00    +0.000 HD
ATOM     14  H   UNL     1      43.066   1.796  12.286  0.00  0.00    +0.000 HD
ENDBRANCH   5  10
BRANCH   1  16
ATOM     15  C   UNL     1      47.408  10.374  11.731  0.00  0.00    +0.000 C 
ATOM     16  C   UNL     1      48.303   9.445  12.568  0.00  0.00    +0.000 C 
ATOM     17  C   UNL     1      49.634   9.264  11.782  0.00  0.00    +0.000 C 
ATOM     18  C   UNL     1      48.696  10.091  13.899  0.00  0.00    +0.000 C 
ENDBRANCH   1  16
BRANCH   9  19
ATOM     19  C   UNL     1      49.150   6.741  14.333  0.00  0.00    +0.000 C 
BRANCH  19  20
ATOM     20  C   UNL     1      48.802   6.764  15.809  0.00  0.00    +0.000 A 
ATOM     21  C   UNL     1      48.638   8.006  16.449  0.00  0.00    +0.000 A 
ATOM     22  C   UNL     1      48.485   8.081  17.836  0.00  0.00    +0.000 A 
ATOM     23  C   UNL     1      48.459   6.917  18.598  0.00  0.00    +0.000 A 
ATOM     24  C   UNL     1      48.513   5.677  17.966  0.00  0.00    +0.000 A 
ATOM     25  C   UNL     1      48.661   5.600  16.579  0.00  0.00    +0.000 A 
ENDBRANCH  19  20
ENDBRANCH   9  19
TORSDOF 4
ENDMDL
