MODEL 1
REMARK VINA RESULT:    -7.909      0.000      0.000
REMARK INTER + INTRA:         -10.214
REMARK INTER:                  -9.758
REMARK INTRA:                  -0.456
REMARK UNBOUND:                -0.456
REMARK  Name = 
REMARK  4 active torsions:
REMARK  status: ('A' for Active; 'I' for Inactive)
REMARK    1  A    between atoms: C_2  and  C_4
REMARK    2  A    between atoms: C_7  and  O_8
REMARK    3  A    between atoms: O_8  and  C_9
REMARK    4  A    between atoms: C_9  and  C_10
REMARK                            x       y       z     vdW  Elec       q    Type
REMARK                         _______ _______ _______ _____ _____    ______ ____
ROOT
ATOM      1  C   UNL     1      46.408   2.757   7.571  0.00  0.00    +0.000 A 
ATOM      2  C   UNL     1      45.935   1.751   8.408  0.00  0.00    +0.000 A 
ATOM      3  C   UNL     1      45.071   2.085   9.446  0.00  0.00    +0.000 A 
ATOM      4  C   UNL     1      44.693   3.412   9.615  0.00  0.00    +0.000 A 
ATOM      5  N   UNL     1      45.133   4.418   8.823  0.00  0.00    +0.000 NA
ATOM      6  C   UNL     1      45.993   4.066   7.825  0.00  0.00    +0.000 A 
ENDROOT
BRANCH   1   8
ATOM      7  N   UNL     1      47.229   3.234   5.328  0.00  0.00    +0.000 N 
ATOM      8  C   UNL     1      47.361   2.494   6.473  0.00  0.00    +0.000 C 
ATOM      9  O   UNL     1      48.254   1.662   6.588  0.00  0.00    +0.000 OA
ATOM     10  H   UNL     1      47.931   3.091   4.612  0.00  0.00    +0.000 HD
ATOM     11  H   UNL     1      46.667   4.070   5.272  0.00  0.00    +0.000 HD
ENDBRANCH   1   8
BRANCH   4  12
ATOM     12  O   UNL     1      43.884   3.659  10.701  0.00  0.00    +0.000 OA
BRANCH  12  13
ATOM     13  C   UNL     1      43.943   4.952  11.342  0.00  0.00    +0.000 C 
ATOM     14  C   UNL     1      42.705   5.149  12.221  0.00  0.00    +0.000 C 
ATOM     15  C   UNL     1      42.922   6.032  11.040  0.00  0.00    +0.000 C 
BRANCH  13  16
ATOM     16  C   UNL     1      45.295   5.375  11.900  0.00  0.00    +0.000 A 
ATOM     17  C   UNL     1      45.947   6.524  11.419  0.00  0.00    +0.000 A 
ATOM     18  C   UNL     1      47.145   6.976  11.986  0.00  0.00    +0.000 A 
ATOM     19  C   UNL     1      47.716   6.275  13.042  0.00  0.00    +0.000 A 
ATOM     20 CL   UNL     1      49.163   6.851  13.774  0.00  0.00    +0.000 Cl
ATOM     21  C   UNL     1      47.116   5.115  13.518  0.00  0.00    +0.000 A 
ATOM     22  C   UNL     1      45.923   4.666  12.941  0.00  0.00    +0.000 A 
ENDBRANCH  13  16
ENDBRANCH  12  13
ENDBRANCH   4  12
TORSDOF 4
ENDMDL
MODEL 2
REMARK VINA RESULT:    -7.312      1.290      1.976
REMARK INTER + INTRA:          -9.477
REMARK INTER:                  -9.799
REMARK INTRA:                   0.322
REMARK UNBOUND:                -0.456
REMARK  Name = 
REMARK  4 active torsions:
REMARK  status: ('A' for Active; 'I' for Inactive)
REMARK    1  A    between atoms: C_2  and  C_4
REMARK    2  A    between atoms: C_7  and  O_8
REMARK    3  A    between atoms: O_8  and  C_9
REMARK    4  A    between atoms: C_9  and  C_10
REMARK                            x       y       z     vdW  Elec       q    Type
REMARK                         _______ _______ _______ _____ _____    ______ ____
ROOT
ATOM      1  C   UNL     1      46.492   2.559   7.805  0.00  0.00    +0.000 A 
ATOM      2  C   UNL     1      46.363   3.945   7.799  0.00  0.00    +0.000 A 
ATOM      3  C   UNL     1      45.416   4.539   8.627  0.00  0.00    +0.000 A 
ATOM      4  C   UNL     1      44.631   3.737   9.447  0.00  0.00    +0.000 A 
ATOM      5  N   UNL     1      44.727   2.387   9.480  0.00  0.00    +0.000 NA
ATOM      6  C   UNL     1      45.650   1.829   8.645  0.00  0.00    +0.000 A 
ENDROOT
BRANCH   1   8
ATOM      7  N   UNL     1      48.530   2.544   6.472  0.00  0.00    +0.000 N 
ATOM      8  C   UNL     1      47.442   1.847   6.926  0.00  0.00    +0.000 C 
ATOM      9  O   UNL     1      47.280   0.669   6.631  0.00  0.00    +0.000 OA
ATOM     10  H   UNL     1      49.208   2.024   5.928  0.00  0.00    +0.000 HD
ATOM     11  H   UNL     1      48.823   3.428   6.862  0.00  0.00    +0.000 HD
ENDBRANCH   1   8
BRANCH   4  12
ATOM     12  O   UNL     1      43.682   4.405  10.188  0.00  0.00    +0.000 OA
BRANCH  12  13
ATOM     13  C   UNL     1      43.968   4.730  11.567  0.00  0.00    +0.000 C 
ATOM     14  C   UNL     1      44.062   3.444  12.391  0.00  0.00    +0.000 C 
ATOM     15  C   UNL     1      42.976   4.425  12.672  0.00  0.00    +0.000 C 
BRANCH  13  16
ATOM     16  C   UNL     1      45.005   5.816  11.810  0.00  0.00    +0.000 A 
ATOM     17  C   UNL     1      46.334   5.488  12.133  0.00  0.00    +0.000 A 
ATOM     18  C   UNL     1      47.319   6.474  12.268  0.00  0.00    +0.000 A 
ATOM     19  C   UNL     1      46.985   7.811  12.091  0.00  0.00    +0.000 A 
ATOM     20 CL   UNL     1      48.199   9.025  12.209  0.00  0.00    +0.000 Cl
ATOM     21  C   UNL     1      45.673   8.174  11.805  0.00  0.00    +0.000 A 
ATOM     22  C   UNL     1      44.693   7.184  11.679  0.00  0.00    +0.000 A 
ENDBRANCH  13  16
ENDBRANCH  12  13
ENDBRANCH   4  12
TORSDOF 4
ENDMDL
MODEL 3
REMARK VINA RESULT:    -6.694      3.707      6.338
REMARK INTER + INTRA:          -8.715
REMARK INTER:                  -8.303
REMARK INTRA:                  -0.412
REMARK UNBOUND:                -0.456
REMARK  Name = 
REMARK  4 active torsions:
REMARK  status: ('A' for Active; 'I' for Inactive)
REMARK    1  A    between atoms: C_2  and  C_4
REMARK    2  A    between atoms: C_7  and  O_8
REMARK    3  A    between atoms: O_8  and  C_9
REMARK    4  A    between atoms: C_9  and  C_10
REMARK                            x       y       z     vdW  Elec       q    Type
REMARK                         _______ _______ _______ _____ _____    ______ ____
ROOT
ATOM      1  C   UNL     1      47.313   7.962  13.213  0.00  0.00    +0.000 A 
ATOM      2  C   UNL     1      47.716   7.037  12.255  0.00  0.00    +0.000 A 
ATOM      3  C   UNL     1      46.762   6.489  11.403  0.00  0.00    +0.000 A 
ATOM      4  C   UNL     1      45.435   6.886  11.522  0.00  0.00    +0.000 A 
ATOM      5  N   UNL     1      45.006   7.781  12.442  0.00  0.00    +0.000 NA
ATOM      6  C   UNL     1      45.958   8.290  13.276  0.00  0.00    +0.000 A 
ENDROOT
BRANCH   1   8
ATOM      7  N   UNL     1      47.722   9.237  15.248  0.00  0.00    +0.000 N 
ATOM      8  C   UNL     1      48.254   8.559  14.184  0.00  0.00    +0.000 C 
ATOM      9  O   UNL     1      49.467   8.433  14.059  0.00  0.00    +0.000 OA
ATOM     10  H   UNL     1      48.376   9.581  15.940  0.00  0.00    +0.000 HD
ATOM     11  H   UNL     1      46.749   9.176  15.513  0.00  0.00    +0.000 HD
ENDBRANCH   1   8
BRANCH   4  12
ATOM     12  O   UNL     1      44.553   6.249  10.678  0.00  0.00    +0.000 OA
BRANCH  12  13
ATOM     13  C   UNL     1      44.399   4.816  10.773  0.00  0.00    +0.000 C 
ATOM     14  C   UNL     1      42.979   4.479  11.234  0.00  0.00    +0.000 C 
ATOM     15  C   UNL     1      44.140   4.135  12.103  0.00  0.00    +0.000 C 
BRANCH  13  16
ATOM     16  C   UNL     1      45.004   3.989   9.647  0.00  0.00    +0.000 A 
ATOM     17  C   UNL     1      45.644   4.608   8.559  0.00  0.00    +0.000 A 
ATOM     18  C   UNL     1      46.285   3.860   7.564  0.00  0.00    +0.000 A 
ATOM     19  C   UNL     1      46.286   2.472   7.639  0.00  0.00    +0.000 A 
ATOM     20 CL   UNL     1      47.112   1.547   6.446  0.00  0.00    +0.000 Cl
ATOM     21  C   UNL     1      45.632   1.826   8.683  0.00  0.00    +0.000 A 
ATOM     22  C   UNL     1      44.988   2.581   9.668  0.00  0.00    +0.000 A 
ENDBRANCH  13  16
ENDBRANCH  12  13
ENDBRANCH   4  12
TORSDOF 4
ENDMDL
MODEL 4
REMARK VINA RESULT:    -5.765      4.899      7.122
REMARK INTER + INTRA:          -7.569
REMARK INTER:                  -7.239
REMARK INTRA:                  -0.330
REMARK UNBOUND:                -0.456
REMARK  Name = 
REMARK  4 active torsions:
REMARK  status: ('A' for Active; 'I' for Inactive)
REMARK    1  A    between atoms: C_2  and  C_4
REMARK    2  A    between atoms: C_7  and  O_8
REMARK    3  A    between atoms: O_8  and  C_9
REMARK    4  A    between atoms: C_9  and  C_10
REMARK                            x       y       z     vdW  Elec       q    Type
REMARK                         _______ _______ _______ _____ _____    ______ ____
ROOT
ATOM      1  C   UNL     1      45.949   6.256  13.084  0.00  0.00    +0.000 A 
ATOM      2  C   UNL     1      47.247   6.396  13.565  0.00  0.00    +0.000 A 
ATOM      3  C   UNL     1      47.820   5.346  14.276  0.00  0.00    +0.000 A 
ATOM      4  C   UNL     1      47.088   4.182  14.478  0.00  0.00    +0.000 A 
ATOM      5  N   UNL     1      45.824   4.010  14.027  0.00  0.00    +0.000 NA
ATOM      6  C   UNL     1      45.279   5.061  13.349  0.00  0.00    +0.000 A 
ENDROOT
BRANCH   1   8
ATOM      7  N   UNL     1      45.257   8.586  12.922  0.00  0.00    +0.000 N 
ATOM      8  C   UNL     1      45.252   7.338  12.358  0.00  0.00    +0.000 C 
ATOM      9  O   UNL     1      44.709   7.136  11.278  0.00  0.00    +0.000 OA
ATOM     10  H   UNL     1      44.835   9.331  12.380  0.00  0.00    +0.000 HD
ATOM     11  H   UNL     1      45.870   8.849  13.680  0.00  0.00    +0.000 HD
ENDBRANCH   1   8
BRANCH   4  12
ATOM     12  O   UNL     1      47.712   3.220  15.241  0.00  0.00    +0.000 OA
BRANCH  12  13
ATOM     13  C   UNL     1      48.005   3.503  16.627  0.00  0.00    +0.000 C 
ATOM     14  C   UNL     1      46.889   2.946  17.514  0.00  0.00    +0.000 C 
ATOM     15  C   UNL     1      47.120   4.417  17.451  0.00  0.00    +0.000 C 
BRANCH  13  16
ATOM     16  C   UNL     1      49.446   3.302  17.073  0.00  0.00    +0.000 A 
ATOM     17  C   UNL     1      50.041   2.028  17.044  0.00  0.00    +0.000 A 
ATOM     18  C   UNL     1      51.391   1.844  17.364  0.00  0.00    +0.000 A 
ATOM     19  C   UNL     1      52.169   2.937  17.730  0.00  0.00    +0.000 A 
ATOM     20 CL   UNL     1      53.841   2.725  18.078  0.00  0.00    +0.000 Cl
ATOM     21  C   UNL     1      51.604   4.205  17.803  0.00  0.00    +0.000 A 
ATOM     22  C   UNL     1      50.252   4.379  17.489  0.00  0.00    +0.000 A 
ENDBRANCH  13  16
ENDBRANCH  12  13
ENDBRANCH   4  12
TORSDOF 4
ENDMDL
MODEL 5
REMARK VINA RESULT:    -5.589      3.336      5.041
REMARK INTER + INTRA:          -7.351
REMARK INTER:                  -6.827
REMARK INTRA:                  -0.524
REMARK UNBOUND:                -0.456
REMARK  Name = 
REMARK  4 active torsions:
REMARK  status: ('A' for Active; 'I' for Inactive)
REMARK    1  A    between atoms: C_2  and  C_4
REMARK    2  A    between atoms: C_7  and  O_8
REMARK    3  A    between atoms: O_8  and  C_9
REMARK    4  A    between atoms: C_9  and  C_10
REMARK                            x       y       z     vdW  Elec       q    Type
REMARK                         _______ _______ _______ _____ _____    ______ ____
ROOT
ATOM      1  C   UNL     1      44.514   4.184  11.597  0.00  0.00    +0.000 A 
ATOM      2  C   UNL     1      44.937   4.350  12.912  0.00  0.00    +0.000 A 
ATOM      3  C   UNL     1      45.481   5.571  13.299  0.00  0.00    +0.000 A 
ATOM      4  C   UNL     1      45.577   6.597  12.367  0.00  0.00    +0.000 A 
ATOM      5  N   UNL     1      45.177   6.474  11.080  0.00  0.00    +0.000 NA
ATOM      6  C   UNL     1      44.665   5.262  10.722  0.00  0.00    +0.000 A 
ENDROOT
BRANCH   1   8
ATOM      7  N   UNL     1      44.643   2.280  10.084  0.00  0.00    +0.000 N 
ATOM      8  C   UNL     1      43.965   2.907  11.095  0.00  0.00    +0.000 C 
ATOM      9  O   UNL     1      42.955   2.411  11.579  0.00  0.00    +0.000 OA
ATOM     10  H   UNL     1      44.295   1.373   9.797  0.00  0.00    +0.000 HD
ATOM     11  H   UNL     1      45.584   2.527   9.812  0.00  0.00    +0.000 HD
ENDBRANCH   1   8
BRANCH   4  12
ATOM     12  O   UNL     1      46.180   7.749  12.821  0.00  0.00    +0.000 OA
BRANCH  12  13
ATOM     13  C   UNL     1      47.615   7.773  12.985  0.00  0.00    +0.000 C 
ATOM     14  C   UNL     1      48.231   8.764  11.994  0.00  0.00    +0.000 C 
ATOM     15  C   UNL     1      48.545   7.312  11.880  0.00  0.00    +0.000 C 
BRANCH  13  16
ATOM     16  C   UNL     1      48.138   7.767  14.414  0.00  0.00    +0.000 A 
ATOM     17  C   UNL     1      48.102   8.932  15.202  0.00  0.00    +0.000 A 
ATOM     18  C   UNL     1      48.494   8.919  16.546  0.00  0.00    +0.000 A 
ATOM     19  C   UNL     1      48.938   7.735  17.123  0.00  0.00    +0.000 A 
ATOM     20 CL   UNL     1      49.376   7.700  18.787  0.00  0.00    +0.000 Cl
ATOM     21  C   UNL     1      49.019   6.573  16.364  0.00  0.00    +0.000 A 
ATOM     22  C   UNL     1      48.634   6.596  15.019  0.00  0.00    +0.000 A 
ENDBRANCH  13  16
ENDBRANCH  12  13
ENDBRANCH   4  12
TORSDOF 4
ENDMDL
MODEL 6
REMARK VINA RESULT:    -5.462      5.310      8.369
REMARK INTER + INTRA:          -7.195
REMARK INTER:                  -6.768
REMARK INTRA:                  -0.427
REMARK UNBOUND:                -0.456
REMARK  Name = 
REMARK  4 active torsions:
REMARK  status: ('A' for Active; 'I' for Inactive)
REMARK    1  A    between atoms: C_2  and  C_4
REMARK    2  A    between atoms: C_7  and  O_8
REMARK    3  A    between atoms: O_8  and  C_9
REMARK    4  A    between atoms: C_9  and  C_10
REMARK                            x       y       z     vdW  Elec       q    Type
REMARK                         _______ _______ _______ _____ _____    ______ ____
ROOT
ATOM      1  C   UNL     1      48.348   5.471  18.361  0.00  0.00    +0.000 A 
ATOM      2  C   UNL     1      48.779   6.688  17.843  0.00  0.00    +0.000 A 
ATOM      3  C   UNL     1      48.839   6.851  16.462  0.00  0.00    +0.000 A 
ATOM      4  C   UNL     1      48.457   5.802  15.636  0.00  0.00    +0.000 A 
ATOM      5  N   UNL     1      48.033   4.604  16.103  0.00  0.00    +0.000 NA
ATOM      6  C   UNL     1      48.001   4.464  17.459  0.00  0.00    +0.000 A 
ENDROOT
BRANCH   1   8
ATOM      7  N   UNL     1      48.667   3.953  20.239  0.00  0.00    +0.000 N 
ATOM      8  C   UNL     1      48.295   5.201  19.813  0.00  0.00    +0.000 C 
ATOM      9  O   UNL     1      47.955   6.065  20.612  0.00  0.00    +0.000 OA
ATOM     10  H   UNL     1      48.692   3.805  21.241  0.00  0.00    +0.000 HD
ATOM     11  H   UNL     1      49.161   3.293  19.656  0.00  0.00    +0.000 HD
ENDBRANCH   1   8
BRANCH   4  12
ATOM     12  O   UNL     1      48.604   6.032  14.286  0.00  0.00    +0.000 OA
BRANCH  12  13
ATOM     13  C   UNL     1      47.492   6.572  13.540  0.00  0.00    +0.000 C 
ATOM     14  C   UNL     1      48.009   7.527  12.462  0.00  0.00    +0.000 C 
ATOM     15  C   UNL     1      47.163   8.052  13.571  0.00  0.00    +0.000 C 
BRANCH  13  16
ATOM     16  C   UNL     1      46.385   5.597  13.165  0.00  0.00    +0.000 A 
ATOM     17  C   UNL     1      45.079   6.050  12.908  0.00  0.00    +0.000 A 
ATOM     18  C   UNL     1      44.074   5.178  12.472  0.00  0.00    +0.000 A 
ATOM     19  C   UNL     1      44.361   3.829  12.296  0.00  0.00    +0.000 A 
ATOM     20 CL   UNL     1      43.144   2.759  11.715  0.00  0.00    +0.000 Cl
ATOM     21  C   UNL     1      45.633   3.341  12.574  0.00  0.00    +0.000 A 
ATOM     22  C   UNL     1      46.629   4.218  13.017  0.00  0.00    +0.000 A 
ENDBRANCH  13  16
ENDBRANCH  12  13
ENDBRANCH   4  12
TORSDOF 4
ENDMDL
MODEL 7
REMARK VINA RESULT:    -5.373      3.914      5.969
REMARK INTER + INTRA:          -7.085
REMARK INTER:                  -6.518
REMARK INTRA:                  -0.567
REMARK UNBOUND:                -0.456
REMARK  Name = 
REMARK  4 active torsions:
REMARK  status: ('A' for Active; 'I' for Inactive)
REMARK    1  A    between atoms: C_2  and  C_4
REMARK    2  A    between atoms: C_7  and  O_8
REMARK    3  A    between atoms: O_8  and  C_9
REMARK    4  A    between atoms: C_9  and  C_10
REMARK                            x       y       z     vdW  Elec       q    Type
REMARK                         _______ _______ _______ _____ _____    ______ ____
ROOT
ATOM      1  C   UNL     1      44.550   5.385  12.030  0.00  0.00    +0.000 A 
ATOM      2  C   UNL     1      45.077   4.810  13.182  0.00  0.00    +0.000 A 
ATOM      3  C   UNL     1      46.403   5.066  13.518  0.00  0.00    +0.000 A 
ATOM      4  C   UNL     1      47.163   5.897  12.704  0.00  0.00    +0.000 A 
ATOM      5  N   UNL     1      46.685   6.473  11.576  0.00  0.00    +0.000 NA
ATOM      6  C   UNL     1      45.389   6.192  11.259  0.00  0.00    +0.000 A 
ENDROOT
BRANCH   1   8
ATOM      7  N   UNL     1      42.270   6.163  11.670  0.00  0.00    +0.000 N 
ATOM      8  C   UNL     1      43.166   5.131  11.579  0.00  0.00    +0.000 C 
ATOM      9  O   UNL     1      42.833   4.046  11.117  0.00  0.00    +0.000 OA
ATOM     10  H   UNL     1      41.344   5.995  11.293  0.00  0.00    +0.000 HD
ATOM     11  H   UNL     1      42.544   7.122  11.826  0.00  0.00    +0.000 HD
ENDBRANCH   1   8
BRANCH   4  12
ATOM     12  O   UNL     1      48.479   6.047  13.081  0.00  0.00    +0.000 OA
BRANCH  12  13
ATOM     13  C   UNL     1      48.911   7.308  13.638  0.00  0.00    +0.000 C 
ATOM     14  C   UNL     1      49.466   7.086  15.047  0.00  0.00    +0.000 C 
ATOM     15  C   UNL     1      48.236   7.906  14.857  0.00  0.00    +0.000 C 
BRANCH  13  16
ATOM     16  C   UNL     1      49.671   8.240  12.705  0.00  0.00    +0.000 A 
ATOM     17  C   UNL     1      50.607   7.737  11.785  0.00  0.00    +0.000 A 
ATOM     18  C   UNL     1      51.244   8.571  10.859  0.00  0.00    +0.000 A 
ATOM     19  C   UNL     1      50.960   9.932  10.847  0.00  0.00    +0.000 A 
ATOM     20 CL   UNL     1      51.704  10.957   9.681  0.00  0.00    +0.000 Cl
ATOM     21  C   UNL     1      50.066  10.469  11.767  0.00  0.00    +0.000 A 
ATOM     22  C   UNL     1      49.439   9.629  12.693  0.00  0.00    +0.000 A 
ENDBRANCH  13  16
ENDBRANCH  12  13
ENDBRANCH   4  12
TORSDOF 4
ENDMDL
MODEL 8
REMARK VINA RESULT:    -4.955      3.231      4.897
REMARK INTER + INTRA:          -6.569
REMARK INTER:                  -6.566
REMARK INTRA:                  -0.003
REMARK UNBOUND:                -0.456
REMARK  Name = 
REMARK  4 active torsions:
REMARK  status: ('A' for Active; 'I' for Inactive)
REMARK    1  A    between atoms: C_2  and  C_4
REMARK    2  A    between atoms: C_7  and  O_8
REMARK    3  A    between atoms: O_8  and  C_9
REMARK    4  A    between atoms: C_9  and  C_10
REMARK                            x       y       z     vdW  Elec       q    Type
REMARK                         _______ _______ _______ _____ _____    ______ ____
ROOT
ATOM      1  C   UNL     1      44.683   3.804  11.367  0.00  0.00    +0.000 A 
ATOM      2  C   UNL     1      44.739   3.984  12.746  0.00  0.00    +0.000 A 
ATOM      3  C   UNL     1      45.469   5.052  13.259  0.00  0.00    +0.000 A 
ATOM      4  C   UNL     1      46.113   5.917  12.384  0.00  0.00    +0.000 A 
ATOM      5  N   UNL     1      46.083   5.774  11.038  0.00  0.00    +0.000 NA
ATOM      6  C   UNL     1      45.376   4.710  10.562  0.00  0.00    +0.000 A 
ENDROOT
BRANCH   1   8
ATOM      7  N   UNL     1      44.479   2.162   9.580  0.00  0.00    +0.000 N 
ATOM      8  C   UNL     1      43.967   2.672  10.743  0.00  0.00    +0.000 C 
ATOM      9  O   UNL     1      42.965   2.189  11.256  0.00  0.00    +0.000 OA
ATOM     10  H   UNL     1      44.018   1.344   9.201  0.00  0.00    +0.000 HD
ATOM     11  H   UNL     1      45.409   2.372   9.245  0.00  0.00    +0.000 HD
ENDBRANCH   1   8
BRANCH   4  12
ATOM     12  O   UNL     1      46.858   6.910  12.981  0.00  0.00    +0.000 OA
BRANCH  12  13
ATOM     13  C   UNL     1      46.860   8.233  12.401  0.00  0.00    +0.000 C 
ATOM     14  C   UNL     1      45.926   9.146  13.199  0.00  0.00    +0.000 C 
ATOM     15  C   UNL     1      45.610   8.824  11.779  0.00  0.00    +0.000 C 
BRANCH  13  16
ATOM     16  C   UNL     1      48.210   8.786  11.969  0.00  0.00    +0.000 A 
ATOM     17  C   UNL     1      49.351   7.966  11.939  0.00  0.00    +0.000 A 
ATOM     18  C   UNL     1      50.578   8.437  11.457  0.00  0.00    +0.000 A 
ATOM     19  C   UNL     1      50.684   9.747  11.004  0.00  0.00    +0.000 A 
ATOM     20 CL   UNL     1      52.176  10.319  10.365  0.00  0.00    +0.000 Cl
ATOM     21  C   UNL     1      49.584  10.596  11.052  0.00  0.00    +0.000 A 
ATOM     22  C   UNL     1      48.364  10.120  11.543  0.00  0.00    +0.000 A 
ENDBRANCH  13  16
ENDBRANCH  12  13
ENDBRANCH   4  12
TORSDOF 4
ENDMDL
