MODEL 1
REMARK VINA RESULT:    -8.108      0.000      0.000
REMARK INTER + INTRA:         -11.810
REMARK INTER:                 -10.952
REMARK INTRA:                  -0.858
REMARK UNBOUND:                -0.858
REMARK  Name = 
REMARK  7 active torsions:
REMARK  status: ('A' for Active; 'I' for Inactive)
REMARK    1  A    between atoms: C_1  and  C_2
REMARK    2  A    between atoms: C_2  and  N_3
REMARK    3  A    between atoms: C_2  and  C_16
REMARK    4  A    between atoms: C_4  and  C_6
REMARK    5  A    between atoms: C_19  and  C_20
REMARK    6  A    between atoms: C_20  and  N_21
REMARK    7  A    between atoms: C_22  and  C_24
REMARK                            x       y       z     vdW  Elec       q    Type
REMARK                         _______ _______ _______ _____ _____    ______ ____
ROOT
ATOM      1  C   UNL     1      46.575   9.170  13.263  0.00  0.00    +0.000 C 
ATOM      2  C   UNL     1      47.232   7.786  13.273  0.00  0.00    +0.000 C 
ENDROOT
BRANCH   2   3
ATOM      3  C   UNL     1      46.317   6.755  12.620  0.00  0.00    +0.000 A 
ATOM      4  C   UNL     1      45.316   7.150  11.723  0.00  0.00    +0.000 A 
ATOM      5  C   UNL     1      44.518   6.196  11.076  0.00  0.00    +0.000 A 
ATOM      6  C   UNL     1      44.695   4.826  11.318  0.00  0.00    +0.000 A 
ATOM      7  C   UNL     1      45.689   4.431  12.220  0.00  0.00    +0.000 A 
ATOM      8  C   UNL     1      46.483   5.382  12.868  0.00  0.00    +0.000 A 
BRANCH   6   9
ATOM      9  C   UNL     1      43.855   3.792  10.607  0.00  0.00    +0.000 C 
BRANCH   9  10
ATOM     10  N   UNL     1      44.669   2.910   9.802  0.00  0.00    +0.000 N 
ATOM     11  C   UNL     1      45.250   3.336   8.628  0.00  0.00    +0.000 C 
ATOM     12  O   UNL     1      45.113   4.474   8.194  0.00  0.00    +0.000 OA
ATOM     13  H   UNL     1      44.863   1.989  10.156  0.00  0.00    +0.000 HD
BRANCH  11  14
ATOM     14  C   UNL     1      46.034   2.338   7.946  0.00  0.00    +0.000 A 
ATOM     15  C   UNL     1      46.899   2.389   6.869  0.00  0.00    +0.000 A 
ATOM     16  C   UNL     1      47.358   1.071   6.696  0.00  0.00    +0.000 A 
ATOM     17  N   UNL     1      46.832   0.233   7.587  0.00  0.00    +0.000 NA
ATOM     18  N   UNL     1      46.036   1.019   8.333  0.00  0.00    +0.000 N 
ATOM     19  H   UNL     1      45.513   0.604   9.100  0.00  0.00    +0.000 HD
ENDBRANCH  11  14
ENDBRANCH   9  10
ENDBRANCH   6   9
ENDBRANCH   2   3
BRANCH   2  20
ATOM     20  N   UNL     1      47.561   7.337  14.619  0.00  0.00    +0.000 N 
ATOM     21  C   UNL     1      48.826   6.979  15.011  0.00  0.00    +0.000 C 
ATOM     22  O   UNL     1      49.797   7.035  14.264  0.00  0.00    +0.000 OA
ATOM     23  H   UNL     1      46.783   6.966  15.157  0.00  0.00    +0.000 HD
BRANCH  21  24
ATOM     24  C   UNL     1      48.974   6.590  16.417  0.00  0.00    +0.000 A 
ATOM     25  C   UNL     1      49.520   7.486  17.326  0.00  0.00    +0.000 A 
ATOM     26  S   UNL     1      49.608   6.875  18.916  0.00  0.00    +0.000 S 
ATOM     27  C   UNL     1      48.960   5.377  18.434  0.00  0.00    +0.000 A 
ATOM     28  N   UNL     1      48.807   4.361  19.325  0.00  0.00    +0.000 NA
ATOM     29  C   UNL     1      48.338   3.271  18.813  0.00  0.00    +0.000 A 
ATOM     30  N   UNL     1      47.992   3.111  17.497  0.00  0.00    +0.000 N 
ATOM     31  C   UNL     1      48.085   4.124  16.573  0.00  0.00    +0.000 A 
ATOM     32  O   UNL     1      47.694   3.974  15.418  0.00  0.00    +0.000 OA
ATOM     33  C   UNL     1      48.645   5.357  17.087  0.00  0.00    +0.000 A 
ATOM     34  H   UNL     1      47.611   2.237  17.166  0.00  0.00    +0.000 HD
ENDBRANCH  21  24
ENDBRANCH   2  20
TORSDOF 6
ENDMDL
MODEL 2
REMARK VINA RESULT:    -7.837      1.875      2.572
REMARK INTER + INTRA:         -11.444
REMARK INTER:                 -10.286
REMARK INTRA:                  -1.158
REMARK UNBOUND:                -0.858
REMARK  Name = 
REMARK  7 active torsions:
REMARK  status: ('A' for Active; 'I' for Inactive)
REMARK    1  A    between atoms: C_1  and  C_2
REMARK    2  A    between atoms: C_2  and  N_3
REMARK    3  A    between atoms: C_2  and  C_16
REMARK    4  A    between atoms: C_4  and  C_6
REMARK    5  A    between atoms: C_19  and  C_20
REMARK    6  A    between atoms: C_20  and  N_21
REMARK    7  A    between atoms: C_22  and  C_24
REMARK                            x       y       z     vdW  Elec       q    Type
REMARK                         _______ _______ _______ _____ _____    ______ ____
ROOT
ATOM      1  C   UNL     1      47.829   9.125  13.648  0.00  0.00    +0.000 C 
ATOM      2  C   UNL     1      48.152   7.634  13.795  0.00  0.00    +0.000 C 
ENDROOT
BRANCH   2   3
ATOM      3  C   UNL     1      47.221   6.797  12.923  0.00  0.00    +0.000 A 
ATOM      4  C   UNL     1      46.847   5.504  13.309  0.00  0.00    +0.000 A 
ATOM      5  C   UNL     1      45.941   4.761  12.537  0.00  0.00    +0.000 A 
ATOM      6  C   UNL     1      45.398   5.290  11.358  0.00  0.00    +0.000 A 
ATOM      7  C   UNL     1      45.778   6.580  10.968  0.00  0.00    +0.000 A 
ATOM      8  C   UNL     1      46.683   7.319  11.735  0.00  0.00    +0.000 A 
BRANCH   6   9
ATOM      9  C   UNL     1      44.405   4.506  10.535  0.00  0.00    +0.000 C 
BRANCH   9  10
ATOM     10  N   UNL     1      45.042   3.423   9.822  0.00  0.00    +0.000 N 
ATOM     11  C   UNL     1      45.668   3.626   8.611  0.00  0.00    +0.000 C 
ATOM     12  O   UNL     1      45.718   4.722   8.065  0.00  0.00    +0.000 OA
ATOM     13  H   UNL     1      45.084   2.522  10.266  0.00  0.00    +0.000 HD
BRANCH  11  14
ATOM     14  C   UNL     1      46.259   2.447   8.032  0.00  0.00    +0.000 A 
ATOM     15  C   UNL     1      46.040   1.094   8.212  0.00  0.00    +0.000 A 
ATOM     16  C   UNL     1      46.936   0.451   7.339  0.00  0.00    +0.000 A 
ATOM     17  N   UNL     1      47.677   1.317   6.650  0.00  0.00    +0.000 NA
ATOM     18  N   UNL     1      47.252   2.516   7.083  0.00  0.00    +0.000 N 
ATOM     19  H   UNL     1      47.672   3.357   6.696  0.00  0.00    +0.000 HD
ENDBRANCH  11  14
ENDBRANCH   9  10
ENDBRANCH   6   9
ENDBRANCH   2   3
BRANCH   2  20
ATOM     20  N   UNL     1      48.045   7.175  15.173  0.00  0.00    +0.000 N 
ATOM     21  C   UNL     1      49.102   6.673  15.889  0.00  0.00    +0.000 C 
ATOM     22  O   UNL     1      50.239   6.595  15.436  0.00  0.00    +0.000 OA
ATOM     23  H   UNL     1      47.111   6.912  15.474  0.00  0.00    +0.000 HD
BRANCH  21  24
ATOM     24  C   UNL     1      48.813   6.297  17.277  0.00  0.00    +0.000 A 
ATOM     25  C   UNL     1      49.017   4.989  17.694  0.00  0.00    +0.000 A 
ATOM     26  S   UNL     1      48.642   4.730  19.337  0.00  0.00    +0.000 S 
ATOM     27  C   UNL     1      48.149   6.348  19.534  0.00  0.00    +0.000 A 
ATOM     28  N   UNL     1      47.662   6.791  20.724  0.00  0.00    +0.000 NA
ATOM     29  C   UNL     1      47.293   8.030  20.720  0.00  0.00    +0.000 A 
ATOM     30  N   UNL     1      47.386   8.869  19.640  0.00  0.00    +0.000 N 
ATOM     31  C   UNL     1      47.917   8.478  18.434  0.00  0.00    +0.000 A 
ATOM     32  O   UNL     1      48.059   9.273  17.510  0.00  0.00    +0.000 OA
ATOM     33  C   UNL     1      48.307   7.084  18.374  0.00  0.00    +0.000 A 
ATOM     34  H   UNL     1      47.099   9.834  19.710  0.00  0.00    +0.000 HD
ENDBRANCH  21  24
ENDBRANCH   2  20
TORSDOF 6
ENDMDL
MODEL 3
REMARK VINA RESULT:    -7.721      2.245      3.954
REMARK INTER + INTRA:         -11.287
REMARK INTER:                 -10.303
REMARK INTRA:                  -0.984
REMARK UNBOUND:                -0.858
REMARK  Name = 
REMARK  7 active torsions:
REMARK  status: ('A' for Active; 'I' for Inactive)
REMARK    1  A    between atoms: C_1  and  C_2
REMARK    2  A    between atoms: C_2  and  N_3
REMARK    3  A    between atoms: C_2  and  C_16
REMARK    4  A    between atoms: C_4  and  C_6
REMARK    5  A    between atoms: C_19  and  C_20
REMARK    6  A    between atoms: C_20  and  N_21
REMARK    7  A    between atoms: C_22  and  C_24
REMARK                            x       y       z     vdW  Elec       q    Type
REMARK                         _______ _______ _______ _____ _____    ______ ____
ROOT
ATOM      1  C   UNL     1      47.511   3.456  15.111  0.00  0.00    +0.000 C 
ATOM      2  C   UNL     1      46.881   4.804  14.744  0.00  0.00    +0.000 C 
ENDROOT
BRANCH   2   3
ATOM      3  C   UNL     1      46.133   4.701  13.418  0.00  0.00    +0.000 A 
ATOM      4  C   UNL     1      46.231   5.716  12.458  0.00  0.00    +0.000 A 
ATOM      5  C   UNL     1      45.594   5.590  11.215  0.00  0.00    +0.000 A 
ATOM      6  C   UNL     1      44.836   4.450  10.908  0.00  0.00    +0.000 A 
ATOM      7  C   UNL     1      44.731   3.439  11.870  0.00  0.00    +0.000 A 
ATOM      8  C   UNL     1      45.364   3.566  13.110  0.00  0.00    +0.000 A 
BRANCH   6   9
ATOM      9  C   UNL     1      44.167   4.296   9.564  0.00  0.00    +0.000 C 
BRANCH   9  10
ATOM     10  N   UNL     1      45.117   3.943   8.534  0.00  0.00    +0.000 N 
ATOM     11  C   UNL     1      45.487   2.634   8.311  0.00  0.00    +0.000 C 
ATOM     12  O   UNL     1      45.043   1.699   8.966  0.00  0.00    +0.000 OA
ATOM     13  H   UNL     1      45.453   4.672   7.929  0.00  0.00    +0.000 HD
BRANCH  11  14
ATOM     14  C   UNL     1      46.439   2.449   7.246  0.00  0.00    +0.000 A 
ATOM     15  C   UNL     1      46.659   3.107   6.051  0.00  0.00    +0.000 A 
ATOM     16  C   UNL     1      47.752   2.449   5.458  0.00  0.00    +0.000 A 
ATOM     17  N   UNL     1      48.203   1.445   6.208  0.00  0.00    +0.000 NA
ATOM     18  N   UNL     1      47.396   1.463   7.284  0.00  0.00    +0.000 N 
ATOM     19  H   UNL     1      47.542   0.778   8.021  0.00  0.00    +0.000 HD
ENDBRANCH  11  14
ENDBRANCH   9  10
ENDBRANCH   6   9
ENDBRANCH   2   3
BRANCH   2  20
ATOM     20  N   UNL     1      47.868   5.870  14.645  0.00  0.00    +0.000 N 
ATOM     21  C   UNL     1      48.573   6.352  15.719  0.00  0.00    +0.000 C 
ATOM     22  O   UNL     1      48.453   5.901  16.854  0.00  0.00    +0.000 OA
ATOM     23  H   UNL     1      47.771   6.481  13.839  0.00  0.00    +0.000 HD
BRANCH  21  24
ATOM     24  C   UNL     1      49.553   7.402  15.422  0.00  0.00    +0.000 A 
ATOM     25  C   UNL     1      50.873   7.246  15.823  0.00  0.00    +0.000 A 
ATOM     26  S   UNL     1      51.877   8.554  15.387  0.00  0.00    +0.000 S 
ATOM     27  C   UNL     1      50.570   9.392  14.687  0.00  0.00    +0.000 A 
ATOM     28  N   UNL     1      50.739  10.631  14.153  0.00  0.00    +0.000 NA
ATOM     29  C   UNL     1      49.657  11.163  13.689  0.00  0.00    +0.000 A 
ATOM     30  N   UNL     1      48.426  10.561  13.695  0.00  0.00    +0.000 N 
ATOM     31  C   UNL     1      48.218   9.292  14.180  0.00  0.00    +0.000 A 
ATOM     32  O   UNL     1      47.120   8.749  14.101  0.00  0.00    +0.000 OA
ATOM     33  C   UNL     1      49.395   8.667  14.750  0.00  0.00    +0.000 A 
ATOM     34  H   UNL     1      47.623  11.025  13.297  0.00  0.00    +0.000 HD
ENDBRANCH  21  24
ENDBRANCH   2  20
TORSDOF 6
ENDMDL
MODEL 4
REMARK VINA RESULT:    -7.546      3.512      8.287
REMARK INTER + INTRA:         -11.051
REMARK INTER:                 -10.095
REMARK INTRA:                  -0.956
REMARK UNBOUND:                -0.858
REMARK  Name = 
REMARK  7 active torsions:
REMARK  status: ('A' for Active; 'I' for Inactive)
REMARK    1  A    between atoms: C_1  and  C_2
REMARK    2  A    between atoms: C_2  and  N_3
REMARK    3  A    between atoms: C_2  and  C_16
REMARK    4  A    between atoms: C_4  and  C_6
REMARK    5  A    between atoms: C_19  and  C_20
REMARK    6  A    between atoms: C_20  and  N_21
REMARK    7  A    between atoms: C_22  and  C_24
REMARK                            x       y       z     vdW  Elec       q    Type
REMARK                         _______ _______ _______ _____ _____    ______ ____
ROOT
ATOM      1  C   UNL     1      49.405   7.368  13.021  0.00  0.00    +0.000 C 
ATOM      2  C   UNL     1      48.062   6.913  13.602  0.00  0.00    +0.000 C 
ENDROOT
BRANCH   2   3
ATOM      3  C   UNL     1      48.273   6.174  14.920  0.00  0.00    +0.000 A 
ATOM      4  C   UNL     1      47.467   5.082  15.267  0.00  0.00    +0.000 A 
ATOM      5  C   UNL     1      47.703   4.365  16.449  0.00  0.00    +0.000 A 
ATOM      6  C   UNL     1      48.744   4.730  17.315  0.00  0.00    +0.000 A 
ATOM      7  C   UNL     1      49.544   5.826  16.973  0.00  0.00    +0.000 A 
ATOM      8  C   UNL     1      49.307   6.543  15.796  0.00  0.00    +0.000 A 
BRANCH   6   9
ATOM      9  C   UNL     1      49.019   3.949  18.577  0.00  0.00    +0.000 C 
BRANCH   9  10
ATOM     10  N   UNL     1      50.311   3.303  18.531  0.00  0.00    +0.000 N 
ATOM     11  C   UNL     1      50.555   2.235  17.696  0.00  0.00    +0.000 C 
ATOM     12  O   UNL     1      49.701   1.766  16.952  0.00  0.00    +0.000 OA
ATOM     13  H   UNL     1      51.059   3.699  19.075  0.00  0.00    +0.000 HD
BRANCH  11  14
ATOM     14  C   UNL     1      51.893   1.707  17.765  0.00  0.00    +0.000 A 
ATOM     15  C   UNL     1      53.140   2.262  17.544  0.00  0.00    +0.000 A 
ATOM     16  C   UNL     1      54.059   1.226  17.789  0.00  0.00    +0.000 A 
ATOM     17  N   UNL     1      53.456   0.090  18.137  0.00  0.00    +0.000 NA
ATOM     18  N   UNL     1      52.149   0.403  18.117  0.00  0.00    +0.000 N 
ATOM     19  H   UNL     1      51.468  -0.312  18.356  0.00  0.00    +0.000 HD
ENDBRANCH  11  14
ENDBRANCH   9  10
ENDBRANCH   6   9
ENDBRANCH   2   3
BRANCH   2  20
ATOM     20  N   UNL     1      47.326   6.049  12.690  0.00  0.00    +0.000 N 
ATOM     21  C   UNL     1      46.334   6.497  11.855  0.00  0.00    +0.000 C 
ATOM     22  O   UNL     1      46.003   7.676  11.784  0.00  0.00    +0.000 OA
ATOM     23  H   UNL     1      47.320   5.062  12.933  0.00  0.00    +0.000 HD
BRANCH  21  24
ATOM     24  C   UNL     1      45.731   5.488  10.979  0.00  0.00    +0.000 A 
ATOM     25  C   UNL     1      45.863   5.603   9.602  0.00  0.00    +0.000 A 
ATOM     26  S   UNL     1      45.112   4.340   8.737  0.00  0.00    +0.000 S 
ATOM     27  C   UNL     1      44.546   3.621  10.173  0.00  0.00    +0.000 A 
ATOM     28  N   UNL     1      43.777   2.500  10.139  0.00  0.00    +0.000 NA
ATOM     29  C   UNL     1      43.390   2.085  11.299  0.00  0.00    +0.000 A 
ATOM     30  N   UNL     1      43.717   2.679  12.491  0.00  0.00    +0.000 N 
ATOM     31  C   UNL     1      44.531   3.783  12.575  0.00  0.00    +0.000 A 
ATOM     32  O   UNL     1      44.869   4.245  13.661  0.00  0.00    +0.000 OA
ATOM     33  C   UNL     1      44.959   4.313  11.297  0.00  0.00    +0.000 A 
ATOM     34  H   UNL     1      43.398   2.290  13.366  0.00  0.00    +0.000 HD
ENDBRANCH  21  24
ENDBRANCH   2  20
TORSDOF 6
ENDMDL
MODEL 5
REMARK VINA RESULT:    -7.442      2.670      4.248
REMARK INTER + INTRA:         -10.911
REMARK INTER:                  -9.595
REMARK INTRA:                  -1.316
REMARK UNBOUND:                -0.858
REMARK  Name = 
REMARK  7 active torsions:
REMARK  status: ('A' for Active; 'I' for Inactive)
REMARK    1  A    between atoms: C_1  and  C_2
REMARK    2  A    between atoms: C_2  and  N_3
REMARK    3  A    between atoms: C_2  and  C_16
REMARK    4  A    between atoms: C_4  and  C_6
REMARK    5  A    between atoms: C_19  and  C_20
REMARK    6  A    between atoms: C_20  and  N_21
REMARK    7  A    between atoms: C_22  and  C_24
REMARK                            x       y       z     vdW  Elec       q    Type
REMARK                         _______ _______ _______ _____ _____    ______ ____
ROOT
ATOM      1  C   UNL     1      47.505   4.263  15.867  0.00  0.00    +0.000 C 
ATOM      2  C   UNL     1      47.294   5.526  15.025  0.00  0.00    +0.000 C 
ENDROOT
BRANCH   2   3
ATOM      3  C   UNL     1      46.481   5.205  13.776  0.00  0.00    +0.000 A 
ATOM      4  C   UNL     1      45.970   6.231  12.969  0.00  0.00    +0.000 A 
ATOM      5  C   UNL     1      45.277   5.933  11.787  0.00  0.00    +0.000 A 
ATOM      6  C   UNL     1      45.069   4.605  11.390  0.00  0.00    +0.000 A 
ATOM      7  C   UNL     1      45.571   3.579  12.200  0.00  0.00    +0.000 A 
ATOM      8  C   UNL     1      46.260   3.875  13.380  0.00  0.00    +0.000 A 
BRANCH   6   9
ATOM      9  C   UNL     1      44.344   4.277  10.107  0.00  0.00    +0.000 C 
BRANCH   9  10
ATOM     10  N   UNL     1      45.264   3.912   9.054  0.00  0.00    +0.000 N 
ATOM     11  C   UNL     1      45.364   2.615   8.601  0.00  0.00    +0.000 C 
ATOM     12  O   UNL     1      44.692   1.698   9.058  0.00  0.00    +0.000 OA
ATOM     13  H   UNL     1      45.785   4.645   8.605  0.00  0.00    +0.000 HD
BRANCH  11  14
ATOM     14  C   UNL     1      46.324   2.417   7.545  0.00  0.00    +0.000 A 
ATOM     15  C   UNL     1      46.643   3.139   6.411  0.00  0.00    +0.000 A 
ATOM     16  C   UNL     1      47.683   2.422   5.792  0.00  0.00    +0.000 A 
ATOM     17  N   UNL     1      48.010   1.323   6.469  0.00  0.00    +0.000 NA
ATOM     18  N   UNL     1      47.178   1.340   7.525  0.00  0.00    +0.000 N 
ATOM     19  H   UNL     1      47.235   0.590   8.209  0.00  0.00    +0.000 HD
ENDBRANCH  11  14
ENDBRANCH   9  10
ENDBRANCH   6   9
ENDBRANCH   2   3
BRANCH   2  20
ATOM     20  N   UNL     1      48.551   6.141  14.624  0.00  0.00    +0.000 N 
ATOM     21  C   UNL     1      48.916   7.417  14.972  0.00  0.00    +0.000 C 
ATOM     22  O   UNL     1      48.223   8.140  15.680  0.00  0.00    +0.000 OA
ATOM     23  H   UNL     1      48.990   5.739  13.800  0.00  0.00    +0.000 HD
BRANCH  21  24
ATOM     24  C   UNL     1      50.237   7.854  14.508  0.00  0.00    +0.000 A 
ATOM     25  C   UNL     1      51.228   8.154  15.433  0.00  0.00    +0.000 A 
ATOM     26  S   UNL     1      52.702   8.633  14.721  0.00  0.00    +0.000 S 
ATOM     27  C   UNL     1      52.050   8.500  13.154  0.00  0.00    +0.000 A 
ATOM     28  N   UNL     1      52.791   8.816  12.059  0.00  0.00    +0.000 NA
ATOM     29  C   UNL     1      52.159   8.703  10.938  0.00  0.00    +0.000 A 
ATOM     30  N   UNL     1      50.860   8.285  10.812  0.00  0.00    +0.000 N 
ATOM     31  C   UNL     1      50.090   7.910  11.886  0.00  0.00    +0.000 A 
ATOM     32  O   UNL     1      48.955   7.466  11.735  0.00  0.00    +0.000 OA
ATOM     33  C   UNL     1      50.740   8.058  13.172  0.00  0.00    +0.000 A 
ATOM     34  H   UNL     1      50.431   8.199   9.903  0.00  0.00    +0.000 HD
ENDBRANCH  21  24
ENDBRANCH   2  20
TORSDOF 6
ENDMDL
MODEL 6
REMARK VINA RESULT:    -7.240      3.894      6.223
REMARK INTER + INTRA:         -10.637
REMARK INTER:                  -9.680
REMARK INTRA:                  -0.957
REMARK UNBOUND:                -0.858
REMARK  Name = 
REMARK  7 active torsions:
REMARK  status: ('A' for Active; 'I' for Inactive)
REMARK    1  A    between atoms: C_1  and  C_2
REMARK    2  A    between atoms: C_2  and  N_3
REMARK    3  A    between atoms: C_2  and  C_16
REMARK    4  A    between atoms: C_4  and  C_6
REMARK    5  A    between atoms: C_19  and  C_20
REMARK    6  A    between atoms: C_20  and  N_21
REMARK    7  A    between atoms: C_22  and  C_24
REMARK                            x       y       z     vdW  Elec       q    Type
REMARK                         _______ _______ _______ _____ _____    ______ ____
ROOT
ATOM      1  C   UNL     1      46.608   3.361  13.040  0.00  0.00    +0.000 C 
ATOM      2  C   UNL     1      46.329   4.383  14.148  0.00  0.00    +0.000 C 
ENDROOT
BRANCH   2   3
ATOM      3  C   UNL     1      46.037   5.754  13.548  0.00  0.00    +0.000 A 
ATOM      4  C   UNL     1      46.999   6.772  13.583  0.00  0.00    +0.000 A 
ATOM      5  C   UNL     1      46.752   8.012  12.975  0.00  0.00    +0.000 A 
ATOM      6  C   UNL     1      45.535   8.265  12.328  0.00  0.00    +0.000 A 
ATOM      7  C   UNL     1      44.569   7.252  12.299  0.00  0.00    +0.000 A 
ATOM      8  C   UNL     1      44.814   6.017  12.908  0.00  0.00    +0.000 A 
BRANCH   6   9
ATOM      9  C   UNL     1      45.270   9.588  11.651  0.00  0.00    +0.000 C 
BRANCH   9  10
ATOM     10  N   UNL     1      43.903  10.017  11.837  0.00  0.00    +0.000 N 
ATOM     11  C   UNL     1      43.096  10.342  10.768  0.00  0.00    +0.000 C 
ATOM     12  O   UNL     1      43.483  10.294   9.606  0.00  0.00    +0.000 OA
ATOM     13  H   UNL     1      43.525  10.005  12.768  0.00  0.00    +0.000 HD
BRANCH  11  14
ATOM     14  C   UNL     1      41.759  10.745  11.121  0.00  0.00    +0.000 A 
ATOM     15  C   UNL     1      40.570  10.791  10.419  0.00  0.00    +0.000 A 
ATOM     16  C   UNL     1      39.614  11.269  11.334  0.00  0.00    +0.000 A 
ATOM     17  N   UNL     1      40.142  11.516  12.532  0.00  0.00    +0.000 NA
ATOM     18  N   UNL     1      41.439  11.191  12.381  0.00  0.00    +0.000 N 
ATOM     19  H   UNL     1      42.066  11.291  13.174  0.00  0.00    +0.000 HD
ENDBRANCH  11  14
ENDBRANCH   9  10
ENDBRANCH   6   9
ENDBRANCH   2   3
BRANCH   2  20
ATOM     20  N   UNL     1      47.438   4.505  15.084  0.00  0.00    +0.000 N 
ATOM     21  C   UNL     1      47.382   4.075  16.385  0.00  0.00    +0.000 C 
ATOM     22  O   UNL     1      46.398   3.521  16.864  0.00  0.00    +0.000 OA
ATOM     23  H   UNL     1      48.122   5.221  14.858  0.00  0.00    +0.000 HD
BRANCH  21  24
ATOM     24  C   UNL     1      48.610   4.245  17.168  0.00  0.00    +0.000 A 
ATOM     25  C   UNL     1      48.798   5.401  17.914  0.00  0.00    +0.000 A 
ATOM     26  S   UNL     1      50.272   5.428  18.770  0.00  0.00    +0.000 S 
ATOM     27  C   UNL     1      50.730   3.916  18.137  0.00  0.00    +0.000 A 
ATOM     28  N   UNL     1      51.934   3.364  18.442  0.00  0.00    +0.000 NA
ATOM     29  C   UNL     1      52.164   2.232  17.864  0.00  0.00    +0.000 A 
ATOM     30  N   UNL     1      51.291   1.594  17.022  0.00  0.00    +0.000 N 
ATOM     31  C   UNL     1      50.044   2.090  16.723  0.00  0.00    +0.000 A 
ATOM     32  O   UNL     1      49.254   1.458  16.028  0.00  0.00    +0.000 OA
ATOM     33  C   UNL     1      49.754   3.380  17.316  0.00  0.00    +0.000 A 
ATOM     34  H   UNL     1      51.524   0.699  16.618  0.00  0.00    +0.000 HD
ENDBRANCH  21  24
ENDBRANCH   2  20
TORSDOF 6
ENDMDL
MODEL 7
REMARK VINA RESULT:    -7.106      3.326      8.680
REMARK INTER + INTRA:         -10.457
REMARK INTER:                  -9.321
REMARK INTRA:                  -1.137
REMARK UNBOUND:                -0.858
REMARK  Name = 
REMARK  7 active torsions:
REMARK  status: ('A' for Active; 'I' for Inactive)
REMARK    1  A    between atoms: C_1  and  C_2
REMARK    2  A    between atoms: C_2  and  N_3
REMARK    3  A    between atoms: C_2  and  C_16
REMARK    4  A    between atoms: C_4  and  C_6
REMARK    5  A    between atoms: C_19  and  C_20
REMARK    6  A    between atoms: C_20  and  N_21
REMARK    7  A    between atoms: C_22  and  C_24
REMARK                            x       y       z     vdW  Elec       q    Type
REMARK                         _______ _______ _______ _____ _____    ______ ____
ROOT
ATOM      1  C   UNL     1      48.732   7.561  12.128  0.00  0.00    +0.000 C 
ATOM      2  C   UNL     1      47.659   7.069  13.106  0.00  0.00    +0.000 C 
ENDROOT
BRANCH   2   3
ATOM      3  C   UNL     1      48.298   6.613  14.414  0.00  0.00    +0.000 A 
ATOM      4  C   UNL     1      49.418   7.274  14.934  0.00  0.00    +0.000 A 
ATOM      5  C   UNL     1      49.965   6.892  16.168  0.00  0.00    +0.000 A 
ATOM      6  C   UNL     1      49.412   5.835  16.904  0.00  0.00    +0.000 A 
ATOM      7  C   UNL     1      48.297   5.168  16.381  0.00  0.00    +0.000 A 
ATOM      8  C   UNL     1      47.754   5.547  15.149  0.00  0.00    +0.000 A 
BRANCH   6   9
ATOM      9  C   UNL     1      49.980   5.434  18.244  0.00  0.00    +0.000 C 
BRANCH   9  10
ATOM     10  N   UNL     1      50.586   4.123  18.193  0.00  0.00    +0.000 N 
ATOM     11  C   UNL     1      51.924   3.957  17.908  0.00  0.00    +0.000 C 
ATOM     12  O   UNL     1      52.675   4.897  17.677  0.00  0.00    +0.000 OA
ATOM     13  H   UNL     1      50.022   3.329  18.443  0.00  0.00    +0.000 HD
BRANCH  11  14
ATOM     14  C   UNL     1      52.374   2.589  17.900  0.00  0.00    +0.000 A 
ATOM     15  C   UNL     1      53.610   2.002  17.704  0.00  0.00    +0.000 A 
ATOM     16  C   UNL     1      53.392   0.618  17.834  0.00  0.00    +0.000 A 
ATOM     17  N   UNL     1      52.117   0.332  18.092  0.00  0.00    +0.000 NA
ATOM     18  N   UNL     1      51.520   1.536  18.129  0.00  0.00    +0.000 N 
ATOM     19  H   UNL     1      50.523   1.586  18.316  0.00  0.00    +0.000 HD
ENDBRANCH  11  14
ENDBRANCH   9  10
ENDBRANCH   6   9
ENDBRANCH   2   3
BRANCH   2  20
ATOM     20  N   UNL     1      46.870   5.974  12.560  0.00  0.00    +0.000 N 
ATOM     21  C   UNL     1      45.501   5.997  12.472  0.00  0.00    +0.000 C 
ATOM     22  O   UNL     1      44.825   6.960  12.819  0.00  0.00    +0.000 OA
ATOM     23  H   UNL     1      47.321   5.064  12.570  0.00  0.00    +0.000 HD
BRANCH  21  24
ATOM     24  C   UNL     1      44.880   4.819  11.858  0.00  0.00    +0.000 A 
ATOM     25  C   UNL     1      44.100   3.970  12.630  0.00  0.00    +0.000 A 
ATOM     26  S   UNL     1      43.447   2.659  11.755  0.00  0.00    +0.000 S 
ATOM     27  C   UNL     1      44.224   3.159  10.325  0.00  0.00    +0.000 A 
ATOM     28  N   UNL     1      44.114   2.434   9.179  0.00  0.00    +0.000 NA
ATOM     29  C   UNL     1      44.783   2.911   8.182  0.00  0.00    +0.000 A 
ATOM     30  N   UNL     1      45.537   4.055   8.222  0.00  0.00    +0.000 N 
ATOM     31  C   UNL     1      45.637   4.843   9.343  0.00  0.00    +0.000 A 
ATOM     32  O   UNL     1      46.257   5.903   9.326  0.00  0.00    +0.000 OA
ATOM     33  C   UNL     1      44.937   4.330  10.503  0.00  0.00    +0.000 A 
ATOM     34  H   UNL     1      46.020   4.384   7.399  0.00  0.00    +0.000 HD
ENDBRANCH  21  24
ENDBRANCH   2  20
TORSDOF 6
ENDMDL
MODEL 8
REMARK VINA RESULT:    -7.021      3.004      4.378
REMARK INTER + INTRA:         -10.342
REMARK INTER:                  -9.127
REMARK INTRA:                  -1.216
REMARK UNBOUND:                -0.858
REMARK  Name = 
REMARK  7 active torsions:
REMARK  status: ('A' for Active; 'I' for Inactive)
REMARK    1  A    between atoms: C_1  and  C_2
REMARK    2  A    between atoms: C_2  and  N_3
REMARK    3  A    between atoms: C_2  and  C_16
REMARK    4  A    between atoms: C_4  and  C_6
REMARK    5  A    between atoms: C_19  and  C_20
REMARK    6  A    between atoms: C_20  and  N_21
REMARK    7  A    between atoms: C_22  and  C_24
REMARK                            x       y       z     vdW  Elec       q    Type
REMARK                         _______ _______ _______ _____ _____    ______ ____
ROOT
ATOM      1  C   UNL     1      48.083   5.223  15.904  0.00  0.00    +0.000 C 
ATOM      2  C   UNL     1      47.611   6.153  14.781  0.00  0.00    +0.000 C 
ENDROOT
BRANCH   2   3
ATOM      3  C   UNL     1      46.793   5.378  13.754  0.00  0.00    +0.000 A 
ATOM      4  C   UNL     1      46.796   3.977  13.743  0.00  0.00    +0.000 A 
ATOM      5  C   UNL     1      45.994   3.266  12.838  0.00  0.00    +0.000 A 
ATOM      6  C   UNL     1      45.179   3.939  11.917  0.00  0.00    +0.000 A 
ATOM      7  C   UNL     1      45.181   5.339  11.922  0.00  0.00    +0.000 A 
ATOM      8  C   UNL     1      45.983   6.048  12.821  0.00  0.00    +0.000 A 
BRANCH   6   9
ATOM      9  C   UNL     1      44.295   3.181  10.957  0.00  0.00    +0.000 C 
BRANCH   9  10
ATOM     10  N   UNL     1      45.059   2.604   9.874  0.00  0.00    +0.000 N 
ATOM     11  C   UNL     1      45.307   3.303   8.713  0.00  0.00    +0.000 C 
ATOM     12  O   UNL     1      44.896   4.442   8.524  0.00  0.00    +0.000 OA
ATOM     13  H   UNL     1      45.472   1.698  10.015  0.00  0.00    +0.000 HD
BRANCH  11  14
ATOM     14  C   UNL     1      46.087   2.590   7.734  0.00  0.00    +0.000 A 
ATOM     15  C   UNL     1      46.578   2.930   6.488  0.00  0.00    +0.000 A 
ATOM     16  C   UNL     1      47.276   1.795   6.039  0.00  0.00    +0.000 A 
ATOM     17  N   UNL     1      47.238   0.798   6.922  0.00  0.00    +0.000 NA
ATOM     18  N   UNL     1      46.516   1.300   7.938  0.00  0.00    +0.000 N 
ATOM     19  H   UNL     1      46.344   0.719   8.754  0.00  0.00    +0.000 HD
ENDBRANCH  11  14
ENDBRANCH   9  10
ENDBRANCH   6   9
ENDBRANCH   2   3
BRANCH   2  20
ATOM     20  N   UNL     1      48.719   6.810  14.101  0.00  0.00    +0.000 N 
ATOM     21  C   UNL     1      48.794   8.166  13.910  0.00  0.00    +0.000 C 
ATOM     22  O   UNL     1      47.943   8.948  14.324  0.00  0.00    +0.000 OA
ATOM     23  H   UNL     1      49.257   6.220  13.473  0.00  0.00    +0.000 HD
BRANCH  21  24
ATOM     24  C   UNL     1      50.004   8.652  13.239  0.00  0.00    +0.000 A 
ATOM     25  C   UNL     1      49.894   9.416  12.085  0.00  0.00    +0.000 A 
ATOM     26  S   UNL     1      51.397   9.904  11.444  0.00  0.00    +0.000 S 
ATOM     27  C   UNL     1      52.247   9.072  12.662  0.00  0.00    +0.000 A 
ATOM     28  N   UNL     1      53.606   9.047  12.674  0.00  0.00    +0.000 NA
ATOM     29  C   UNL     1      54.117   8.349  13.634  0.00  0.00    +0.000 A 
ATOM     30  N   UNL     1      53.392   7.689  14.592  0.00  0.00    +0.000 N 
ATOM     31  C   UNL     1      52.019   7.727  14.647  0.00  0.00    +0.000 A 
ATOM     32  O   UNL     1      51.401   7.191  15.562  0.00  0.00    +0.000 OA
ATOM     33  C   UNL     1      51.396   8.464  13.566  0.00  0.00    +0.000 A 
ATOM     34  H   UNL     1      53.855   7.178  15.329  0.00  0.00    +0.000 HD
ENDBRANCH  21  24
ENDBRANCH   2  20
TORSDOF 6
ENDMDL
MODEL 9
REMARK VINA RESULT:    -6.847      4.727      7.382
REMARK INTER + INTRA:         -10.107
REMARK INTER:                  -9.107
REMARK INTRA:                  -1.000
REMARK UNBOUND:                -0.858
REMARK  Name = 
REMARK  7 active torsions:
REMARK  status: ('A' for Active; 'I' for Inactive)
REMARK    1  A    between atoms: C_1  and  C_2
REMARK    2  A    between atoms: C_2  and  N_3
REMARK    3  A    between atoms: C_2  and  C_16
REMARK    4  A    between atoms: C_4  and  C_6
REMARK    5  A    between atoms: C_19  and  C_20
REMARK    6  A    between atoms: C_20  and  N_21
REMARK    7  A    between atoms: C_22  and  C_24
REMARK                            x       y       z     vdW  Elec       q    Type
REMARK                         _______ _______ _______ _____ _____    ______ ____
ROOT
ATOM      1  C   UNL     1      45.361   9.364  12.641  0.00  0.00    +0.000 C 
ATOM      2  C   UNL     1      46.186   8.098  12.897  0.00  0.00    +0.000 C 
ENDROOT
BRANCH   2   3
ATOM      3  C   UNL     1      47.611   8.275  12.381  0.00  0.00    +0.000 A 
ATOM      4  C   UNL     1      48.044   9.510  11.881  0.00  0.00    +0.000 A 
ATOM      5  C   UNL     1      49.372   9.688  11.466  0.00  0.00    +0.000 A 
ATOM      6  C   UNL     1      50.293   8.633  11.531  0.00  0.00    +0.000 A 
ATOM      7  C   UNL     1      49.859   7.396  12.023  0.00  0.00    +0.000 A 
ATOM      8  C   UNL     1      48.534   7.218  12.434  0.00  0.00    +0.000 A 
BRANCH   6   9
ATOM      9  C   UNL     1      51.730   8.822  11.108  0.00  0.00    +0.000 C 
BRANCH   9  10
ATOM     10  N   UNL     1      52.184   7.738  10.268  0.00  0.00    +0.000 N 
ATOM     11  C   UNL     1      52.724   7.969   9.021  0.00  0.00    +0.000 C 
ATOM     12  O   UNL     1      52.847   9.093   8.549  0.00  0.00    +0.000 OA
ATOM     13  H   UNL     1      52.165   6.806  10.645  0.00  0.00    +0.000 HD
BRANCH  11  14
ATOM     14  C   UNL     1      53.133   6.784   8.312  0.00  0.00    +0.000 A 
ATOM     15  C   UNL     1      54.168   5.885   8.491  0.00  0.00    +0.000 A 
ATOM     16  C   UNL     1      54.017   4.932   7.468  0.00  0.00    +0.000 A 
ATOM     17  N   UNL     1      52.970   5.193   6.687  0.00  0.00    +0.000 NA
ATOM     18  N   UNL     1      52.450   6.315   7.215  0.00  0.00    +0.000 N 
ATOM     19  H   UNL     1      51.622   6.722   6.788  0.00  0.00    +0.000 HD
ENDBRANCH  11  14
ENDBRANCH   9  10
ENDBRANCH   6   9
ENDBRANCH   2   3
BRANCH   2  20
ATOM     20  N   UNL     1      45.603   6.919  12.273  0.00  0.00    +0.000 N 
ATOM     21  C   UNL     1      45.584   5.681  12.863  0.00  0.00    +0.000 C 
ATOM     22  O   UNL     1      46.032   5.467  13.985  0.00  0.00    +0.000 OA
ATOM     23  H   UNL     1      45.525   6.955  11.261  0.00  0.00    +0.000 HD
BRANCH  21  24
ATOM     24  C   UNL     1      44.918   4.619  12.100  0.00  0.00    +0.000 A 
ATOM     25  C   UNL     1      44.096   3.712  12.754  0.00  0.00    +0.000 A 
ATOM     26  S   UNL     1      43.395   2.555  11.716  0.00  0.00    +0.000 S 
ATOM     27  C   UNL     1      44.204   3.200  10.364  0.00  0.00    +0.000 A 
ATOM     28  N   UNL     1      44.073   2.635   9.134  0.00  0.00    +0.000 NA
ATOM     29  C   UNL     1      44.770   3.206   8.209  0.00  0.00    +0.000 A 
ATOM     30  N   UNL     1      45.572   4.302   8.398  0.00  0.00    +0.000 N 
ATOM     31  C   UNL     1      45.696   4.934   9.612  0.00  0.00    +0.000 A 
ATOM     32  O   UNL     1      46.361   5.959   9.733  0.00  0.00    +0.000 OA
ATOM     33  C   UNL     1      44.965   4.306  10.694  0.00  0.00    +0.000 A 
ATOM     34  H   UNL     1      46.075   4.713   7.626  0.00  0.00    +0.000 HD
ENDBRANCH  21  24
ENDBRANCH   2  20
TORSDOF 6
ENDMDL
