MODEL 1
REMARK VINA RESULT:    -8.527      0.000      0.000
REMARK INTER + INTRA:         -12.590
REMARK INTER:                 -11.517
REMARK INTRA:                  -1.073
REMARK UNBOUND:                -1.073
REMARK  Name = 
REMARK  7 active torsions:
REMARK  status: ('A' for Active; 'I' for Inactive)
REMARK    1  A    between atoms: C_1  and  C_2
REMARK    2  A    between atoms: C_2  and  N_3
REMARK    3  A    between atoms: C_2  and  C_16
REMARK    4  A    between atoms: C_4  and  C_6
REMARK    5  A    between atoms: C_19  and  C_20
REMARK    6  A    between atoms: C_20  and  O_21
REMARK    7  A    between atoms: O_21  and  C_22
REMARK                            x       y       z     vdW  Elec       q    Type
REMARK                         _______ _______ _______ _____ _____    ______ ____
ROOT
ATOM      1  C   UNL     1      45.575   9.056  12.880  0.00  0.00    +0.000 C 
ATOM      2  C   UNL     1      46.587   7.910  12.757  0.00  0.00    +0.000 C 
ENDROOT
BRANCH   2   3
ATOM      3  C   UNL     1      45.958   6.734  12.024  0.00  0.00    +0.000 A 
ATOM      4  C   UNL     1      45.017   5.919  12.665  0.00  0.00    +0.000 A 
ATOM      5  C   UNL     1      44.387   4.881  11.972  0.00  0.00    +0.000 A 
ATOM      6  C   UNL     1      44.682   4.637  10.626  0.00  0.00    +0.000 A 
ATOM      7  C   UNL     1      45.645   5.427   9.989  0.00  0.00    +0.000 A 
ATOM      8  C   UNL     1      46.275   6.465  10.681  0.00  0.00    +0.000 A 
BRANCH   6   9
ATOM      9  C   UNL     1      43.942   3.563   9.864  0.00  0.00    +0.000 C 
BRANCH   9  10
ATOM     10  O   UNL     1      44.599   3.255   8.627  0.00  0.00    +0.000 OA
BRANCH  10  11
ATOM     11  C   UNL     1      45.231   2.052   8.583  0.00  0.00    +0.000 C 
ATOM     12  O   UNL     1      44.885   1.057   9.208  0.00  0.00    +0.000 OA
ATOM     13  N   UNL     1      46.311   2.081   7.752  0.00  0.00    +0.000 N 
ATOM     14  C   UNL     1      46.774   3.188   6.971  0.00  0.00    +0.000 C 
ATOM     15  C   UNL     1      48.175   2.748   6.621  0.00  0.00    +0.000 C 
ATOM     16  O   UNL     1      48.148   1.308   6.621  0.00  0.00    +0.000 OA
ATOM     17  C   UNL     1      46.992   0.891   7.361  0.00  0.00    +0.000 C 
ENDBRANCH  10  11
ENDBRANCH   9  10
ENDBRANCH   6   9
ENDBRANCH   2   3
BRANCH   2  18
ATOM     18  N   UNL     1      47.088   7.453  14.047  0.00  0.00    +0.000 N 
ATOM     19  C   UNL     1      48.164   6.611  14.177  0.00  0.00    +0.000 C 
ATOM     20  O   UNL     1      48.825   6.223  13.220  0.00  0.00    +0.000 OA
ATOM     21  H   UNL     1      46.413   7.469  14.807  0.00  0.00    +0.000 HD
BRANCH  19  22
ATOM     22  C   UNL     1      48.542   6.250  15.549  0.00  0.00    +0.000 A 
ATOM     23  C   UNL     1      49.394   7.079  16.266  0.00  0.00    +0.000 A 
ATOM     24  S   UNL     1      49.715   6.528  17.848  0.00  0.00    +0.000 S 
ATOM     25  C   UNL     1      48.764   5.136  17.612  0.00  0.00    +0.000 A 
ATOM     26  N   UNL     1      48.643   4.199  18.590  0.00  0.00    +0.000 NA
ATOM     27  C   UNL     1      47.927   3.176  18.261  0.00  0.00    +0.000 A 
ATOM     28  N   UNL     1      47.306   3.014  17.048  0.00  0.00    +0.000 N 
ATOM     29  C   UNL     1      47.361   3.959  16.051  0.00  0.00    +0.000 A 
ATOM     30  O   UNL     1      46.732   3.826  15.005  0.00  0.00    +0.000 OA
ATOM     31  C   UNL     1      48.185   5.110  16.357  0.00  0.00    +0.000 A 
ATOM     32  H   UNL     1      46.745   2.197  16.861  0.00  0.00    +0.000 HD
ENDBRANCH  19  22
ENDBRANCH   2  18
TORSDOF 6
ENDMDL
MODEL 2
REMARK VINA RESULT:    -8.055      1.910      2.381
REMARK INTER + INTRA:         -11.953
REMARK INTER:                 -10.886
REMARK INTRA:                  -1.067
REMARK UNBOUND:                -1.073
REMARK  Name = 
REMARK  7 active torsions:
REMARK  status: ('A' for Active; 'I' for Inactive)
REMARK    1  A    between atoms: C_1  and  C_2
REMARK    2  A    between atoms: C_2  and  N_3
REMARK    3  A    between atoms: C_2  and  C_16
REMARK    4  A    between atoms: C_4  and  C_6
REMARK    5  A    between atoms: C_19  and  C_20
REMARK    6  A    between atoms: C_20  and  O_21
REMARK    7  A    between atoms: O_21  and  C_22
REMARK                            x       y       z     vdW  Elec       q    Type
REMARK                         _______ _______ _______ _____ _____    ______ ____
ROOT
ATOM      1  C   UNL     1      47.500   8.484  13.603  0.00  0.00    +0.000 C 
ATOM      2  C   UNL     1      47.868   6.996  13.605  0.00  0.00    +0.000 C 
ENDROOT
BRANCH   2   3
ATOM      3  C   UNL     1      46.951   6.229  12.663  0.00  0.00    +0.000 A 
ATOM      4  C   UNL     1      46.298   5.068  13.097  0.00  0.00    +0.000 A 
ATOM      5  C   UNL     1      45.401   4.402  12.257  0.00  0.00    +0.000 A 
ATOM      6  C   UNL     1      45.136   4.881  10.968  0.00  0.00    +0.000 A 
ATOM      7  C   UNL     1      45.810   6.022  10.518  0.00  0.00    +0.000 A 
ATOM      8  C   UNL     1      46.706   6.688  11.358  0.00  0.00    +0.000 A 
BRANCH   6   9
ATOM      9  C   UNL     1      44.110   4.199  10.096  0.00  0.00    +0.000 C 
BRANCH   9  10
ATOM     10  O   UNL     1      44.693   3.740   8.868  0.00  0.00    +0.000 OA
BRANCH  10  11
ATOM     11  C   UNL     1      45.125   2.451   8.871  0.00  0.00    +0.000 C 
ATOM     12  O   UNL     1      44.653   1.557   9.561  0.00  0.00    +0.000 OA
ATOM     13  N   UNL     1      46.160   2.265   8.003  0.00  0.00    +0.000 N 
ATOM     14  C   UNL     1      46.759   3.243   7.147  0.00  0.00    +0.000 C 
ATOM     15  C   UNL     1      48.057   2.568   6.775  0.00  0.00    +0.000 C 
ATOM     16  O   UNL     1      47.803   1.153   6.857  0.00  0.00    +0.000 OA
ATOM     17  C   UNL     1      46.628   0.963   7.657  0.00  0.00    +0.000 C 
ENDBRANCH  10  11
ENDBRANCH   9  10
ENDBRANCH   6   9
ENDBRANCH   2   3
BRANCH   2  18
ATOM     18  N   UNL     1      47.797   6.394  14.930  0.00  0.00    +0.000 N 
ATOM     19  C   UNL     1      48.898   6.208  15.729  0.00  0.00    +0.000 C 
ATOM     20  O   UNL     1      50.021   6.587  15.413  0.00  0.00    +0.000 OA
ATOM     21  H   UNL     1      46.996   5.790  15.093  0.00  0.00    +0.000 HD
BRANCH  19  22
ATOM     22  C   UNL     1      48.652   5.591  17.038  0.00  0.00    +0.000 A 
ATOM     23  C   UNL     1      48.733   4.212  17.172  0.00  0.00    +0.000 A 
ATOM     24  S   UNL     1      48.442   3.660  18.759  0.00  0.00    +0.000 S 
ATOM     25  C   UNL     1      48.150   5.243  19.312  0.00  0.00    +0.000 A 
ATOM     26  N   UNL     1      47.800   5.478  20.606  0.00  0.00    +0.000 NA
ATOM     27  C   UNL     1      47.567   6.720  20.877  0.00  0.00    +0.000 A 
ATOM     28  N   UNL     1      47.670   7.748  19.975  0.00  0.00    +0.000 N 
ATOM     29  C   UNL     1      48.068   7.562  18.673  0.00  0.00    +0.000 A 
ATOM     30  O   UNL     1      48.227   8.509  17.908  0.00  0.00    +0.000 OA
ATOM     31  C   UNL     1      48.304   6.181  18.308  0.00  0.00    +0.000 A 
ATOM     32  H   UNL     1      47.490   8.700  20.257  0.00  0.00    +0.000 HD
ENDBRANCH  19  22
ENDBRANCH   2  18
TORSDOF 6
ENDMDL
MODEL 3
REMARK VINA RESULT:    -7.924      1.798      2.380
REMARK INTER + INTRA:         -11.776
REMARK INTER:                 -10.721
REMARK INTRA:                  -1.055
REMARK UNBOUND:                -1.073
REMARK  Name = 
REMARK  7 active torsions:
REMARK  status: ('A' for Active; 'I' for Inactive)
REMARK    1  A    between atoms: C_1  and  C_2
REMARK    2  A    between atoms: C_2  and  N_3
REMARK    3  A    between atoms: C_2  and  C_16
REMARK    4  A    between atoms: C_4  and  C_6
REMARK    5  A    between atoms: C_19  and  C_20
REMARK    6  A    between atoms: C_20  and  O_21
REMARK    7  A    between atoms: O_21  and  C_22
REMARK                            x       y       z     vdW  Elec       q    Type
REMARK                         _______ _______ _______ _____ _____    ______ ____
ROOT
ATOM      1  C   UNL     1      49.072   7.675  13.009  0.00  0.00    +0.000 C 
ATOM      2  C   UNL     1      48.427   6.446  13.662  0.00  0.00    +0.000 C 
ENDROOT
BRANCH   2   3
ATOM      3  C   UNL     1      47.121   6.105  12.960  0.00  0.00    +0.000 A 
ATOM      4  C   UNL     1      46.796   6.701  11.735  0.00  0.00    +0.000 A 
ATOM      5  C   UNL     1      45.631   6.336  11.055  0.00  0.00    +0.000 A 
ATOM      6  C   UNL     1      44.767   5.369  11.582  0.00  0.00    +0.000 A 
ATOM      7  C   UNL     1      45.069   4.794  12.821  0.00  0.00    +0.000 A 
ATOM      8  C   UNL     1      46.234   5.158  13.501  0.00  0.00    +0.000 A 
BRANCH   6   9
ATOM      9  C   UNL     1      43.550   4.927  10.805  0.00  0.00    +0.000 C 
BRANCH   9  10
ATOM     10  O   UNL     1      43.919   4.347   9.546  0.00  0.00    +0.000 OA
BRANCH  10  11
ATOM     11  C   UNL     1      44.336   3.054   9.597  0.00  0.00    +0.000 C 
ATOM     12  O   UNL     1      43.898   2.207  10.365  0.00  0.00    +0.000 OA
ATOM     13  N   UNL     1      45.314   2.804   8.680  0.00  0.00    +0.000 N 
ATOM     14  C   UNL     1      45.870   3.723   7.734  0.00  0.00    +0.000 C 
ATOM     15  C   UNL     1      47.135   3.010   7.324  0.00  0.00    +0.000 C 
ATOM     16  O   UNL     1      46.872   1.605   7.503  0.00  0.00    +0.000 OA
ATOM     17  C   UNL     1      45.745   1.478   8.382  0.00  0.00    +0.000 C 
ENDBRANCH  10  11
ENDBRANCH   9  10
ENDBRANCH   6   9
ENDBRANCH   2   3
BRANCH   2  18
ATOM     18  N   UNL     1      48.168   6.629  15.085  0.00  0.00    +0.000 N 
ATOM     19  C   UNL     1      49.130   6.465  16.050  0.00  0.00    +0.000 C 
ATOM     20  O   UNL     1      50.300   6.208  15.785  0.00  0.00    +0.000 OA
ATOM     21  H   UNL     1      47.198   6.515  15.369  0.00  0.00    +0.000 HD
BRANCH  19  22
ATOM     22  C   UNL     1      48.703   6.691  17.436  0.00  0.00    +0.000 A 
ATOM     23  C   UNL     1      48.362   7.972  17.848  0.00  0.00    +0.000 A 
ATOM     24  S   UNL     1      47.869   8.058  19.478  0.00  0.00    +0.000 S 
ATOM     25  C   UNL     1      48.142   6.394  19.703  0.00  0.00    +0.000 A 
ATOM     26  N   UNL     1      47.946   5.811  20.917  0.00  0.00    +0.000 NA
ATOM     27  C   UNL     1      48.232   4.552  20.955  0.00  0.00    +0.000 A 
ATOM     28  N   UNL     1      48.679   3.820  19.885  0.00  0.00    +0.000 N 
ATOM     29  C   UNL     1      48.843   4.357  18.630  0.00  0.00    +0.000 A 
ATOM     30  O   UNL     1      49.169   3.662  17.671  0.00  0.00    +0.000 OA
ATOM     31  C   UNL     1      48.572   5.776  18.543  0.00  0.00    +0.000 A 
ATOM     32  H   UNL     1      48.869   2.833  19.979  0.00  0.00    +0.000 HD
ENDBRANCH  19  22
ENDBRANCH   2  18
TORSDOF 6
ENDMDL
MODEL 4
REMARK VINA RESULT:    -7.186      2.828      8.165
REMARK INTER + INTRA:         -10.779
REMARK INTER:                  -9.453
REMARK INTRA:                  -1.326
REMARK UNBOUND:                -1.073
REMARK  Name = 
REMARK  7 active torsions:
REMARK  status: ('A' for Active; 'I' for Inactive)
REMARK    1  A    between atoms: C_1  and  C_2
REMARK    2  A    between atoms: C_2  and  N_3
REMARK    3  A    between atoms: C_2  and  C_16
REMARK    4  A    between atoms: C_4  and  C_6
REMARK    5  A    between atoms: C_19  and  C_20
REMARK    6  A    between atoms: C_20  and  O_21
REMARK    7  A    between atoms: O_21  and  C_22
REMARK                            x       y       z     vdW  Elec       q    Type
REMARK                         _______ _______ _______ _____ _____    ______ ____
ROOT
ATOM      1  C   UNL     1      49.378   7.825  11.297  0.00  0.00    +0.000 C 
ATOM      2  C   UNL     1      48.162   7.891  12.229  0.00  0.00    +0.000 C 
ENDROOT
BRANCH   2   3
ATOM      3  C   UNL     1      48.618   8.022  13.675  0.00  0.00    +0.000 A 
ATOM      4  C   UNL     1      47.904   8.822  14.576  0.00  0.00    +0.000 A 
ATOM      5  C   UNL     1      48.280   8.888  15.920  0.00  0.00    +0.000 A 
ATOM      6  C   UNL     1      49.375   8.155  16.394  0.00  0.00    +0.000 A 
ATOM      7  C   UNL     1      50.112   7.380  15.493  0.00  0.00    +0.000 A 
ATOM      8  C   UNL     1      49.737   7.314  14.149  0.00  0.00    +0.000 A 
BRANCH   6   9
ATOM      9  C   UNL     1      49.728   8.173  17.862  0.00  0.00    +0.000 C 
BRANCH   9  10
ATOM     10  O   UNL     1      49.654   6.859  18.431  0.00  0.00    +0.000 OA
BRANCH  10  11
ATOM     11  C   UNL     1      48.407   6.322  18.505  0.00  0.00    +0.000 C 
ATOM     12  O   UNL     1      47.428   6.888  18.975  0.00  0.00    +0.000 OA
ATOM     13  N   UNL     1      48.372   5.060  17.990  0.00  0.00    +0.000 N 
ATOM     14  C   UNL     1      49.456   4.332  17.405  0.00  0.00    +0.000 C 
ATOM     15  C   UNL     1      48.918   2.921  17.419  0.00  0.00    +0.000 C 
ATOM     16  O   UNL     1      47.485   3.046  17.352  0.00  0.00    +0.000 OA
ATOM     17  C   UNL     1      47.141   4.383  17.743  0.00  0.00    +0.000 C 
ENDBRANCH  10  11
ENDBRANCH   9  10
ENDBRANCH   6   9
ENDBRANCH   2   3
BRANCH   2  18
ATOM     18  N   UNL     1      47.291   6.729  12.111  0.00  0.00    +0.000 N 
ATOM     19  C   UNL     1      45.963   6.819  11.775  0.00  0.00    +0.000 C 
ATOM     20  O   UNL     1      45.419   7.882  11.492  0.00  0.00    +0.000 OA
ATOM     21  H   UNL     1      47.585   5.908  12.633  0.00  0.00    +0.000 HD
BRANCH  19  22
ATOM     22  C   UNL     1      45.227   5.551  11.694  0.00  0.00    +0.000 A 
ATOM     23  C   UNL     1      44.573   5.066  12.817  0.00  0.00    +0.000 A 
ATOM     24  S   UNL     1      43.750   3.596  12.549  0.00  0.00    +0.000 S 
ATOM     25  C   UNL     1      44.282   3.533  10.933  0.00  0.00    +0.000 A 
ATOM     26  N   UNL     1      43.957   2.484  10.131  0.00  0.00    +0.000 NA
ATOM     27  C   UNL     1      44.462   2.546   8.944  0.00  0.00    +0.000 A 
ATOM     28  N   UNL     1      45.249   3.570   8.482  0.00  0.00    +0.000 N 
ATOM     29  C   UNL     1      45.560   4.672   9.242  0.00  0.00    +0.000 A 
ATOM     30  O   UNL     1      46.200   5.613   8.779  0.00  0.00    +0.000 OA
ATOM     31  C   UNL     1      45.049   4.634  10.596  0.00  0.00    +0.000 A 
ATOM     32  H   UNL     1      45.598   3.565   7.535  0.00  0.00    +0.000 HD
ENDBRANCH  19  22
ENDBRANCH   2  18
TORSDOF 6
ENDMDL
MODEL 5
REMARK VINA RESULT:    -7.157      3.024      8.135
REMARK INTER + INTRA:         -10.740
REMARK INTER:                  -9.576
REMARK INTRA:                  -1.164
REMARK UNBOUND:                -1.073
REMARK  Name = 
REMARK  7 active torsions:
REMARK  status: ('A' for Active; 'I' for Inactive)
REMARK    1  A    between atoms: C_1  and  C_2
REMARK    2  A    between atoms: C_2  and  N_3
REMARK    3  A    between atoms: C_2  and  C_16
REMARK    4  A    between atoms: C_4  and  C_6
REMARK    5  A    between atoms: C_19  and  C_20
REMARK    6  A    between atoms: C_20  and  O_21
REMARK    7  A    between atoms: O_21  and  C_22
REMARK                            x       y       z     vdW  Elec       q    Type
REMARK                         _______ _______ _______ _____ _____    ______ ____
ROOT
ATOM      1  C   UNL     1      49.099   7.883  11.271  0.00  0.00    +0.000 C 
ATOM      2  C   UNL     1      48.120   7.677  12.433  0.00  0.00    +0.000 C 
ENDROOT
BRANCH   2   3
ATOM      3  C   UNL     1      48.883   7.530  13.741  0.00  0.00    +0.000 A 
ATOM      4  C   UNL     1      48.311   6.853  14.826  0.00  0.00    +0.000 A 
ATOM      5  C   UNL     1      49.038   6.656  16.003  0.00  0.00    +0.000 A 
ATOM      6  C   UNL     1      50.351   7.127  16.122  0.00  0.00    +0.000 A 
ATOM      7  C   UNL     1      50.916   7.832  15.054  0.00  0.00    +0.000 A 
ATOM      8  C   UNL     1      50.190   8.030  13.877  0.00  0.00    +0.000 A 
BRANCH   6   9
ATOM      9  C   UNL     1      51.154   6.844  17.368  0.00  0.00    +0.000 C 
BRANCH   9  10
ATOM     10  O   UNL     1      50.734   5.623  17.992  0.00  0.00    +0.000 OA
BRANCH  10  11
ATOM     11  C   UNL     1      51.498   4.532  17.718  0.00  0.00    +0.000 C 
ATOM     12  O   UNL     1      52.722   4.514  17.731  0.00  0.00    +0.000 OA
ATOM     13  N   UNL     1      50.732   3.444  17.421  0.00  0.00    +0.000 N 
ATOM     14  C   UNL     1      49.303   3.369  17.402  0.00  0.00    +0.000 C 
ATOM     15  C   UNL     1      49.076   2.094  16.625  0.00  0.00    +0.000 C 
ATOM     16  O   UNL     1      50.239   1.278  16.857  0.00  0.00    +0.000 OA
ATOM     17  C   UNL     1      51.290   2.134  17.328  0.00  0.00    +0.000 C 
ENDBRANCH  10  11
ENDBRANCH   9  10
ENDBRANCH   6   9
ENDBRANCH   2   3
BRANCH   2  18
ATOM     18  N   UNL     1      47.259   6.514  12.253  0.00  0.00    +0.000 N 
ATOM     19  C   UNL     1      45.951   6.605  11.848  0.00  0.00    +0.000 C 
ATOM     20  O   UNL     1      45.419   7.670  11.550  0.00  0.00    +0.000 OA
ATOM     21  H   UNL     1      47.528   5.687  12.779  0.00  0.00    +0.000 HD
BRANCH  19  22
ATOM     22  C   UNL     1      45.225   5.337  11.712  0.00  0.00    +0.000 A 
ATOM     23  C   UNL     1      44.581   4.794  12.814  0.00  0.00    +0.000 A 
ATOM     24  S   UNL     1      43.768   3.332  12.481  0.00  0.00    +0.000 S 
ATOM     25  C   UNL     1      44.291   3.349  10.862  0.00  0.00    +0.000 A 
ATOM     26  N   UNL     1      43.970   2.336  10.013  0.00  0.00    +0.000 NA
ATOM     27  C   UNL     1      44.468   2.458   8.827  0.00  0.00    +0.000 A 
ATOM     28  N   UNL     1      45.244   3.509   8.410  0.00  0.00    +0.000 N 
ATOM     29  C   UNL     1      45.551   4.577   9.219  0.00  0.00    +0.000 A 
ATOM     30  O   UNL     1      46.181   5.543   8.797  0.00  0.00    +0.000 OA
ATOM     31  C   UNL     1      45.047   4.470  10.572  0.00  0.00    +0.000 A 
ATOM     32  H   UNL     1      45.588   3.551   7.462  0.00  0.00    +0.000 HD
ENDBRANCH  19  22
ENDBRANCH   2  18
TORSDOF 6
ENDMDL
MODEL 6
REMARK VINA RESULT:    -7.023      2.035      2.699
REMARK INTER + INTRA:         -10.559
REMARK INTER:                  -9.844
REMARK INTRA:                  -0.716
REMARK UNBOUND:                -1.073
REMARK  Name = 
REMARK  7 active torsions:
REMARK  status: ('A' for Active; 'I' for Inactive)
REMARK    1  A    between atoms: C_1  and  C_2
REMARK    2  A    between atoms: C_2  and  N_3
REMARK    3  A    between atoms: C_2  and  C_16
REMARK    4  A    between atoms: C_4  and  C_6
REMARK    5  A    between atoms: C_19  and  C_20
REMARK    6  A    between atoms: C_20  and  O_21
REMARK    7  A    between atoms: O_21  and  C_22
REMARK                            x       y       z     vdW  Elec       q    Type
REMARK                         _______ _______ _______ _____ _____    ______ ____
ROOT
ATOM      1  C   UNL     1      48.510   8.855  12.305  0.00  0.00    +0.000 C 
ATOM      2  C   UNL     1      48.615   7.398  12.773  0.00  0.00    +0.000 C 
ENDROOT
BRANCH   2   3
ATOM      3  C   UNL     1      47.249   6.730  12.716  0.00  0.00    +0.000 A 
ATOM      4  C   UNL     1      47.069   5.438  13.225  0.00  0.00    +0.000 A 
ATOM      5  C   UNL     1      45.801   4.851  13.238  0.00  0.00    +0.000 A 
ATOM      6  C   UNL     1      44.687   5.541  12.746  0.00  0.00    +0.000 A 
ATOM      7  C   UNL     1      44.866   6.819  12.207  0.00  0.00    +0.000 A 
ATOM      8  C   UNL     1      46.134   7.407  12.194  0.00  0.00    +0.000 A 
BRANCH   6   9
ATOM      9  C   UNL     1      43.309   4.929  12.833  0.00  0.00    +0.000 C 
BRANCH   9  10
ATOM     10  O   UNL     1      42.864   4.465  11.551  0.00  0.00    +0.000 OA
BRANCH  10  11
ATOM     11  C   UNL     1      43.316   3.236  11.184  0.00  0.00    +0.000 C 
ATOM     12  O   UNL     1      43.085   2.196  11.787  0.00  0.00    +0.000 OA
ATOM     13  N   UNL     1      44.070   3.296  10.049  0.00  0.00    +0.000 N 
ATOM     14  C   UNL     1      44.374   4.459   9.271  0.00  0.00    +0.000 C 
ATOM     15  C   UNL     1      45.535   3.972   8.437  0.00  0.00    +0.000 C 
ATOM     16  O   UNL     1      45.356   2.548   8.306  0.00  0.00    +0.000 OA
ATOM     17  C   UNL     1      44.459   2.121   9.341  0.00  0.00    +0.000 C 
ENDBRANCH  10  11
ENDBRANCH   9  10
ENDBRANCH   6   9
ENDBRANCH   2   3
BRANCH   2  18
ATOM     18  N   UNL     1      49.150   7.271  14.123  0.00  0.00    +0.000 N 
ATOM     19  C   UNL     1      48.714   8.036  15.176  0.00  0.00    +0.000 C 
ATOM     20  O   UNL     1      47.800   8.848  15.076  0.00  0.00    +0.000 OA
ATOM     21  H   UNL     1      50.086   6.880  14.186  0.00  0.00    +0.000 HD
BRANCH  19  22
ATOM     22  C   UNL     1      49.355   7.779  16.472  0.00  0.00    +0.000 A 
ATOM     23  C   UNL     1      50.009   8.811  17.130  0.00  0.00    +0.000 A 
ATOM     24  S   UNL     1      50.678   8.352  18.629  0.00  0.00    +0.000 S 
ATOM     25  C   UNL     1      50.158   6.744  18.429  0.00  0.00    +0.000 A 
ATOM     26  N   UNL     1      50.445   5.795  19.359  0.00  0.00    +0.000 NA
ATOM     27  C   UNL     1      50.026   4.611  19.059  0.00  0.00    +0.000 A 
ATOM     28  N   UNL     1      49.331   4.294  17.920  0.00  0.00    +0.000 N 
ATOM     29  C   UNL     1      48.976   5.230  16.978  0.00  0.00    +0.000 A 
ATOM     30  O   UNL     1      48.285   4.935  16.007  0.00  0.00    +0.000 OA
ATOM     31  C   UNL     1      49.456   6.569  17.250  0.00  0.00    +0.000 A 
ATOM     32  H   UNL     1      49.017   3.350  17.754  0.00  0.00    +0.000 HD
ENDBRANCH  19  22
ENDBRANCH   2  18
TORSDOF 6
ENDMDL
MODEL 7
REMARK VINA RESULT:    -6.904      3.852      8.231
REMARK INTER + INTRA:         -10.398
REMARK INTER:                  -9.251
REMARK INTRA:                  -1.146
REMARK UNBOUND:                -1.073
REMARK  Name = 
REMARK  7 active torsions:
REMARK  status: ('A' for Active; 'I' for Inactive)
REMARK    1  A    between atoms: C_1  and  C_2
REMARK    2  A    between atoms: C_2  and  N_3
REMARK    3  A    between atoms: C_2  and  C_16
REMARK    4  A    between atoms: C_4  and  C_6
REMARK    5  A    between atoms: C_19  and  C_20
REMARK    6  A    between atoms: C_20  and  O_21
REMARK    7  A    between atoms: O_21  and  C_22
REMARK                            x       y       z     vdW  Elec       q    Type
REMARK                         _______ _______ _______ _____ _____    ______ ____
ROOT
ATOM      1  C   UNL     1      49.291   8.143  12.129  0.00  0.00    +0.000 C 
ATOM      2  C   UNL     1      48.111   7.565  12.919  0.00  0.00    +0.000 C 
ENDROOT
BRANCH   2   3
ATOM      3  C   UNL     1      48.600   6.979  14.236  0.00  0.00    +0.000 A 
ATOM      4  C   UNL     1      47.889   5.947  14.862  0.00  0.00    +0.000 A 
ATOM      5  C   UNL     1      48.375   5.360  16.034  0.00  0.00    +0.000 A 
ATOM      6  C   UNL     1      49.579   5.789  16.604  0.00  0.00    +0.000 A 
ATOM      7  C   UNL     1      50.277   6.841  16.001  0.00  0.00    +0.000 A 
ATOM      8  C   UNL     1      49.793   7.428  14.829  0.00  0.00    +0.000 A 
BRANCH   6   9
ATOM      9  C   UNL     1      50.134   5.099  17.827  0.00  0.00    +0.000 C 
BRANCH   9  10
ATOM     10  O   UNL     1      51.312   4.345  17.510  0.00  0.00    +0.000 OA
BRANCH  10  11
ATOM     11  C   UNL     1      51.143   2.998  17.432  0.00  0.00    +0.000 C 
ATOM     12  O   UNL     1      50.140   2.443  17.003  0.00  0.00    +0.000 OA
ATOM     13  N   UNL     1      52.236   2.326  17.894  0.00  0.00    +0.000 N 
ATOM     14  C   UNL     1      53.453   2.890  18.392  0.00  0.00    +0.000 C 
ATOM     15  C   UNL     1      54.064   1.710  19.108  0.00  0.00    +0.000 C 
ATOM     16  O   UNL     1      53.562   0.538  18.438  0.00  0.00    +0.000 OA
ATOM     17  C   UNL     1      52.393   0.922  17.700  0.00  0.00    +0.000 C 
ENDBRANCH  10  11
ENDBRANCH   9  10
ENDBRANCH   6   9
ENDBRANCH   2   3
BRANCH   2  18
ATOM     18  N   UNL     1      47.383   6.538  12.185  0.00  0.00    +0.000 N 
ATOM     19  C   UNL     1      46.220   6.788  11.500  0.00  0.00    +0.000 C 
ATOM     20  O   UNL     1      45.732   7.909  11.406  0.00  0.00    +0.000 OA
ATOM     21  H   UNL     1      47.547   5.583  12.492  0.00  0.00    +0.000 HD
BRANCH  19  22
ATOM     22  C   UNL     1      45.615   5.642  10.809  0.00  0.00    +0.000 A 
ATOM     23  C   UNL     1      45.724   5.539   9.430  0.00  0.00    +0.000 A 
ATOM     24  S   UNL     1      44.988   4.141   8.787  0.00  0.00    +0.000 S 
ATOM     25  C   UNL     1      44.455   3.650  10.328  0.00  0.00    +0.000 A 
ATOM     26  N   UNL     1      43.712   2.522  10.483  0.00  0.00    +0.000 NA
ATOM     27  C   UNL     1      43.340   2.293  11.699  0.00  0.00    +0.000 A 
ATOM     28  N   UNL     1      43.661   3.081  12.775  0.00  0.00    +0.000 N 
ATOM     29  C   UNL     1      44.450   4.201  12.670  0.00  0.00    +0.000 A 
ATOM     30  O   UNL     1      44.788   4.845  13.660  0.00  0.00    +0.000 OA
ATOM     31  C   UNL     1      44.861   4.524  11.320  0.00  0.00    +0.000 A 
ATOM     32  H   UNL     1      43.352   2.835  13.704  0.00  0.00    +0.000 HD
ENDBRANCH  19  22
ENDBRANCH   2  18
TORSDOF 6
ENDMDL
MODEL 8
REMARK VINA RESULT:    -6.825      3.580      5.585
REMARK INTER + INTRA:         -10.291
REMARK INTER:                  -9.466
REMARK INTRA:                  -0.825
REMARK UNBOUND:                -1.073
REMARK  Name = 
REMARK  7 active torsions:
REMARK  status: ('A' for Active; 'I' for Inactive)
REMARK    1  A    between atoms: C_1  and  C_2
REMARK    2  A    between atoms: C_2  and  N_3
REMARK    3  A    between atoms: C_2  and  C_16
REMARK    4  A    between atoms: C_4  and  C_6
REMARK    5  A    between atoms: C_19  and  C_20
REMARK    6  A    between atoms: C_20  and  O_21
REMARK    7  A    between atoms: O_21  and  C_22
REMARK                            x       y       z     vdW  Elec       q    Type
REMARK                         _______ _______ _______ _____ _____    ______ ____
ROOT
ATOM      1  C   UNL     1      47.195   3.288  17.398  0.00  0.00    +0.000 C 
ATOM      2  C   UNL     1      48.185   4.447  17.230  0.00  0.00    +0.000 C 
ENDROOT
BRANCH   2   3
ATOM      3  C   UNL     1      48.016   5.085  15.859  0.00  0.00    +0.000 A 
ATOM      4  C   UNL     1      47.198   4.486  14.893  0.00  0.00    +0.000 A 
ATOM      5  C   UNL     1      46.985   5.107  13.659  0.00  0.00    +0.000 A 
ATOM      6  C   UNL     1      47.583   6.338  13.364  0.00  0.00    +0.000 A 
ATOM      7  C   UNL     1      48.427   6.925  14.313  0.00  0.00    +0.000 A 
ATOM      8  C   UNL     1      48.640   6.305  15.547  0.00  0.00    +0.000 A 
BRANCH   6   9
ATOM      9  C   UNL     1      47.288   7.037  12.059  0.00  0.00    +0.000 C 
BRANCH   9  10
ATOM     10  O   UNL     1      46.443   6.239  11.220  0.00  0.00    +0.000 OA
BRANCH  10  11
ATOM     11  C   UNL     1      45.107   6.441  11.373  0.00  0.00    +0.000 C 
ATOM     12  O   UNL     1      44.580   7.532  11.549  0.00  0.00    +0.000 OA
ATOM     13  N   UNL     1      44.410   5.271  11.306  0.00  0.00    +0.000 N 
ATOM     14  C   UNL     1      44.938   3.959  11.084  0.00  0.00    +0.000 C 
ATOM     15  C   UNL     1      43.786   3.089  11.525  0.00  0.00    +0.000 C 
ATOM     16  O   UNL     1      42.596   3.871  11.311  0.00  0.00    +0.000 OA
ATOM     17  C   UNL     1      42.987   5.247  11.205  0.00  0.00    +0.000 C 
ENDBRANCH  10  11
ENDBRANCH   9  10
ENDBRANCH   6   9
ENDBRANCH   2   3
BRANCH   2  18
ATOM     18  N   UNL     1      49.574   4.037  17.395  0.00  0.00    +0.000 N 
ATOM     19  C   UNL     1      50.316   4.332  18.511  0.00  0.00    +0.000 C 
ATOM     20  O   UNL     1      49.850   4.916  19.484  0.00  0.00    +0.000 OA
ATOM     21  H   UNL     1      50.080   3.858  16.532  0.00  0.00    +0.000 HD
BRANCH  19  22
ATOM     22  C   UNL     1      51.699   3.841  18.519  0.00  0.00    +0.000 A 
ATOM     23  C   UNL     1      52.711   4.649  19.019  0.00  0.00    +0.000 A 
ATOM     24  S   UNL     1      54.252   3.921  18.975  0.00  0.00    +0.000 S 
ATOM     25  C   UNL     1      53.628   2.519  18.241  0.00  0.00    +0.000 A 
ATOM     26  N   UNL     1      54.445   1.489  17.891  0.00  0.00    +0.000 NA
ATOM     27  C   UNL     1      53.844   0.508  17.305  0.00  0.00    +0.000 A 
ATOM     28  N   UNL     1      52.497   0.456  17.053  0.00  0.00    +0.000 N 
ATOM     29  C   UNL     1      51.628   1.450  17.433  0.00  0.00    +0.000 A 
ATOM     30  O   UNL     1      50.416   1.344  17.266  0.00  0.00    +0.000 OA
ATOM     31  C   UNL     1      52.258   2.592  18.061  0.00  0.00    +0.000 A 
ATOM     32  H   UNL     1      52.087  -0.350  16.605  0.00  0.00    +0.000 HD
ENDBRANCH  19  22
ENDBRANCH   2  18
TORSDOF 6
ENDMDL
MODEL 9
REMARK VINA RESULT:    -6.652      3.851      7.814
REMARK INTER + INTRA:         -10.058
REMARK INTER:                  -8.447
REMARK INTRA:                  -1.611
REMARK UNBOUND:                -1.073
REMARK  Name = 
REMARK  7 active torsions:
REMARK  status: ('A' for Active; 'I' for Inactive)
REMARK    1  A    between atoms: C_1  and  C_2
REMARK    2  A    between atoms: C_2  and  N_3
REMARK    3  A    between atoms: C_2  and  C_16
REMARK    4  A    between atoms: C_4  and  C_6
REMARK    5  A    between atoms: C_19  and  C_20
REMARK    6  A    between atoms: C_20  and  O_21
REMARK    7  A    between atoms: O_21  and  C_22
REMARK                            x       y       z     vdW  Elec       q    Type
REMARK                         _______ _______ _______ _____ _____    ______ ____
ROOT
ATOM      1  C   UNL     1      50.312   8.763  12.973  0.00  0.00    +0.000 C 
ATOM      2  C   UNL     1      49.127   8.474  13.902  0.00  0.00    +0.000 C 
ENDROOT
BRANCH   2   3
ATOM      3  C   UNL     1      49.615   7.806  15.180  0.00  0.00    +0.000 A 
ATOM      4  C   UNL     1      50.952   7.410  15.308  0.00  0.00    +0.000 A 
ATOM      5  C   UNL     1      51.419   6.862  16.506  0.00  0.00    +0.000 A 
ATOM      6  C   UNL     1      50.562   6.699  17.601  0.00  0.00    +0.000 A 
ATOM      7  C   UNL     1      49.218   7.063  17.468  0.00  0.00    +0.000 A 
ATOM      8  C   UNL     1      48.751   7.611  16.271  0.00  0.00    +0.000 A 
BRANCH   6   9
ATOM      9  C   UNL     1      51.091   6.176  18.914  0.00  0.00    +0.000 C 
BRANCH   9  10
ATOM     10  O   UNL     1      50.660   4.829  19.150  0.00  0.00    +0.000 OA
BRANCH  10  11
ATOM     11  C   UNL     1      51.215   3.886  18.343  0.00  0.00    +0.000 C 
ATOM     12  O   UNL     1      52.417   3.687  18.224  0.00  0.00    +0.000 OA
ATOM     13  N   UNL     1      50.264   3.178  17.669  0.00  0.00    +0.000 N 
ATOM     14  C   UNL     1      48.844   3.329  17.761  0.00  0.00    +0.000 C 
ATOM     15  C   UNL     1      48.380   2.599  16.523  0.00  0.00    +0.000 C 
ATOM     16  O   UNL     1      49.388   1.607  16.249  0.00  0.00    +0.000 OA
ATOM     17  C   UNL     1      50.582   1.991  16.945  0.00  0.00    +0.000 C 
ENDBRANCH  10  11
ENDBRANCH   9  10
ENDBRANCH   6   9
ENDBRANCH   2   3
BRANCH   2  18
ATOM     18  N   UNL     1      48.112   7.630  13.285  0.00  0.00    +0.000 N 
ATOM     19  C   UNL     1      46.782   7.967  13.239  0.00  0.00    +0.000 C 
ATOM     20  O   UNL     1      46.352   9.034  13.665  0.00  0.00    +0.000 OA
ATOM     21  H   UNL     1      48.345   6.642  13.223  0.00  0.00    +0.000 HD
BRANCH  19  22
ATOM     22  C   UNL     1      45.892   7.007  12.576  0.00  0.00    +0.000 A 
ATOM     23  C   UNL     1      44.886   7.469  11.740  0.00  0.00    +0.000 A 
ATOM     24  S   UNL     1      43.957   6.226  11.033  0.00  0.00    +0.000 S 
ATOM     25  C   UNL     1      44.837   5.027  11.860  0.00  0.00    +0.000 A 
ATOM     26  N   UNL     1      44.520   3.711  11.727  0.00  0.00    +0.000 NA
ATOM     27  C   UNL     1      45.243   2.915  12.443  0.00  0.00    +0.000 A 
ATOM     28  N   UNL     1      46.264   3.315  13.267  0.00  0.00    +0.000 N 
ATOM     29  C   UNL     1      46.650   4.628  13.392  0.00  0.00    +0.000 A 
ATOM     30  O   UNL     1      47.618   4.952  14.075  0.00  0.00    +0.000 OA
ATOM     31  C   UNL     1      45.845   5.566  12.638  0.00  0.00    +0.000 A 
ATOM     32  H   UNL     1      46.802   2.638  13.787  0.00  0.00    +0.000 HD
ENDBRANCH  19  22
ENDBRANCH   2  18
TORSDOF 6
ENDMDL
