MODEL 1
REMARK VINA RESULT:    -8.202      0.000      0.000
REMARK INTER + INTRA:         -12.338
REMARK INTER:                 -11.558
REMARK INTRA:                  -0.779
REMARK UNBOUND:                -0.779
REMARK  Name = 
REMARK  7 active torsions:
REMARK  status: ('A' for Active; 'I' for Inactive)
REMARK    1  A    between atoms: C_2  and  C_3
REMARK    2  A    between atoms: C_7  and  N_8
REMARK    3  A    between atoms: N_8  and  C_9
REMARK    4  A    between atoms: C_9  and  C_10
REMARK    5  A    between atoms: C_13  and  C_14
REMARK    6  A    between atoms: C_14  and  N_15
REMARK    7  A    between atoms: C_16  and  C_18
REMARK                            x       y       z     vdW  Elec       q    Type
REMARK                         _______ _______ _______ _____ _____    ______ ____
ROOT
ATOM      1  C   UNL     1      45.084   5.251  11.695  0.00  0.00    +0.000 A 
ATOM      2  C   UNL     1      45.758   6.408  11.279  0.00  0.00    +0.000 A 
ATOM      3  C   UNL     1      46.872   6.875  11.985  0.00  0.00    +0.000 A 
ATOM      4  C   UNL     1      47.348   6.184  13.107  0.00  0.00    +0.000 A 
ATOM      5  C   UNL     1      46.674   5.028  13.521  0.00  0.00    +0.000 A 
ATOM      6  C   UNL     1      45.562   4.560  12.816  0.00  0.00    +0.000 A 
ENDROOT
BRANCH   1   7
ATOM      7  C   UNL     1      43.860   4.762  10.957  0.00  0.00    +0.000 C 
BRANCH   7   8
ATOM      8  N   UNL     1      44.123   3.513  10.290  0.00  0.00    +0.000 N 
ATOM      9  H   UNL     1      43.623   2.679  10.572  0.00  0.00    +0.000 HD
BRANCH   8  14
ATOM     10  C   UNL     1      46.226   1.842   7.979  0.00  0.00    +0.000 A 
ATOM     11  C   UNL     1      46.741   2.839   7.164  0.00  0.00    +0.000 A 
ATOM     12  C   UNL     1      46.345   4.144   7.413  0.00  0.00    +0.000 A 
ATOM     13  C   UNL     1      45.458   4.396   8.459  0.00  0.00    +0.000 A 
ATOM     14  C   UNL     1      44.986   3.345   9.242  0.00  0.00    +0.000 A 
ATOM     15  N   UNL     1      45.366   2.076   9.004  0.00  0.00    +0.000 NA
BRANCH  10  17
ATOM     16  N   UNL     1      46.863  -0.655   7.635  0.00  0.00    +0.000 NA
ATOM     17  C   UNL     1      46.589   0.469   7.761  0.00  0.00    +0.000 C 
ENDBRANCH  10  17
ENDBRANCH   8  14
ENDBRANCH   7   8
ENDBRANCH   1   7
BRANCH   4  18
ATOM     18  C   UNL     1      48.541   6.688  13.879  0.00  0.00    +0.000 C 
BRANCH  18  19
ATOM     19  N   UNL     1      48.226   6.860  15.275  0.00  0.00    +0.000 N 
ATOM     20  C   UNL     1      49.164   6.616  16.247  0.00  0.00    +0.000 C 
ATOM     21  O   UNL     1      50.313   6.283  15.970  0.00  0.00    +0.000 OA
ATOM     22  H   UNL     1      47.244   6.909  15.527  0.00  0.00    +0.000 HD
BRANCH  20  23
ATOM     23  C   UNL     1      48.745   6.835  17.638  0.00  0.00    +0.000 A 
ATOM     24  C   UNL     1      48.403   8.114  18.056  0.00  0.00    +0.000 A 
ATOM     25  S   UNL     1      47.890   8.190  19.680  0.00  0.00    +0.000 S 
ATOM     26  C   UNL     1      48.157   6.525  19.898  0.00  0.00    +0.000 A 
ATOM     27  N   UNL     1      47.932   5.934  21.103  0.00  0.00    +0.000 NA
ATOM     28  C   UNL     1      48.210   4.673  21.138  0.00  0.00    +0.000 A 
ATOM     29  N   UNL     1      48.685   3.949  20.076  0.00  0.00    +0.000 N 
ATOM     30  C   UNL     1      48.896   4.496  18.832  0.00  0.00    +0.000 A 
ATOM     31  O   UNL     1      49.276   3.807  17.891  0.00  0.00    +0.000 OA
ATOM     32  C   UNL     1      48.614   5.916  18.743  0.00  0.00    +0.000 A 
ATOM     33  H   UNL     1      48.875   2.962  20.168  0.00  0.00    +0.000 HD
ENDBRANCH  20  23
ENDBRANCH  18  19
ENDBRANCH   4  18
TORSDOF 7
ENDMDL
MODEL 2
REMARK VINA RESULT:    -8.091      1.394      2.125
REMARK INTER + INTRA:         -12.181
REMARK INTER:                 -11.144
REMARK INTRA:                  -1.037
REMARK UNBOUND:                -0.779
REMARK  Name = 
REMARK  7 active torsions:
REMARK  status: ('A' for Active; 'I' for Inactive)
REMARK    1  A    between atoms: C_2  and  C_3
REMARK    2  A    between atoms: C_7  and  N_8
REMARK    3  A    between atoms: N_8  and  C_9
REMARK    4  A    between atoms: C_9  and  C_10
REMARK    5  A    between atoms: C_13  and  C_14
REMARK    6  A    between atoms: C_14  and  N_15
REMARK    7  A    between atoms: C_16  and  C_18
REMARK                            x       y       z     vdW  Elec       q    Type
REMARK                         _______ _______ _______ _____ _____    ______ ____
ROOT
ATOM      1  C   UNL     1      45.009   5.166  11.891  0.00  0.00    +0.000 A 
ATOM      2  C   UNL     1      45.626   6.381  11.565  0.00  0.00    +0.000 A 
ATOM      3  C   UNL     1      46.726   6.841  12.298  0.00  0.00    +0.000 A 
ATOM      4  C   UNL     1      47.245   6.084  13.356  0.00  0.00    +0.000 A 
ATOM      5  C   UNL     1      46.628   4.869  13.681  0.00  0.00    +0.000 A 
ATOM      6  C   UNL     1      45.529   4.409  12.949  0.00  0.00    +0.000 A 
ENDROOT
BRANCH   1   7
ATOM      7  C   UNL     1      43.799   4.683  11.125  0.00  0.00    +0.000 C 
BRANCH   7   8
ATOM      8  N   UNL     1      44.082   3.450  10.435  0.00  0.00    +0.000 N 
ATOM      9  H   UNL     1      43.610   2.599  10.714  0.00  0.00    +0.000 HD
BRANCH   8  14
ATOM     10  C   UNL     1      46.185   1.868   8.062  0.00  0.00    +0.000 A 
ATOM     11  C   UNL     1      46.659   2.890   7.252  0.00  0.00    +0.000 A 
ATOM     12  C   UNL     1      46.233   4.180   7.527  0.00  0.00    +0.000 A 
ATOM     13  C   UNL     1      45.359   4.394   8.593  0.00  0.00    +0.000 A 
ATOM     14  C   UNL     1      44.930   3.320   9.369  0.00  0.00    +0.000 A 
ATOM     15  N   UNL     1      45.339   2.065   9.106  0.00  0.00    +0.000 NA
BRANCH  10  17
ATOM     16  N   UNL     1      46.846  -0.606   7.614  0.00  0.00    +0.000 NA
ATOM     17  C   UNL     1      46.580   0.509   7.818  0.00  0.00    +0.000 C 
ENDBRANCH  10  17
ENDBRANCH   8  14
ENDBRANCH   7   8
ENDBRANCH   1   7
BRANCH   4  18
ATOM     18  C   UNL     1      48.422   6.577  14.158  0.00  0.00    +0.000 C 
BRANCH  18  19
ATOM     19  N   UNL     1      48.114   6.627  15.565  0.00  0.00    +0.000 N 
ATOM     20  C   UNL     1      49.052   6.284  16.507  0.00  0.00    +0.000 C 
ATOM     21  O   UNL     1      50.195   5.962  16.197  0.00  0.00    +0.000 OA
ATOM     22  H   UNL     1      47.133   6.667  15.825  0.00  0.00    +0.000 HD
BRANCH  20  23
ATOM     23  C   UNL     1      48.639   6.383  17.914  0.00  0.00    +0.000 A 
ATOM     24  C   UNL     1      48.706   5.259  18.727  0.00  0.00    +0.000 A 
ATOM     25  S   UNL     1      48.243   5.551  20.341  0.00  0.00    +0.000 S 
ATOM     26  C   UNL     1      47.887   7.179  20.000  0.00  0.00    +0.000 A 
ATOM     27  N   UNL     1      47.408   8.007  20.968  0.00  0.00    +0.000 NA
ATOM     28  C   UNL     1      47.147   9.205  20.563  0.00  0.00    +0.000 A 
ATOM     29  N   UNL     1      47.328   9.652  19.280  0.00  0.00    +0.000 N 
ATOM     30  C   UNL     1      47.840   8.862  18.278  0.00  0.00    +0.000 A 
ATOM     31  O   UNL     1      48.033   9.309  17.152  0.00  0.00    +0.000 OA
ATOM     32  C   UNL     1      48.135   7.499  18.676  0.00  0.00    +0.000 A 
ATOM     33  H   UNL     1      47.111  10.606  19.030  0.00  0.00    +0.000 HD
ENDBRANCH  20  23
ENDBRANCH  18  19
ENDBRANCH   4  18
TORSDOF 7
ENDMDL
MODEL 3
REMARK VINA RESULT:    -7.612      1.211      1.738
REMARK INTER + INTRA:         -11.507
REMARK INTER:                 -10.563
REMARK INTRA:                  -0.944
REMARK UNBOUND:                -0.779
REMARK  Name = 
REMARK  7 active torsions:
REMARK  status: ('A' for Active; 'I' for Inactive)
REMARK    1  A    between atoms: C_2  and  C_3
REMARK    2  A    between atoms: C_7  and  N_8
REMARK    3  A    between atoms: N_8  and  C_9
REMARK    4  A    between atoms: C_9  and  C_10
REMARK    5  A    between atoms: C_13  and  C_14
REMARK    6  A    between atoms: C_14  and  N_15
REMARK    7  A    between atoms: C_16  and  C_18
REMARK                            x       y       z     vdW  Elec       q    Type
REMARK                         _______ _______ _______ _____ _____    ______ ____
ROOT
ATOM      1  C   UNL     1      44.726   5.699  11.537  0.00  0.00    +0.000 A 
ATOM      2  C   UNL     1      45.504   4.856  12.342  0.00  0.00    +0.000 A 
ATOM      3  C   UNL     1      46.636   5.346  13.003  0.00  0.00    +0.000 A 
ATOM      4  C   UNL     1      46.999   6.695  12.891  0.00  0.00    +0.000 A 
ATOM      5  C   UNL     1      46.220   7.537  12.087  0.00  0.00    +0.000 A 
ATOM      6  C   UNL     1      45.089   7.048  11.427  0.00  0.00    +0.000 A 
ENDROOT
BRANCH   1   7
ATOM      7  C   UNL     1      43.523   5.166  10.794  0.00  0.00    +0.000 C 
BRANCH   7   8
ATOM      8  N   UNL     1      43.848   4.882   9.419  0.00  0.00    +0.000 N 
ATOM      9  H   UNL     1      43.602   5.549   8.698  0.00  0.00    +0.000 HD
BRANCH   8  14
ATOM     10  C   UNL     1      45.939   2.882   7.374  0.00  0.00    +0.000 A 
ATOM     11  C   UNL     1      45.929   1.624   7.957  0.00  0.00    +0.000 A 
ATOM     12  C   UNL     1      45.176   1.454   9.109  0.00  0.00    +0.000 A 
ATOM     13  C   UNL     1      44.469   2.540   9.624  0.00  0.00    +0.000 A 
ATOM     14  C   UNL     1      44.520   3.774   8.981  0.00  0.00    +0.000 A 
ATOM     15  N   UNL     1      45.250   3.946   7.864  0.00  0.00    +0.000 NA
BRANCH  10  17
ATOM     16  N   UNL     1      47.347   3.265   5.222  0.00  0.00    +0.000 NA
ATOM     17  C   UNL     1      46.712   3.124   6.187  0.00  0.00    +0.000 C 
ENDBRANCH  10  17
ENDBRANCH   8  14
ENDBRANCH   7   8
ENDBRANCH   1   7
BRANCH   4  18
ATOM     18  C   UNL     1      48.223   7.229  13.590  0.00  0.00    +0.000 C 
BRANCH  18  19
ATOM     19  N   UNL     1      48.052   7.224  15.022  0.00  0.00    +0.000 N 
ATOM     20  C   UNL     1      49.086   6.877  15.856  0.00  0.00    +0.000 C 
ATOM     21  O   UNL     1      50.201   6.598  15.425  0.00  0.00    +0.000 OA
ATOM     22  H   UNL     1      47.101   7.227  15.376  0.00  0.00    +0.000 HD
BRANCH  20  23
ATOM     23  C   UNL     1      48.811   6.918  17.298  0.00  0.00    +0.000 A 
ATOM     24  C   UNL     1      48.471   8.124  17.896  0.00  0.00    +0.000 A 
ATOM     25  S   UNL     1      48.133   7.993  19.562  0.00  0.00    +0.000 S 
ATOM     26  C   UNL     1      48.480   6.328  19.555  0.00  0.00    +0.000 A 
ATOM     27  N   UNL     1      48.406   5.595  20.699  0.00  0.00    +0.000 NA
ATOM     28  C   UNL     1      48.730   4.353  20.558  0.00  0.00    +0.000 A 
ATOM     29  N   UNL     1      49.114   3.776  19.375  0.00  0.00    +0.000 N 
ATOM     30  C   UNL     1      49.170   4.469  18.189  0.00  0.00    +0.000 A 
ATOM     31  O   UNL     1      49.471   3.910  17.139  0.00  0.00    +0.000 OA
ATOM     32  C   UNL     1      48.831   5.875  18.296  0.00  0.00    +0.000 A 
ATOM     33  H   UNL     1      49.346   2.795  19.330  0.00  0.00    +0.000 HD
ENDBRANCH  20  23
ENDBRANCH  18  19
ENDBRANCH   4  18
TORSDOF 7
ENDMDL
MODEL 4
REMARK VINA RESULT:    -7.564      3.381      8.828
REMARK INTER + INTRA:         -11.439
REMARK INTER:                  -9.976
REMARK INTRA:                  -1.462
REMARK UNBOUND:                -0.779
REMARK  Name = 
REMARK  7 active torsions:
REMARK  status: ('A' for Active; 'I' for Inactive)
REMARK    1  A    between atoms: C_2  and  C_3
REMARK    2  A    between atoms: C_7  and  N_8
REMARK    3  A    between atoms: N_8  and  C_9
REMARK    4  A    between atoms: C_9  and  C_10
REMARK    5  A    between atoms: C_13  and  C_14
REMARK    6  A    between atoms: C_14  and  N_15
REMARK    7  A    between atoms: C_16  and  C_18
REMARK                            x       y       z     vdW  Elec       q    Type
REMARK                         _______ _______ _______ _____ _____    ______ ____
ROOT
ATOM      1  C   UNL     1      49.764   8.326  15.587  0.00  0.00    +0.000 A 
ATOM      2  C   UNL     1      50.419   7.767  14.481  0.00  0.00    +0.000 A 
ATOM      3  C   UNL     1      49.770   7.664  13.245  0.00  0.00    +0.000 A 
ATOM      4  C   UNL     1      48.462   8.138  13.085  0.00  0.00    +0.000 A 
ATOM      5  C   UNL     1      47.808   8.698  14.190  0.00  0.00    +0.000 A 
ATOM      6  C   UNL     1      48.456   8.802  15.424  0.00  0.00    +0.000 A 
ENDROOT
BRANCH   1   7
ATOM      7  C   UNL     1      50.448   8.408  16.931  0.00  0.00    +0.000 C 
BRANCH   7   8
ATOM      8  N   UNL     1      50.596   7.100  17.517  0.00  0.00    +0.000 N 
ATOM      9  H   UNL     1      51.499   6.808  17.870  0.00  0.00    +0.000 HD
BRANCH   8  14
ATOM     10  C   UNL     1      48.825   4.042  17.257  0.00  0.00    +0.000 A 
ATOM     11  C   UNL     1      47.630   4.251  17.928  0.00  0.00    +0.000 A 
ATOM     12  C   UNL     1      47.424   5.496  18.503  0.00  0.00    +0.000 A 
ATOM     13  C   UNL     1      48.412   6.472  18.382  0.00  0.00    +0.000 A 
ATOM     14  C   UNL     1      49.586   6.194  17.687  0.00  0.00    +0.000 A 
ATOM     15  N   UNL     1      49.793   4.987  17.128  0.00  0.00    +0.000 NA
BRANCH  10  17
ATOM     16  N   UNL     1      49.283   1.743  16.132  0.00  0.00    +0.000 NA
ATOM     17  C   UNL     1      49.103   2.769  16.653  0.00  0.00    +0.000 C 
ENDBRANCH  10  17
ENDBRANCH   8  14
ENDBRANCH   7   8
ENDBRANCH   1   7
BRANCH   4  18
ATOM     18  C   UNL     1      47.752   8.020  11.761  0.00  0.00    +0.000 C 
BRANCH  18  19
ATOM     19  N   UNL     1      47.032   6.776  11.661  0.00  0.00    +0.000 N 
ATOM     20  C   UNL     1      45.661   6.745  11.715  0.00  0.00    +0.000 C 
ATOM     21  O   UNL     1      44.992   7.771  11.808  0.00  0.00    +0.000 OA
ATOM     22  H   UNL     1      47.559   5.921  11.812  0.00  0.00    +0.000 HD
BRANCH  20  23
ATOM     23  C   UNL     1      45.025   5.426  11.591  0.00  0.00    +0.000 A 
ATOM     24  C   UNL     1      44.342   4.892  12.675  0.00  0.00    +0.000 A 
ATOM     25  S   UNL     1      43.619   3.382  12.352  0.00  0.00    +0.000 S 
ATOM     26  C   UNL     1      44.238   3.363  10.768  0.00  0.00    +0.000 A 
ATOM     27  N   UNL     1      44.003   2.311   9.939  0.00  0.00    +0.000 NA
ATOM     28  C   UNL     1      44.561   2.411   8.779  0.00  0.00    +0.000 A 
ATOM     29  N   UNL     1      45.327   3.473   8.370  0.00  0.00    +0.000 N 
ATOM     30  C   UNL     1      45.563   4.573   9.161  0.00  0.00    +0.000 A 
ATOM     31  O   UNL     1      46.213   5.527   8.746  0.00  0.00    +0.000 OA
ATOM     32  C   UNL     1      44.971   4.503  10.483  0.00  0.00    +0.000 A 
ATOM     33  H   UNL     1      45.729   3.494   7.445  0.00  0.00    +0.000 HD
ENDBRANCH  20  23
ENDBRANCH  18  19
ENDBRANCH   4  18
TORSDOF 7
ENDMDL
MODEL 5
REMARK VINA RESULT:    -7.418      1.910      3.141
REMARK INTER + INTRA:         -11.233
REMARK INTER:                 -10.259
REMARK INTRA:                  -0.973
REMARK UNBOUND:                -0.779
REMARK  Name = 
REMARK  7 active torsions:
REMARK  status: ('A' for Active; 'I' for Inactive)
REMARK    1  A    between atoms: C_2  and  C_3
REMARK    2  A    between atoms: C_7  and  N_8
REMARK    3  A    between atoms: N_8  and  C_9
REMARK    4  A    between atoms: C_9  and  C_10
REMARK    5  A    between atoms: C_13  and  C_14
REMARK    6  A    between atoms: C_14  and  N_15
REMARK    7  A    between atoms: C_16  and  C_18
REMARK                            x       y       z     vdW  Elec       q    Type
REMARK                         _______ _______ _______ _____ _____    ______ ____
ROOT
ATOM      1  C   UNL     1      45.560   5.659  11.842  0.00  0.00    +0.000 A 
ATOM      2  C   UNL     1      44.928   4.795  12.747  0.00  0.00    +0.000 A 
ATOM      3  C   UNL     1      45.586   4.375  13.908  0.00  0.00    +0.000 A 
ATOM      4  C   UNL     1      46.880   4.826  14.198  0.00  0.00    +0.000 A 
ATOM      5  C   UNL     1      47.511   5.689  13.293  0.00  0.00    +0.000 A 
ATOM      6  C   UNL     1      46.853   6.111  12.133  0.00  0.00    +0.000 A 
ENDROOT
BRANCH   1   7
ATOM      7  C   UNL     1      44.865   6.088  10.570  0.00  0.00    +0.000 C 
BRANCH   7   8
ATOM      8  N   UNL     1      45.480   5.484   9.415  0.00  0.00    +0.000 N 
ATOM      9  H   UNL     1      46.023   6.054   8.780  0.00  0.00    +0.000 HD
BRANCH   8  14
ATOM     10  C   UNL     1      46.381   2.415   7.890  0.00  0.00    +0.000 A 
ATOM     11  C   UNL     1      45.465   1.487   8.362  0.00  0.00    +0.000 A 
ATOM     12  C   UNL     1      44.497   1.931   9.250  0.00  0.00    +0.000 A 
ATOM     13  C   UNL     1      44.485   3.275   9.624  0.00  0.00    +0.000 A 
ATOM     14  C   UNL     1      45.432   4.152   9.104  0.00  0.00    +0.000 A 
ATOM     15  N   UNL     1      46.376   3.727   8.243  0.00  0.00    +0.000 NA
BRANCH  10  17
ATOM     16  N   UNL     1      48.290   1.682   6.284  0.00  0.00    +0.000 NA
ATOM     17  C   UNL     1      47.416   2.012   6.979  0.00  0.00    +0.000 C 
ENDBRANCH  10  17
ENDBRANCH   8  14
ENDBRANCH   7   8
ENDBRANCH   1   7
BRANCH   4  18
ATOM     18  C   UNL     1      47.601   4.368  15.440  0.00  0.00    +0.000 C 
BRANCH  18  19
ATOM     19  N   UNL     1      47.564   5.377  16.469  0.00  0.00    +0.000 N 
ATOM     20  C   UNL     1      48.714   5.994  16.896  0.00  0.00    +0.000 C 
ATOM     21  O   UNL     1      49.807   5.745  16.395  0.00  0.00    +0.000 OA
ATOM     22  H   UNL     1      46.726   5.428  17.040  0.00  0.00    +0.000 HD
BRANCH  20  23
ATOM     23  C   UNL     1      48.564   7.016  17.940  0.00  0.00    +0.000 A 
ATOM     24  C   UNL     1      48.644   6.647  19.276  0.00  0.00    +0.000 A 
ATOM     25  S   UNL     1      48.503   7.955  20.359  0.00  0.00    +0.000 S 
ATOM     26  C   UNL     1      48.277   9.057  19.083  0.00  0.00    +0.000 A 
ATOM     27  N   UNL     1      48.068  10.378  19.330  0.00  0.00    +0.000 NA
ATOM     28  C   UNL     1      47.876  11.094  18.272  0.00  0.00    +0.000 A 
ATOM     29  N   UNL     1      47.881  10.609  16.990  0.00  0.00    +0.000 N 
ATOM     30  C   UNL     1      48.121   9.289  16.691  0.00  0.00    +0.000 A 
ATOM     31  O   UNL     1      48.166   8.898  15.529  0.00  0.00    +0.000 OA
ATOM     32  C   UNL     1      48.327   8.437  17.846  0.00  0.00    +0.000 A 
ATOM     33  H   UNL     1      47.733  11.225  16.204  0.00  0.00    +0.000 HD
ENDBRANCH  20  23
ENDBRANCH  18  19
ENDBRANCH   4  18
TORSDOF 7
ENDMDL
MODEL 6
REMARK VINA RESULT:    -7.283      2.407      3.462
REMARK INTER + INTRA:         -11.043
REMARK INTER:                  -9.918
REMARK INTRA:                  -1.125
REMARK UNBOUND:                -0.779
REMARK  Name = 
REMARK  7 active torsions:
REMARK  status: ('A' for Active; 'I' for Inactive)
REMARK    1  A    between atoms: C_2  and  C_3
REMARK    2  A    between atoms: C_7  and  N_8
REMARK    3  A    between atoms: N_8  and  C_9
REMARK    4  A    between atoms: C_9  and  C_10
REMARK    5  A    between atoms: C_13  and  C_14
REMARK    6  A    between atoms: C_14  and  N_15
REMARK    7  A    between atoms: C_16  and  C_18
REMARK                            x       y       z     vdW  Elec       q    Type
REMARK                         _______ _______ _______ _____ _____    ______ ____
ROOT
ATOM      1  C   UNL     1      44.847   8.049  11.513  0.00  0.00    +0.000 A 
ATOM      2  C   UNL     1      45.014   9.182  12.320  0.00  0.00    +0.000 A 
ATOM      3  C   UNL     1      46.167   9.341  13.097  0.00  0.00    +0.000 A 
ATOM      4  C   UNL     1      47.187   8.380  13.065  0.00  0.00    +0.000 A 
ATOM      5  C   UNL     1      47.019   7.247  12.258  0.00  0.00    +0.000 A 
ATOM      6  C   UNL     1      45.868   7.090  11.481  0.00  0.00    +0.000 A 
ENDROOT
BRANCH   1   7
ATOM      7  C   UNL     1      43.589   7.858  10.699  0.00  0.00    +0.000 C 
BRANCH   7   8
ATOM      8  N   UNL     1      42.714   6.893  11.317  0.00  0.00    +0.000 N 
ATOM      9  H   UNL     1      41.750   7.138  11.502  0.00  0.00    +0.000 HD
BRANCH   8  14
ATOM     10  C   UNL     1      43.836   3.558  10.898  0.00  0.00    +0.000 A 
ATOM     11  C   UNL     1      43.797   2.996  12.165  0.00  0.00    +0.000 A 
ATOM     12  C   UNL     1      43.373   3.798  13.213  0.00  0.00    +0.000 A 
ATOM     13  C   UNL     1      43.007   5.118  12.953  0.00  0.00    +0.000 A 
ATOM     14  C   UNL     1      43.064   5.614  11.653  0.00  0.00    +0.000 A 
ATOM     15  N   UNL     1      43.477   4.841  10.631  0.00  0.00    +0.000 NA
BRANCH  10  17
ATOM     16  N   UNL     1      44.687   2.143   8.890  0.00  0.00    +0.000 NA
ATOM     17  C   UNL     1      44.280   2.782   9.774  0.00  0.00    +0.000 C 
ENDBRANCH  10  17
ENDBRANCH   8  14
ENDBRANCH   7   8
ENDBRANCH   1   7
BRANCH   4  18
ATOM     18  C   UNL     1      48.426   8.537  13.907  0.00  0.00    +0.000 C 
BRANCH  18  19
ATOM     19  N   UNL     1      48.434   7.605  15.007  0.00  0.00    +0.000 N 
ATOM     20  C   UNL     1      49.611   7.081  15.482  0.00  0.00    +0.000 C 
ATOM     21  O   UNL     1      50.700   7.412  15.022  0.00  0.00    +0.000 OA
ATOM     22  H   UNL     1      47.555   7.155  15.241  0.00  0.00    +0.000 HD
BRANCH  20  23
ATOM     23  C   UNL     1      49.509   6.151  16.614  0.00  0.00    +0.000 A 
ATOM     24  C   UNL     1      50.327   6.329  17.722  0.00  0.00    +0.000 A 
ATOM     25  S   UNL     1      50.049   5.199  18.968  0.00  0.00    +0.000 S 
ATOM     26  C   UNL     1      48.862   4.398  18.051  0.00  0.00    +0.000 A 
ATOM     27  N   UNL     1      48.227   3.298  18.538  0.00  0.00    +0.000 NA
ATOM     28  C   UNL     1      47.376   2.769  17.723  0.00  0.00    +0.000 A 
ATOM     29  N   UNL     1      47.098   3.245  16.468  0.00  0.00    +0.000 N 
ATOM     30  C   UNL     1      47.689   4.372  15.947  0.00  0.00    +0.000 A 
ATOM     31  O   UNL     1      47.381   4.797  14.839  0.00  0.00    +0.000 OA
ATOM     32  C   UNL     1      48.667   4.996  16.818  0.00  0.00    +0.000 A 
ATOM     33  H   UNL     1      46.413   2.789  15.883  0.00  0.00    +0.000 HD
ENDBRANCH  20  23
ENDBRANCH  18  19
ENDBRANCH   4  18
TORSDOF 7
ENDMDL
MODEL 7
REMARK VINA RESULT:    -6.771      2.375      2.873
REMARK INTER + INTRA:         -10.322
REMARK INTER:                  -9.469
REMARK INTRA:                  -0.853
REMARK UNBOUND:                -0.779
REMARK  Name = 
REMARK  7 active torsions:
REMARK  status: ('A' for Active; 'I' for Inactive)
REMARK    1  A    between atoms: C_2  and  C_3
REMARK    2  A    between atoms: C_7  and  N_8
REMARK    3  A    between atoms: N_8  and  C_9
REMARK    4  A    between atoms: C_9  and  C_10
REMARK    5  A    between atoms: C_13  and  C_14
REMARK    6  A    between atoms: C_14  and  N_15
REMARK    7  A    between atoms: C_16  and  C_18
REMARK                            x       y       z     vdW  Elec       q    Type
REMARK                         _______ _______ _______ _____ _____    ______ ____
ROOT
ATOM      1  C   UNL     1      44.768   4.925  11.021  0.00  0.00    +0.000 A 
ATOM      2  C   UNL     1      44.714   3.685  11.672  0.00  0.00    +0.000 A 
ATOM      3  C   UNL     1      45.373   3.491  12.892  0.00  0.00    +0.000 A 
ATOM      4  C   UNL     1      46.080   4.539  13.495  0.00  0.00    +0.000 A 
ATOM      5  C   UNL     1      46.133   5.778  12.844  0.00  0.00    +0.000 A 
ATOM      6  C   UNL     1      45.473   5.973  11.626  0.00  0.00    +0.000 A 
ENDROOT
BRANCH   1   7
ATOM      7  C   UNL     1      44.086   5.128   9.688  0.00  0.00    +0.000 C 
BRANCH   7   8
ATOM      8  N   UNL     1      44.162   3.937   8.881  0.00  0.00    +0.000 N 
ATOM      9  H   UNL     1      43.332   3.376   8.735  0.00  0.00    +0.000 HD
BRANCH   8  14
ATOM     10  C   UNL     1      46.566   1.656   7.625  0.00  0.00    +0.000 A 
ATOM     11  C   UNL     1      47.511   2.438   6.978  0.00  0.00    +0.000 A 
ATOM     12  C   UNL     1      47.313   3.810   6.965  0.00  0.00    +0.000 A 
ATOM     13  C   UNL     1      46.187   4.339   7.596  0.00  0.00    +0.000 A 
ATOM     14  C   UNL     1      45.283   3.494   8.233  0.00  0.00    +0.000 A 
ATOM     15  N   UNL     1      45.469   2.160   8.247  0.00  0.00    +0.000 NA
BRANCH  10  17
ATOM     16  N   UNL     1      46.783  -0.934   7.652  0.00  0.00    +0.000 NA
ATOM     17  C   UNL     1      46.709   0.228   7.659  0.00  0.00    +0.000 C 
ENDBRANCH  10  17
ENDBRANCH   8  14
ENDBRANCH   7   8
ENDBRANCH   1   7
BRANCH   4  18
ATOM     18  C   UNL     1      46.802   4.336  14.802  0.00  0.00    +0.000 C 
BRANCH  18  19
ATOM     19  N   UNL     1      47.744   5.398  15.052  0.00  0.00    +0.000 N 
ATOM     20  C   UNL     1      48.252   5.611  16.309  0.00  0.00    +0.000 C 
ATOM     21  O   UNL     1      47.962   4.888  17.257  0.00  0.00    +0.000 OA
ATOM     22  H   UNL     1      47.816   6.129  14.351  0.00  0.00    +0.000 HD
BRANCH  20  23
ATOM     23  C   UNL     1      49.215   6.712  16.452  0.00  0.00    +0.000 A 
ATOM     24  C   UNL     1      48.797   8.019  16.237  0.00  0.00    +0.000 A 
ATOM     25  S   UNL     1      50.018   9.180  16.495  0.00  0.00    +0.000 S 
ATOM     26  C   UNL     1      51.164   7.975  16.851  0.00  0.00    +0.000 A 
ATOM     27  N   UNL     1      52.452   8.301  17.142  0.00  0.00    +0.000 NA
ATOM     28  C   UNL     1      53.222   7.287  17.358  0.00  0.00    +0.000 A 
ATOM     29  N   UNL     1      52.819   5.977  17.315  0.00  0.00    +0.000 N 
ATOM     30  C   UNL     1      51.522   5.602  17.058  0.00  0.00    +0.000 A 
ATOM     31  O   UNL     1      51.185   4.423  17.075  0.00  0.00    +0.000 OA
ATOM     32  C   UNL     1      50.617   6.705  16.792  0.00  0.00    +0.000 A 
ATOM     33  H   UNL     1      53.472   5.230  17.502  0.00  0.00    +0.000 HD
ENDBRANCH  20  23
ENDBRANCH  18  19
ENDBRANCH   4  18
TORSDOF 7
ENDMDL
MODEL 8
REMARK VINA RESULT:    -6.717      2.797      4.158
REMARK INTER + INTRA:         -10.245
REMARK INTER:                  -9.204
REMARK INTRA:                  -1.041
REMARK UNBOUND:                -0.779
REMARK  Name = 
REMARK  7 active torsions:
REMARK  status: ('A' for Active; 'I' for Inactive)
REMARK    1  A    between atoms: C_2  and  C_3
REMARK    2  A    between atoms: C_7  and  N_8
REMARK    3  A    between atoms: N_8  and  C_9
REMARK    4  A    between atoms: C_9  and  C_10
REMARK    5  A    between atoms: C_13  and  C_14
REMARK    6  A    between atoms: C_14  and  N_15
REMARK    7  A    between atoms: C_16  and  C_18
REMARK                            x       y       z     vdW  Elec       q    Type
REMARK                         _______ _______ _______ _____ _____    ______ ____
ROOT
ATOM      1  C   UNL     1      47.405   7.140  12.790  0.00  0.00    +0.000 A 
ATOM      2  C   UNL     1      47.744   8.427  13.231  0.00  0.00    +0.000 A 
ATOM      3  C   UNL     1      48.329   8.618  14.488  0.00  0.00    +0.000 A 
ATOM      4  C   UNL     1      48.607   7.526  15.320  0.00  0.00    +0.000 A 
ATOM      5  C   UNL     1      48.268   6.240  14.878  0.00  0.00    +0.000 A 
ATOM      6  C   UNL     1      47.686   6.048  13.622  0.00  0.00    +0.000 A 
ENDROOT
BRANCH   1   7
ATOM      7  C   UNL     1      46.743   6.932  11.448  0.00  0.00    +0.000 C 
BRANCH   7   8
ATOM      8  N   UNL     1      45.326   6.719  11.598  0.00  0.00    +0.000 N 
ATOM      9  H   UNL     1      44.694   7.509  11.571  0.00  0.00    +0.000 HD
BRANCH   8  14
ATOM     10  C   UNL     1      44.396   3.388  10.827  0.00  0.00    +0.000 A 
ATOM     11  C   UNL     1      43.568   2.988  11.865  0.00  0.00    +0.000 A 
ATOM     12  C   UNL     1      43.321   3.899  12.880  0.00  0.00    +0.000 A 
ATOM     13  C   UNL     1      43.907   5.163  12.815  0.00  0.00    +0.000 A 
ATOM     14  C   UNL     1      44.723   5.499  11.738  0.00  0.00    +0.000 A 
ATOM     15  N   UNL     1      44.968   4.617  10.750  0.00  0.00    +0.000 NA
BRANCH  10  17
ATOM     16  N   UNL     1      45.000   1.765   8.888  0.00  0.00    +0.000 NA
ATOM     17  C   UNL     1      44.701   2.482   9.754  0.00  0.00    +0.000 C 
ENDBRANCH  10  17
ENDBRANCH   8  14
ENDBRANCH   7   8
ENDBRANCH   1   7
BRANCH   4  18
ATOM     18  C   UNL     1      49.225   7.724  16.680  0.00  0.00    +0.000 C 
BRANCH  18  19
ATOM     19  N   UNL     1      50.236   6.732  16.946  0.00  0.00    +0.000 N 
ATOM     20  C   UNL     1      50.190   5.963  18.081  0.00  0.00    +0.000 C 
ATOM     21  O   UNL     1      49.272   6.056  18.892  0.00  0.00    +0.000 OA
ATOM     22  H   UNL     1      51.102   6.799  16.420  0.00  0.00    +0.000 HD
BRANCH  20  23
ATOM     23  C   UNL     1      51.262   4.972  18.251  0.00  0.00    +0.000 A 
ATOM     24  C   UNL     1      52.457   5.352  18.847  0.00  0.00    +0.000 A 
ATOM     25  S   UNL     1      53.575   4.077  19.016  0.00  0.00    +0.000 S 
ATOM     26  C   UNL     1      52.523   2.982  18.249  0.00  0.00    +0.000 A 
ATOM     27  N   UNL     1      52.890   1.688  18.045  0.00  0.00    +0.000 NA
ATOM     28  C   UNL     1      52.011   0.977  17.421  0.00  0.00    +0.000 A 
ATOM     29  N   UNL     1      50.795   1.441  16.989  0.00  0.00    +0.000 N 
ATOM     30  C   UNL     1      50.369   2.731  17.202  0.00  0.00    +0.000 A 
ATOM     31  O   UNL     1      49.255   3.100  16.844  0.00  0.00    +0.000 OA
ATOM     32  C   UNL     1      51.328   3.577  17.886  0.00  0.00    +0.000 A 
ATOM     33  H   UNL     1      50.149   0.830  16.513  0.00  0.00    +0.000 HD
ENDBRANCH  20  23
ENDBRANCH  18  19
ENDBRANCH   4  18
TORSDOF 7
ENDMDL
MODEL 9
REMARK VINA RESULT:    -6.667      2.016      3.327
REMARK INTER + INTRA:         -10.175
REMARK INTER:                  -9.293
REMARK INTRA:                  -0.882
REMARK UNBOUND:                -0.779
REMARK  Name = 
REMARK  7 active torsions:
REMARK  status: ('A' for Active; 'I' for Inactive)
REMARK    1  A    between atoms: C_2  and  C_3
REMARK    2  A    between atoms: C_7  and  N_8
REMARK    3  A    between atoms: N_8  and  C_9
REMARK    4  A    between atoms: C_9  and  C_10
REMARK    5  A    between atoms: C_13  and  C_14
REMARK    6  A    between atoms: C_14  and  N_15
REMARK    7  A    between atoms: C_16  and  C_18
REMARK                            x       y       z     vdW  Elec       q    Type
REMARK                         _______ _______ _______ _____ _____    ______ ____
ROOT
ATOM      1  C   UNL     1      46.008   7.661  12.154  0.00  0.00    +0.000 A 
ATOM      2  C   UNL     1      46.983   6.709  11.828  0.00  0.00    +0.000 A 
ATOM      3  C   UNL     1      48.172   6.626  12.562  0.00  0.00    +0.000 A 
ATOM      4  C   UNL     1      48.400   7.480  13.649  0.00  0.00    +0.000 A 
ATOM      5  C   UNL     1      47.425   8.432  13.974  0.00  0.00    +0.000 A 
ATOM      6  C   UNL     1      46.237   8.513  13.242  0.00  0.00    +0.000 A 
ENDROOT
BRANCH   1   7
ATOM      7  C   UNL     1      44.739   7.776  11.343  0.00  0.00    +0.000 C 
BRANCH   7   8
ATOM      8  N   UNL     1      43.755   6.820  11.784  0.00  0.00    +0.000 N 
ATOM      9  H   UNL     1      42.959   7.133  12.325  0.00  0.00    +0.000 HD
BRANCH   8  14
ATOM     10  C   UNL     1      44.261   3.851   9.917  0.00  0.00    +0.000 A 
ATOM     11  C   UNL     1      43.855   2.820  10.750  0.00  0.00    +0.000 A 
ATOM     12  C   UNL     1      43.393   3.156  12.012  0.00  0.00    +0.000 A 
ATOM     13  C   UNL     1      43.354   4.498  12.386  0.00  0.00    +0.000 A 
ATOM     14  C   UNL     1      43.771   5.483  11.495  0.00  0.00    +0.000 A 
ATOM     15  N   UNL     1      44.223   5.163  10.267  0.00  0.00    +0.000 NA
BRANCH  10  17
ATOM     16  N   UNL     1      45.186   3.283   7.554  0.00  0.00    +0.000 NA
ATOM     17  C   UNL     1      44.764   3.565   8.602  0.00  0.00    +0.000 C 
ENDBRANCH  10  17
ENDBRANCH   8  14
ENDBRANCH   7   8
ENDBRANCH   1   7
BRANCH   4  18
ATOM     18  C   UNL     1      49.683   7.406  14.437  0.00  0.00    +0.000 C 
BRANCH  18  19
ATOM     19  N   UNL     1      49.424   7.279  15.849  0.00  0.00    +0.000 N 
ATOM     20  C   UNL     1      48.857   6.139  16.364  0.00  0.00    +0.000 C 
ATOM     21  O   UNL     1      48.586   5.173  15.656  0.00  0.00    +0.000 OA
ATOM     22  H   UNL     1      49.427   8.131  16.401  0.00  0.00    +0.000 HD
BRANCH  20  23
ATOM     23  C   UNL     1      48.648   6.106  17.818  0.00  0.00    +0.000 A 
ATOM     24  C   UNL     1      48.887   4.930  18.517  0.00  0.00    +0.000 A 
ATOM     25  S   UNL     1      48.648   5.071  20.198  0.00  0.00    +0.000 S 
ATOM     26  C   UNL     1      48.165   6.695  20.047  0.00  0.00    +0.000 A 
ATOM     27  N   UNL     1      47.790   7.416  21.138  0.00  0.00    +0.000 NA
ATOM     28  C   UNL     1      47.413   8.623  20.876  0.00  0.00    +0.000 A 
ATOM     29  N   UNL     1      47.384   9.177  19.621  0.00  0.00    +0.000 N 
ATOM     30  C   UNL     1      47.785   8.497  18.495  0.00  0.00    +0.000 A 
ATOM     31  O   UNL     1      47.792   9.038  17.394  0.00  0.00    +0.000 OA
ATOM     32  C   UNL     1      48.203   7.129  18.734  0.00  0.00    +0.000 A 
ATOM     33  H   UNL     1      47.086  10.131  19.485  0.00  0.00    +0.000 HD
ENDBRANCH  20  23
ENDBRANCH  18  19
ENDBRANCH   4  18
TORSDOF 7
ENDMDL
