MODEL 1
REMARK VINA RESULT:    -8.164      0.000      0.000
REMARK INTER + INTRA:         -14.274
REMARK INTER:                 -13.176
REMARK INTRA:                  -1.098
REMARK UNBOUND:                -1.098
REMARK  Name = 
REMARK  11 active torsions:
REMARK  status: ('A' for Active; 'I' for Inactive)
REMARK    1  A    between atoms: N_1  and  C_2
REMARK    2  A    between atoms: C_2  and  C_3
REMARK    3  A    between atoms: C_3  and  C_4
REMARK    4  A    between atoms: C_4  and  N_5
REMARK    5  A    between atoms: N_5  and  C_6
REMARK    6  A    between atoms: N_5  and  C_27
REMARK    7  A    between atoms: C_6  and  C_7
REMARK    8  A    between atoms: C_10  and  C_11
REMARK    9  A    between atoms: C_11  and  N_12
REMARK   10  A    between atoms: C_13  and  C_15
REMARK   11  A    between atoms: C_27  and  C_28
REMARK                            x       y       z     vdW  Elec       q    Type
REMARK                         _______ _______ _______ _____ _____    ______ ____
ROOT
ATOM      1  C   UNL     1      46.095   4.102  12.765  0.00  0.00    +0.000 A 
ATOM      2  C   UNL     1      46.765   3.518  13.850  0.00  0.00    +0.000 A 
ATOM      3  C   UNL     1      47.527   4.302  14.718  0.00  0.00    +0.000 A 
ATOM      4  C   UNL     1      47.649   5.679  14.506  0.00  0.00    +0.000 A 
ATOM      5  C   UNL     1      47.084   6.240  13.356  0.00  0.00    +0.000 A 
ATOM      6  C   UNL     1      46.315   5.458  12.495  0.00  0.00    +0.000 A 
ENDROOT
BRANCH   1   7
ATOM      7  C   UNL     1      45.055   3.311  11.989  0.00  0.00    +0.000 C 
BRANCH   7   8
ATOM      8  N   UNL     1      44.881   3.710  10.566  0.00  0.00    +0.000 NA
BRANCH   8   9
ATOM      9  C   UNL     1      43.778   4.668  10.340  0.00  0.00    +0.000 C 
BRANCH   9  10
ATOM     10  C   UNL     1      42.710   4.658  11.441  0.00  0.00    +0.000 C 
BRANCH  10  11
ATOM     11  C   UNL     1      42.327   6.075  11.870  0.00  0.00    +0.000 C 
BRANCH  11  12
ATOM     12  N   UNL     1      43.148   7.039  11.143  0.00  0.00    +0.000 NA
ATOM     13  H   UNL     1      43.615   6.573  10.366  0.00  0.00    +0.000 HD
ATOM     14  H   UNL     1      43.885   7.390  11.754  0.00  0.00    +0.000 HD
ENDBRANCH  11  12
ENDBRANCH  10  11
ENDBRANCH   9  10
ENDBRANCH   8   9
BRANCH   8  15
ATOM     15  C   UNL     1      44.697   2.501   9.724  0.00  0.00    +0.000 C 
BRANCH  15  16
ATOM     16  C   UNL     1      45.616   2.361   8.528  0.00  0.00    +0.000 A 
ATOM     17  C   UNL     1      45.855   3.440   7.683  0.00  0.00    +0.000 A 
ATOM     18  C   UNL     1      46.768   3.284   6.645  0.00  0.00    +0.000 A 
ATOM     19  C   UNL     1      47.410   2.063   6.475  0.00  0.00    +0.000 A 
ATOM     20  C   UNL     1      47.102   1.035   7.348  0.00  0.00    +0.000 A 
ATOM     21  N   UNL     1      46.228   1.157   8.366  0.00  0.00    +0.000 NA
ENDBRANCH  15  16
ENDBRANCH   8  15
ENDBRANCH   7   8
ENDBRANCH   1   7
BRANCH   4  22
ATOM     22  C   UNL     1      48.385   6.557  15.483  0.00  0.00    +0.000 C 
BRANCH  22  23
ATOM     23  N   UNL     1      49.526   5.880  16.031  0.00  0.00    +0.000 N 
ATOM     24  C   UNL     1      49.501   5.361  17.299  0.00  0.00    +0.000 C 
ATOM     25  O   UNL     1      48.497   5.403  18.005  0.00  0.00    +0.000 OA
ATOM     26  H   UNL     1      50.419   6.054  15.583  0.00  0.00    +0.000 HD
BRANCH  24  27
ATOM     27  C   UNL     1      50.726   4.691  17.746  0.00  0.00    +0.000 A 
ATOM     28  C   UNL     1      51.732   5.428  18.356  0.00  0.00    +0.000 A 
ATOM     29  S   UNL     1      53.056   4.481  18.868  0.00  0.00    +0.000 S 
ATOM     30  C   UNL     1      52.354   3.063  18.240  0.00  0.00    +0.000 A 
ATOM     31  N   UNL     1      52.998   1.868  18.322  0.00  0.00    +0.000 NA
ATOM     32  C   UNL     1      52.365   0.883  17.775  0.00  0.00    +0.000 A 
ATOM     33  N   UNL     1      51.146   0.983  17.160  0.00  0.00    +0.000 N 
ATOM     34  C   UNL     1      50.444   2.162  17.083  0.00  0.00    +0.000 A 
ATOM     35  O   UNL     1      49.332   2.207  16.572  0.00  0.00    +0.000 OA
ATOM     36  C   UNL     1      51.119   3.305  17.668  0.00  0.00    +0.000 A 
ATOM     37  H   UNL     1      50.697   0.172  16.761  0.00  0.00    +0.000 HD
ENDBRANCH  24  27
ENDBRANCH  22  23
ENDBRANCH   4  22
TORSDOF 11
ENDMDL
MODEL 2
REMARK VINA RESULT:    -7.952      2.434      2.995
REMARK INTER + INTRA:         -13.932
REMARK INTER:                 -12.329
REMARK INTRA:                  -1.603
REMARK UNBOUND:                -1.098
REMARK  Name = 
REMARK  11 active torsions:
REMARK  status: ('A' for Active; 'I' for Inactive)
REMARK    1  A    between atoms: N_1  and  C_2
REMARK    2  A    between atoms: C_2  and  C_3
REMARK    3  A    between atoms: C_3  and  C_4
REMARK    4  A    between atoms: C_4  and  N_5
REMARK    5  A    between atoms: N_5  and  C_6
REMARK    6  A    between atoms: N_5  and  C_27
REMARK    7  A    between atoms: C_6  and  C_7
REMARK    8  A    between atoms: C_10  and  C_11
REMARK    9  A    between atoms: C_11  and  N_12
REMARK   10  A    between atoms: C_13  and  C_15
REMARK   11  A    between atoms: C_27  and  C_28
REMARK                            x       y       z     vdW  Elec       q    Type
REMARK                         _______ _______ _______ _____ _____    ______ ____
ROOT
ATOM      1  C   UNL     1      46.239   6.776  11.090  0.00  0.00    +0.000 A 
ATOM      2  C   UNL     1      47.612   6.735  11.373  0.00  0.00    +0.000 A 
ATOM      3  C   UNL     1      48.130   7.420  12.474  0.00  0.00    +0.000 A 
ATOM      4  C   UNL     1      47.289   8.173  13.298  0.00  0.00    +0.000 A 
ATOM      5  C   UNL     1      45.943   8.314  12.946  0.00  0.00    +0.000 A 
ATOM      6  C   UNL     1      45.425   7.623  11.851  0.00  0.00    +0.000 A 
ENDROOT
BRANCH   1   7
ATOM      7  C   UNL     1      45.636   5.823  10.071  0.00  0.00    +0.000 C 
BRANCH   7   8
ATOM      8  N   UNL     1      44.709   4.801  10.625  0.00  0.00    +0.000 NA
BRANCH   8   9
ATOM      9  C   UNL     1      45.306   3.958  11.683  0.00  0.00    +0.000 C 
BRANCH   9  10
ATOM     10  C   UNL     1      44.791   4.273  13.094  0.00  0.00    +0.000 C 
BRANCH  10  11
ATOM     11  C   UNL     1      43.264   4.239  13.158  0.00  0.00    +0.000 C 
BRANCH  11  12
ATOM     12  N   UNL     1      42.754   5.604  13.252  0.00  0.00    +0.000 NA
ATOM     13  H   UNL     1      43.365   6.158  13.850  0.00  0.00    +0.000 HD
ATOM     14  H   UNL     1      41.839   5.597  13.704  0.00  0.00    +0.000 HD
ENDBRANCH  11  12
ENDBRANCH  10  11
ENDBRANCH   9  10
ENDBRANCH   8   9
BRANCH   8  15
ATOM     15  C   UNL     1      44.179   3.955   9.527  0.00  0.00    +0.000 C 
BRANCH  15  16
ATOM     16  C   UNL     1      45.202   3.283   8.633  0.00  0.00    +0.000 A 
ATOM     17  C   UNL     1      45.537   1.945   8.814  0.00  0.00    +0.000 A 
ATOM     18  C   UNL     1      46.422   1.353   7.919  0.00  0.00    +0.000 A 
ATOM     19  C   UNL     1      46.949   2.107   6.876  0.00  0.00    +0.000 A 
ATOM     20  C   UNL     1      46.578   3.436   6.777  0.00  0.00    +0.000 A 
ATOM     21  N   UNL     1      45.719   4.036   7.625  0.00  0.00    +0.000 NA
ENDBRANCH  15  16
ENDBRANCH   8  15
ENDBRANCH   7   8
ENDBRANCH   1   7
BRANCH   4  22
ATOM     22  C   UNL     1      47.810   8.839  14.545  0.00  0.00    +0.000 C 
BRANCH  22  23
ATOM     23  N   UNL     1      47.984   7.888  15.606  0.00  0.00    +0.000 N 
ATOM     24  C   UNL     1      49.225   7.405  15.928  0.00  0.00    +0.000 C 
ATOM     25  O   UNL     1      50.246   7.793  15.366  0.00  0.00    +0.000 OA
ATOM     26  H   UNL     1      47.160   7.376  15.900  0.00  0.00    +0.000 HD
BRANCH  24  27
ATOM     27  C   UNL     1      49.276   6.440  17.031  0.00  0.00    +0.000 A 
ATOM     28  C   UNL     1      50.012   6.734  18.171  0.00  0.00    +0.000 A 
ATOM     29  S   UNL     1      49.911   5.531  19.377  0.00  0.00    +0.000 S 
ATOM     30  C   UNL     1      48.927   4.551  18.393  0.00  0.00    +0.000 A 
ATOM     31  N   UNL     1      48.495   3.336  18.825  0.00  0.00    +0.000 NA
ATOM     32  C   UNL     1      47.784   2.686  17.964  0.00  0.00    +0.000 A 
ATOM     33  N   UNL     1      47.460   3.143  16.714  0.00  0.00    +0.000 N 
ATOM     34  C   UNL     1      47.844   4.378  16.248  0.00  0.00    +0.000 A 
ATOM     35  O   UNL     1      47.494   4.779  15.146  0.00  0.00    +0.000 OA
ATOM     36  C   UNL     1      48.661   5.142  17.171  0.00  0.00    +0.000 A 
ATOM     37  H   UNL     1      46.889   2.591  16.091  0.00  0.00    +0.000 HD
ENDBRANCH  24  27
ENDBRANCH  22  23
ENDBRANCH   4  22
TORSDOF 11
ENDMDL
MODEL 3
REMARK VINA RESULT:    -7.578      2.234      2.717
REMARK INTER + INTRA:         -13.328
REMARK INTER:                 -11.985
REMARK INTRA:                  -1.344
REMARK UNBOUND:                -1.098
REMARK  Name = 
REMARK  11 active torsions:
REMARK  status: ('A' for Active; 'I' for Inactive)
REMARK    1  A    between atoms: N_1  and  C_2
REMARK    2  A    between atoms: C_2  and  C_3
REMARK    3  A    between atoms: C_3  and  C_4
REMARK    4  A    between atoms: C_4  and  N_5
REMARK    5  A    between atoms: N_5  and  C_6
REMARK    6  A    between atoms: N_5  and  C_27
REMARK    7  A    between atoms: C_6  and  C_7
REMARK    8  A    between atoms: C_10  and  C_11
REMARK    9  A    between atoms: C_11  and  N_12
REMARK   10  A    between atoms: C_13  and  C_15
REMARK   11  A    between atoms: C_27  and  C_28
REMARK                            x       y       z     vdW  Elec       q    Type
REMARK                         _______ _______ _______ _____ _____    ______ ____
ROOT
ATOM      1  C   UNL     1      46.235   4.622  12.373  0.00  0.00    +0.000 A 
ATOM      2  C   UNL     1      46.808   4.405  13.635  0.00  0.00    +0.000 A 
ATOM      3  C   UNL     1      47.470   5.439  14.301  0.00  0.00    +0.000 A 
ATOM      4  C   UNL     1      47.589   6.700  13.708  0.00  0.00    +0.000 A 
ATOM      5  C   UNL     1      47.127   6.881  12.401  0.00  0.00    +0.000 A 
ATOM      6  C   UNL     1      46.457   5.851  11.741  0.00  0.00    +0.000 A 
ENDROOT
BRANCH   1   7
ATOM      7  C   UNL     1      45.288   3.597  11.773  0.00  0.00    +0.000 C 
BRANCH   7   8
ATOM      8  N   UNL     1      44.923   3.822  10.349  0.00  0.00    +0.000 NA
BRANCH   8   9
ATOM      9  C   UNL     1      43.674   4.591  10.163  0.00  0.00    +0.000 C 
BRANCH   9  10
ATOM     10  C   UNL     1      42.665   4.426  11.307  0.00  0.00    +0.000 C 
BRANCH  10  11
ATOM     11  C   UNL     1      42.351   5.762  11.980  0.00  0.00    +0.000 C 
BRANCH  11  12
ATOM     12  N   UNL     1      42.980   5.800  13.297  0.00  0.00    +0.000 NA
ATOM     13  H   UNL     1      43.209   4.852  13.594  0.00  0.00    +0.000 HD
ATOM     14  H   UNL     1      42.317   6.163  13.982  0.00  0.00    +0.000 HD
ENDBRANCH  11  12
ENDBRANCH  10  11
ENDBRANCH   9  10
ENDBRANCH   8   9
BRANCH   8  15
ATOM     15  C   UNL     1      44.840   2.520   9.639  0.00  0.00    +0.000 C 
BRANCH  15  16
ATOM     16  C   UNL     1      45.710   2.362   8.409  0.00  0.00    +0.000 A 
ATOM     17  C   UNL     1      45.903   3.425   7.532  0.00  0.00    +0.000 A 
ATOM     18  C   UNL     1      46.774   3.254   6.460  0.00  0.00    +0.000 A 
ATOM     19  C   UNL     1      47.420   2.035   6.289  0.00  0.00    +0.000 A 
ATOM     20  C   UNL     1      47.158   1.023   7.196  0.00  0.00    +0.000 A 
ATOM     21  N   UNL     1      46.326   1.160   8.247  0.00  0.00    +0.000 NA
ENDBRANCH  15  16
ENDBRANCH   8  15
ENDBRANCH   7   8
ENDBRANCH   1   7
BRANCH   4  22
ATOM     22  C   UNL     1      48.212   7.854  14.449  0.00  0.00    +0.000 C 
BRANCH  22  23
ATOM     23  N   UNL     1      48.232   7.612  15.863  0.00  0.00    +0.000 N 
ATOM     24  C   UNL     1      49.364   7.832  16.604  0.00  0.00    +0.000 C 
ATOM     25  O   UNL     1      50.392   8.289  16.111  0.00  0.00    +0.000 OA
ATOM     26  H   UNL     1      47.505   7.011  16.234  0.00  0.00    +0.000 HD
BRANCH  24  27
ATOM     27  C   UNL     1      49.261   7.551  18.039  0.00  0.00    +0.000 A 
ATOM     28  C   UNL     1      49.249   8.600  18.948  0.00  0.00    +0.000 A 
ATOM     29  S   UNL     1      49.061   8.097  20.568  0.00  0.00    +0.000 S 
ATOM     30  C   UNL     1      49.048   6.456  20.113  0.00  0.00    +0.000 A 
ATOM     31  N   UNL     1      48.940   5.472  21.046  0.00  0.00    +0.000 NA
ATOM     32  C   UNL     1      48.977   4.274  20.564  0.00  0.00    +0.000 A 
ATOM     33  N   UNL     1      49.104   3.970  19.235  0.00  0.00    +0.000 N 
ATOM     34  C   UNL     1      49.182   4.931  18.254  0.00  0.00    +0.000 A 
ATOM     35  O   UNL     1      49.243   4.627  17.069  0.00  0.00    +0.000 OA
ATOM     36  C   UNL     1      49.163   6.296  18.744  0.00  0.00    +0.000 A 
ATOM     37  H   UNL     1      49.115   3.012  18.919  0.00  0.00    +0.000 HD
ENDBRANCH  24  27
ENDBRANCH  22  23
ENDBRANCH   4  22
TORSDOF 11
ENDMDL
MODEL 4
REMARK VINA RESULT:    -7.223      3.540      9.190
REMARK INTER + INTRA:         -12.755
REMARK INTER:                 -10.816
REMARK INTRA:                  -1.939
REMARK UNBOUND:                -1.098
REMARK  Name = 
REMARK  11 active torsions:
REMARK  status: ('A' for Active; 'I' for Inactive)
REMARK    1  A    between atoms: N_1  and  C_2
REMARK    2  A    between atoms: C_2  and  C_3
REMARK    3  A    between atoms: C_3  and  C_4
REMARK    4  A    between atoms: C_4  and  N_5
REMARK    5  A    between atoms: N_5  and  C_6
REMARK    6  A    between atoms: N_5  and  C_27
REMARK    7  A    between atoms: C_6  and  C_7
REMARK    8  A    between atoms: C_10  and  C_11
REMARK    9  A    between atoms: C_11  and  N_12
REMARK   10  A    between atoms: C_13  and  C_15
REMARK   11  A    between atoms: C_27  and  C_28
REMARK                            x       y       z     vdW  Elec       q    Type
REMARK                         _______ _______ _______ _____ _____    ______ ____
ROOT
ATOM      1  C   UNL     1      49.247   7.859  15.909  0.00  0.00    +0.000 A 
ATOM      2  C   UNL     1      49.147   9.049  15.174  0.00  0.00    +0.000 A 
ATOM      3  C   UNL     1      48.500   9.067  13.936  0.00  0.00    +0.000 A 
ATOM      4  C   UNL     1      47.960   7.893  13.404  0.00  0.00    +0.000 A 
ATOM      5  C   UNL     1      48.166   6.685  14.077  0.00  0.00    +0.000 A 
ATOM      6  C   UNL     1      48.805   6.670  15.317  0.00  0.00    +0.000 A 
ENDROOT
BRANCH   1   7
ATOM      7  C   UNL     1      49.698   7.887  17.359  0.00  0.00    +0.000 C 
BRANCH   7   8
ATOM      8  N   UNL     1      49.614   6.589  18.079  0.00  0.00    +0.000 NA
BRANCH   8   9
ATOM      9  C   UNL     1      49.118   6.702  19.467  0.00  0.00    +0.000 C 
BRANCH   9  10
ATOM     10  C   UNL     1      48.033   5.678  19.826  0.00  0.00    +0.000 C 
BRANCH  10  11
ATOM     11  C   UNL     1      46.816   5.799  18.907  0.00  0.00    +0.000 C 
BRANCH  11  12
ATOM     12  N   UNL     1      46.807   4.683  17.966  0.00  0.00    +0.000 NA
ATOM     13  H   UNL     1      47.285   4.955  17.108  0.00  0.00    +0.000 HD
ATOM     14  H   UNL     1      45.846   4.465  17.703  0.00  0.00    +0.000 HD
ENDBRANCH  11  12
ENDBRANCH  10  11
ENDBRANCH   9  10
ENDBRANCH   8   9
BRANCH   8  15
ATOM     15  C   UNL     1      50.936   5.914  18.056  0.00  0.00    +0.000 C 
BRANCH  15  16
ATOM     16  C   UNL     1      50.937   4.433  17.734  0.00  0.00    +0.000 A 
ATOM     17  C   UNL     1      52.071   3.657  17.951  0.00  0.00    +0.000 A 
ATOM     18  C   UNL     1      51.997   2.288  17.715  0.00  0.00    +0.000 A 
ATOM     19  C   UNL     1      50.803   1.733  17.269  0.00  0.00    +0.000 A 
ATOM     20  C   UNL     1      49.727   2.578  17.061  0.00  0.00    +0.000 A 
ATOM     21  N   UNL     1      49.766   3.906  17.286  0.00  0.00    +0.000 NA
ENDBRANCH  15  16
ENDBRANCH   8  15
ENDBRANCH   7   8
ENDBRANCH   1   7
BRANCH   4  22
ATOM     22  C   UNL     1      47.174   7.908  12.119  0.00  0.00    +0.000 C 
BRANCH  22  23
ATOM     23  N   UNL     1      46.570   6.632  11.865  0.00  0.00    +0.000 N 
ATOM     24  C   UNL     1      45.219   6.513  11.664  0.00  0.00    +0.000 C 
ATOM     25  O   UNL     1      44.472   7.489  11.640  0.00  0.00    +0.000 OA
ATOM     26  H   UNL     1      47.106   5.812  12.129  0.00  0.00    +0.000 HD
BRANCH  24  27
ATOM     27  C   UNL     1      44.720   5.158  11.413  0.00  0.00    +0.000 A 
ATOM     28  C   UNL     1      43.989   4.499  12.391  0.00  0.00    +0.000 A 
ATOM     29  S   UNL     1      43.434   2.960  11.908  0.00  0.00    +0.000 S 
ATOM     30  C   UNL     1      44.203   3.098  10.396  0.00  0.00    +0.000 A 
ATOM     31  N   UNL     1      44.145   2.089   9.486  0.00  0.00    +0.000 NA
ATOM     32  C   UNL     1      44.800   2.315   8.395  0.00  0.00    +0.000 A 
ATOM     33  N   UNL     1      45.502   3.460   8.129  0.00  0.00    +0.000 N 
ATOM     34  C   UNL     1      45.560   4.520   9.003  0.00  0.00    +0.000 A 
ATOM     35  O   UNL     1      46.153   5.552   8.713  0.00  0.00    +0.000 OA
ATOM     36  C   UNL     1      44.854   4.310  10.253  0.00  0.00    +0.000 A 
ATOM     37  H   UNL     1      45.984   3.582   7.251  0.00  0.00    +0.000 HD
ENDBRANCH  24  27
ENDBRANCH  22  23
ENDBRANCH   4  22
TORSDOF 11
ENDMDL
MODEL 5
REMARK VINA RESULT:    -6.936      4.453      5.358
REMARK INTER + INTRA:         -12.291
REMARK INTER:                 -10.788
REMARK INTRA:                  -1.503
REMARK UNBOUND:                -1.098
REMARK  Name = 
REMARK  11 active torsions:
REMARK  status: ('A' for Active; 'I' for Inactive)
REMARK    1  A    between atoms: N_1  and  C_2
REMARK    2  A    between atoms: C_2  and  C_3
REMARK    3  A    between atoms: C_3  and  C_4
REMARK    4  A    between atoms: C_4  and  N_5
REMARK    5  A    between atoms: N_5  and  C_6
REMARK    6  A    between atoms: N_5  and  C_27
REMARK    7  A    between atoms: C_6  and  C_7
REMARK    8  A    between atoms: C_10  and  C_11
REMARK    9  A    between atoms: C_11  and  N_12
REMARK   10  A    between atoms: C_13  and  C_15
REMARK   11  A    between atoms: C_27  and  C_28
REMARK                            x       y       z     vdW  Elec       q    Type
REMARK                         _______ _______ _______ _____ _____    ______ ____
ROOT
ATOM      1  C   UNL     1      46.240   4.975  12.247  0.00  0.00    +0.000 A 
ATOM      2  C   UNL     1      46.912   4.936  13.478  0.00  0.00    +0.000 A 
ATOM      3  C   UNL     1      47.504   6.088  14.001  0.00  0.00    +0.000 A 
ATOM      4  C   UNL     1      47.451   7.293  13.294  0.00  0.00    +0.000 A 
ATOM      5  C   UNL     1      46.890   7.304  12.014  0.00  0.00    +0.000 A 
ATOM      6  C   UNL     1      46.291   6.155  11.496  0.00  0.00    +0.000 A 
ENDROOT
BRANCH   1   7
ATOM      7  C   UNL     1      45.369   3.810  11.810  0.00  0.00    +0.000 C 
BRANCH   7   8
ATOM      8  N   UNL     1      44.878   3.871  10.407  0.00  0.00    +0.000 NA
BRANCH   8   9
ATOM      9  C   UNL     1      43.523   4.448  10.269  0.00  0.00    +0.000 C 
BRANCH   9  10
ATOM     10  C   UNL     1      42.729   4.491  11.581  0.00  0.00    +0.000 C 
BRANCH  10  11
ATOM     11  C   UNL     1      42.400   5.926  11.995  0.00  0.00    +0.000 C 
BRANCH  11  12
ATOM     12  N   UNL     1      42.731   6.833  10.900  0.00  0.00    +0.000 NA
ATOM     13  H   UNL     1      43.585   7.342  11.124  0.00  0.00    +0.000 HD
ATOM     14  H   UNL     1      41.996   7.534  10.803  0.00  0.00    +0.000 HD
ENDBRANCH  11  12
ENDBRANCH  10  11
ENDBRANCH   9  10
ENDBRANCH   8   9
BRANCH   8  15
ATOM     15  C   UNL     1      44.930   2.520   9.796  0.00  0.00    +0.000 C 
BRANCH  15  16
ATOM     16  C   UNL     1      45.726   2.384   8.514  0.00  0.00    +0.000 A 
ATOM     17  C   UNL     1      45.907   3.475   7.669  0.00  0.00    +0.000 A 
ATOM     18  C   UNL     1      46.713   3.321   6.545  0.00  0.00    +0.000 A 
ATOM     19  C   UNL     1      47.309   2.090   6.293  0.00  0.00    +0.000 A 
ATOM     20  C   UNL     1      47.063   1.052   7.174  0.00  0.00    +0.000 A 
ATOM     21  N   UNL     1      46.293   1.172   8.273  0.00  0.00    +0.000 NA
ENDBRANCH  15  16
ENDBRANCH   8  15
ENDBRANCH   7   8
ENDBRANCH   1   7
BRANCH   4  22
ATOM     22  C   UNL     1      47.996   8.567  13.884  0.00  0.00    +0.000 C 
BRANCH  22  23
ATOM     23  N   UNL     1      49.349   8.795  13.464  0.00  0.00    +0.000 N 
ATOM     24  C   UNL     1      49.722   9.980  12.886  0.00  0.00    +0.000 C 
ATOM     25  O   UNL     1      48.938  10.917  12.746  0.00  0.00    +0.000 OA
ATOM     26  H   UNL     1      49.932   7.975  13.335  0.00  0.00    +0.000 HD
BRANCH  24  27
ATOM     27  C   UNL     1      51.132  10.096  12.501  0.00  0.00    +0.000 A 
ATOM     28  C   UNL     1      51.881  11.178  12.941  0.00  0.00    +0.000 A 
ATOM     29  S   UNL     1      53.515  11.121  12.452  0.00  0.00    +0.000 S 
ATOM     30  C   UNL     1      53.261   9.678  11.587  0.00  0.00    +0.000 A 
ATOM     31  N   UNL     1      54.274   9.090  10.894  0.00  0.00    +0.000 NA
ATOM     32  C   UNL     1      53.932   8.019  10.257  0.00  0.00    +0.000 A 
ATOM     33  N   UNL     1      52.674   7.478  10.255  0.00  0.00    +0.000 N 
ATOM     34  C   UNL     1      51.629   8.018  10.968  0.00  0.00    +0.000 A 
ATOM     35  O   UNL     1      50.529   7.481  10.987  0.00  0.00    +0.000 OA
ATOM     36  C   UNL     1      51.955   9.234  11.688  0.00  0.00    +0.000 A 
ATOM     37  H   UNL     1      52.473   6.631   9.746  0.00  0.00    +0.000 HD
ENDBRANCH  24  27
ENDBRANCH  22  23
ENDBRANCH   4  22
TORSDOF 11
ENDMDL
MODEL 6
REMARK VINA RESULT:    -6.821      3.918      9.287
REMARK INTER + INTRA:         -12.106
REMARK INTER:                 -10.123
REMARK INTRA:                  -1.983
REMARK UNBOUND:                -1.098
REMARK  Name = 
REMARK  11 active torsions:
REMARK  status: ('A' for Active; 'I' for Inactive)
REMARK    1  A    between atoms: N_1  and  C_2
REMARK    2  A    between atoms: C_2  and  C_3
REMARK    3  A    between atoms: C_3  and  C_4
REMARK    4  A    between atoms: C_4  and  N_5
REMARK    5  A    between atoms: N_5  and  C_6
REMARK    6  A    between atoms: N_5  and  C_27
REMARK    7  A    between atoms: C_6  and  C_7
REMARK    8  A    between atoms: C_10  and  C_11
REMARK    9  A    between atoms: C_11  and  N_12
REMARK   10  A    between atoms: C_13  and  C_15
REMARK   11  A    between atoms: C_27  and  C_28
REMARK                            x       y       z     vdW  Elec       q    Type
REMARK                         _______ _______ _______ _____ _____    ______ ____
ROOT
ATOM      1  C   UNL     1      48.872   7.924  16.120  0.00  0.00    +0.000 A 
ATOM      2  C   UNL     1      48.440   9.112  15.513  0.00  0.00    +0.000 A 
ATOM      3  C   UNL     1      47.961   9.105  14.201  0.00  0.00    +0.000 A 
ATOM      4  C   UNL     1      47.924   7.915  13.468  0.00  0.00    +0.000 A 
ATOM      5  C   UNL     1      48.468   6.756  14.029  0.00  0.00    +0.000 A 
ATOM      6  C   UNL     1      48.938   6.762  15.342  0.00  0.00    +0.000 A 
ENDROOT
BRANCH   1   7
ATOM      7  C   UNL     1      49.130   7.876  17.616  0.00  0.00    +0.000 C 
BRANCH   7   8
ATOM      8  N   UNL     1      48.000   7.373  18.443  0.00  0.00    +0.000 NA
BRANCH   8   9
ATOM      9  C   UNL     1      47.482   8.358  19.416  0.00  0.00    +0.000 C 
BRANCH   9  10
ATOM     10  C   UNL     1      48.137   9.741  19.312  0.00  0.00    +0.000 C 
BRANCH  10  11
ATOM     11  C   UNL     1      48.902  10.101  20.586  0.00  0.00    +0.000 C 
BRANCH  11  12
ATOM     12  N   UNL     1      49.689   8.950  21.020  0.00  0.00    +0.000 NA
ATOM     13  H   UNL     1      50.645   9.042  20.680  0.00  0.00    +0.000 HD
ATOM     14  H   UNL     1      49.314   8.101  20.597  0.00  0.00    +0.000 HD
ENDBRANCH  11  12
ENDBRANCH  10  11
ENDBRANCH   9  10
ENDBRANCH   8   9
BRANCH   8  15
ATOM     15  C   UNL     1      48.402   6.123  19.136  0.00  0.00    +0.000 C 
BRANCH  15  16
ATOM     16  C   UNL     1      48.490   4.873  18.284  0.00  0.00    +0.000 A 
ATOM     17  C   UNL     1      49.692   4.184  18.152  0.00  0.00    +0.000 A 
ATOM     18  C   UNL     1      49.704   2.998  17.425  0.00  0.00    +0.000 A 
ATOM     19  C   UNL     1      48.526   2.537  16.848  0.00  0.00    +0.000 A 
ATOM     20  C   UNL     1      47.378   3.291  17.012  0.00  0.00    +0.000 A 
ATOM     21  N   UNL     1      47.333   4.439  17.715  0.00  0.00    +0.000 NA
ENDBRANCH  15  16
ENDBRANCH   8  15
ENDBRANCH   7   8
ENDBRANCH   1   7
BRANCH   4  22
ATOM     22  C   UNL     1      47.322   7.867  12.088  0.00  0.00    +0.000 C 
BRANCH  22  23
ATOM     23  N   UNL     1      46.689   6.603  11.843  0.00  0.00    +0.000 N 
ATOM     24  C   UNL     1      45.331   6.509  11.684  0.00  0.00    +0.000 C 
ATOM     25  O   UNL     1      44.600   7.497  11.692  0.00  0.00    +0.000 OA
ATOM     26  H   UNL     1      47.219   5.772  12.081  0.00  0.00    +0.000 HD
BRANCH  24  27
ATOM     27  C   UNL     1      44.801   5.165  11.436  0.00  0.00    +0.000 A 
ATOM     28  C   UNL     1      44.075   4.516  12.425  0.00  0.00    +0.000 A 
ATOM     29  S   UNL     1      43.482   2.989  11.946  0.00  0.00    +0.000 S 
ATOM     30  C   UNL     1      44.226   3.119  10.421  0.00  0.00    +0.000 A 
ATOM     31  N   UNL     1      44.133   2.115   9.509  0.00  0.00    +0.000 NA
ATOM     32  C   UNL     1      44.772   2.333   8.407  0.00  0.00    +0.000 A 
ATOM     33  N   UNL     1      45.491   3.465   8.133  0.00  0.00    +0.000 N 
ATOM     34  C   UNL     1      45.585   4.520   9.010  0.00  0.00    +0.000 A 
ATOM     35  O   UNL     1      46.192   5.541   8.713  0.00  0.00    +0.000 OA
ATOM     36  C   UNL     1      44.898   4.319  10.271  0.00  0.00    +0.000 A 
ATOM     37  H   UNL     1      45.960   3.581   7.247  0.00  0.00    +0.000 HD
ENDBRANCH  24  27
ENDBRANCH  22  23
ENDBRANCH   4  22
TORSDOF 11
ENDMDL
MODEL 7
REMARK VINA RESULT:    -6.815      1.796      2.808
REMARK INTER + INTRA:         -12.097
REMARK INTER:                 -11.008
REMARK INTRA:                  -1.089
REMARK UNBOUND:                -1.098
REMARK  Name = 
REMARK  11 active torsions:
REMARK  status: ('A' for Active; 'I' for Inactive)
REMARK    1  A    between atoms: N_1  and  C_2
REMARK    2  A    between atoms: C_2  and  C_3
REMARK    3  A    between atoms: C_3  and  C_4
REMARK    4  A    between atoms: C_4  and  N_5
REMARK    5  A    between atoms: N_5  and  C_6
REMARK    6  A    between atoms: N_5  and  C_27
REMARK    7  A    between atoms: C_6  and  C_7
REMARK    8  A    between atoms: C_10  and  C_11
REMARK    9  A    between atoms: C_11  and  N_12
REMARK   10  A    between atoms: C_13  and  C_15
REMARK   11  A    between atoms: C_27  and  C_28
REMARK                            x       y       z     vdW  Elec       q    Type
REMARK                         _______ _______ _______ _____ _____    ______ ____
ROOT
ATOM      1  C   UNL     1      47.350   5.904  13.616  0.00  0.00    +0.000 A 
ATOM      2  C   UNL     1      48.206   6.650  14.439  0.00  0.00    +0.000 A 
ATOM      3  C   UNL     1      48.564   6.178  15.704  0.00  0.00    +0.000 A 
ATOM      4  C   UNL     1      48.057   4.962  16.174  0.00  0.00    +0.000 A 
ATOM      5  C   UNL     1      47.110   4.280  15.405  0.00  0.00    +0.000 A 
ATOM      6  C   UNL     1      46.760   4.748  14.139  0.00  0.00    +0.000 A 
ENDROOT
BRANCH   1   7
ATOM      7  C   UNL     1      47.180   6.273  12.151  0.00  0.00    +0.000 C 
BRANCH   7   8
ATOM      8  N   UNL     1      45.816   6.719  11.760  0.00  0.00    +0.000 NA
BRANCH   8   9
ATOM      9  C   UNL     1      45.271   7.801  12.608  0.00  0.00    +0.000 C 
BRANCH   9  10
ATOM     10  C   UNL     1      45.564   9.212  12.080  0.00  0.00    +0.000 C 
BRANCH  10  11
ATOM     11  C   UNL     1      44.333   9.835  11.421  0.00  0.00    +0.000 C 
BRANCH  11  12
ATOM     12  N   UNL     1      43.478   8.776  10.894  0.00  0.00    +0.000 NA
ATOM     13  H   UNL     1      44.042   8.111  10.366  0.00  0.00    +0.000 HD
ATOM     14  H   UNL     1      42.809   9.172  10.234  0.00  0.00    +0.000 HD
ENDBRANCH  11  12
ENDBRANCH  10  11
ENDBRANCH   9  10
ENDBRANCH   8   9
BRANCH   8  15
ATOM     15  C   UNL     1      44.891   5.557  11.747  0.00  0.00    +0.000 C 
BRANCH  15  16
ATOM     16  C   UNL     1      44.952   4.656  10.531  0.00  0.00    +0.000 A 
ATOM     17  C   UNL     1      45.563   5.083   9.357  0.00  0.00    +0.000 A 
ATOM     18  C   UNL     1      45.663   4.190   8.294  0.00  0.00    +0.000 A 
ATOM     19  C   UNL     1      45.151   2.905   8.429  0.00  0.00    +0.000 A 
ATOM     20  C   UNL     1      44.542   2.565   9.624  0.00  0.00    +0.000 A 
ATOM     21  N   UNL     1      44.435   3.405  10.673  0.00  0.00    +0.000 NA
ENDBRANCH  15  16
ENDBRANCH   8  15
ENDBRANCH   7   8
ENDBRANCH   1   7
BRANCH   4  22
ATOM     22  C   UNL     1      48.506   4.388  17.492  0.00  0.00    +0.000 C 
BRANCH  22  23
ATOM     23  N   UNL     1      49.886   3.999  17.445  0.00  0.00    +0.000 N 
ATOM     24  C   UNL     1      50.726   4.237  18.502  0.00  0.00    +0.000 C 
ATOM     25  O   UNL     1      50.334   4.742  19.550  0.00  0.00    +0.000 OA
ATOM     26  H   UNL     1      50.281   3.824  16.527  0.00  0.00    +0.000 HD
BRANCH  24  27
ATOM     27  C   UNL     1      52.114   3.792  18.336  0.00  0.00    +0.000 A 
ATOM     28  C   UNL     1      53.156   4.669  18.606  0.00  0.00    +0.000 A 
ATOM     29  S   UNL     1      54.701   3.969  18.421  0.00  0.00    +0.000 S 
ATOM     30  C   UNL     1      54.029   2.488  17.918  0.00  0.00    +0.000 A 
ATOM     31  N   UNL     1      54.824   1.440  17.571  0.00  0.00    +0.000 NA
ATOM     32  C   UNL     1      54.182   0.391  17.178  0.00  0.00    +0.000 A 
ATOM     33  N   UNL     1      52.819   0.290  17.106  0.00  0.00    +0.000 N 
ATOM     34  C   UNL     1      51.975   1.310  17.479  0.00  0.00    +0.000 A 
ATOM     35  O   UNL     1      50.759   1.170  17.452  0.00  0.00    +0.000 OA
ATOM     36  C   UNL     1      52.647   2.520  17.913  0.00  0.00    +0.000 A 
ATOM     37  H   UNL     1      52.376  -0.563  16.801  0.00  0.00    +0.000 HD
ENDBRANCH  24  27
ENDBRANCH  22  23
ENDBRANCH   4  22
TORSDOF 11
ENDMDL
MODEL 8
REMARK VINA RESULT:    -6.622      1.949      2.498
REMARK INTER + INTRA:         -11.785
REMARK INTER:                 -11.127
REMARK INTRA:                  -0.659
REMARK UNBOUND:                -1.098
REMARK  Name = 
REMARK  11 active torsions:
REMARK  status: ('A' for Active; 'I' for Inactive)
REMARK    1  A    between atoms: N_1  and  C_2
REMARK    2  A    between atoms: C_2  and  C_3
REMARK    3  A    between atoms: C_3  and  C_4
REMARK    4  A    between atoms: C_4  and  N_5
REMARK    5  A    between atoms: N_5  and  C_6
REMARK    6  A    between atoms: N_5  and  C_27
REMARK    7  A    between atoms: C_6  and  C_7
REMARK    8  A    between atoms: C_10  and  C_11
REMARK    9  A    between atoms: C_11  and  N_12
REMARK   10  A    between atoms: C_13  and  C_15
REMARK   11  A    between atoms: C_27  and  C_28
REMARK                            x       y       z     vdW  Elec       q    Type
REMARK                         _______ _______ _______ _____ _____    ______ ____
ROOT
ATOM      1  C   UNL     1      46.210   5.185  11.598  0.00  0.00    +0.000 A 
ATOM      2  C   UNL     1      46.344   3.866  12.057  0.00  0.00    +0.000 A 
ATOM      3  C   UNL     1      46.619   3.608  13.402  0.00  0.00    +0.000 A 
ATOM      4  C   UNL     1      46.784   4.663  14.305  0.00  0.00    +0.000 A 
ATOM      5  C   UNL     1      46.773   5.976  13.824  0.00  0.00    +0.000 A 
ATOM      6  C   UNL     1      46.489   6.233  12.483  0.00  0.00    +0.000 A 
ENDROOT
BRANCH   1   7
ATOM      7  C   UNL     1      45.646   5.462  10.215  0.00  0.00    +0.000 C 
BRANCH   7   8
ATOM      8  N   UNL     1      44.398   4.726   9.875  0.00  0.00    +0.000 NA
BRANCH   8   9
ATOM      9  C   UNL     1      43.274   4.991  10.799  0.00  0.00    +0.000 C 
BRANCH   9  10
ATOM     10  C   UNL     1      42.987   3.842  11.775  0.00  0.00    +0.000 C 
BRANCH  10  11
ATOM     11  C   UNL     1      43.009   4.317  13.228  0.00  0.00    +0.000 C 
BRANCH  11  12
ATOM     12  N   UNL     1      42.971   5.776  13.261  0.00  0.00    +0.000 NA
ATOM     13  H   UNL     1      42.753   6.133  12.332  0.00  0.00    +0.000 HD
ATOM     14  H   UNL     1      43.895   6.137  13.498  0.00  0.00    +0.000 HD
ENDBRANCH  11  12
ENDBRANCH  10  11
ENDBRANCH   9  10
ENDBRANCH   8   9
BRANCH   8  15
ATOM     15  C   UNL     1      44.677   3.270   9.803  0.00  0.00    +0.000 C 
BRANCH  15  16
ATOM     16  C   UNL     1      45.472   2.789   8.606  0.00  0.00    +0.000 A 
ATOM     17  C   UNL     1      45.733   3.639   7.536  0.00  0.00    +0.000 A 
ATOM     18  C   UNL     1      46.534   3.177   6.497  0.00  0.00    +0.000 A 
ATOM     19  C   UNL     1      47.047   1.886   6.551  0.00  0.00    +0.000 A 
ATOM     20  C   UNL     1      46.726   1.099   7.642  0.00  0.00    +0.000 A 
ATOM     21  N   UNL     1      45.957   1.520   8.666  0.00  0.00    +0.000 NA
ENDBRANCH  15  16
ENDBRANCH   8  15
ENDBRANCH   7   8
ENDBRANCH   1   7
BRANCH   4  22
ATOM     22  C   UNL     1      46.984   4.406  15.776  0.00  0.00    +0.000 C 
BRANCH  22  23
ATOM     23  N   UNL     1      48.045   5.214  16.303  0.00  0.00    +0.000 N 
ATOM     24  C   UNL     1      48.109   5.519  17.638  0.00  0.00    +0.000 C 
ATOM     25  O   UNL     1      47.298   5.079  18.450  0.00  0.00    +0.000 OA
ATOM     26  H   UNL     1      48.561   5.783  15.640  0.00  0.00    +0.000 HD
BRANCH  24  27
ATOM     27  C   UNL     1      49.241   6.350  18.058  0.00  0.00    +0.000 A 
ATOM     28  C   UNL     1      49.012   7.619  18.572  0.00  0.00    +0.000 A 
ATOM     29  S   UNL     1      50.434   8.422  19.067  0.00  0.00    +0.000 S 
ATOM     30  C   UNL     1      51.409   7.123  18.556  0.00  0.00    +0.000 A 
ATOM     31  N   UNL     1      52.763   7.176  18.672  0.00  0.00    +0.000 NA
ATOM     32  C   UNL     1      53.379   6.136  18.215  0.00  0.00    +0.000 A 
ATOM     33  N   UNL     1      52.764   5.046  17.660  0.00  0.00    +0.000 N 
ATOM     34  C   UNL     1      51.398   4.933  17.553  0.00  0.00    +0.000 A 
ATOM     35  O   UNL     1      50.877   3.922  17.099  0.00  0.00    +0.000 OA
ATOM     36  C   UNL     1      50.659   6.084  18.037  0.00  0.00    +0.000 A 
ATOM     37  H   UNL     1      53.301   4.258  17.331  0.00  0.00    +0.000 HD
ENDBRANCH  24  27
ENDBRANCH  22  23
ENDBRANCH   4  22
TORSDOF 11
ENDMDL
MODEL 9
REMARK VINA RESULT:    -6.525      3.784      8.880
REMARK INTER + INTRA:         -11.628
REMARK INTER:                  -9.695
REMARK INTRA:                  -1.933
REMARK UNBOUND:                -1.098
REMARK  Name = 
REMARK  11 active torsions:
REMARK  status: ('A' for Active; 'I' for Inactive)
REMARK    1  A    between atoms: N_1  and  C_2
REMARK    2  A    between atoms: C_2  and  C_3
REMARK    3  A    between atoms: C_3  and  C_4
REMARK    4  A    between atoms: C_4  and  N_5
REMARK    5  A    between atoms: N_5  and  C_6
REMARK    6  A    between atoms: N_5  and  C_27
REMARK    7  A    between atoms: C_6  and  C_7
REMARK    8  A    between atoms: C_10  and  C_11
REMARK    9  A    between atoms: C_11  and  N_12
REMARK   10  A    between atoms: C_13  and  C_15
REMARK   11  A    between atoms: C_27  and  C_28
REMARK                            x       y       z     vdW  Elec       q    Type
REMARK                         _______ _______ _______ _____ _____    ______ ____
ROOT
ATOM      1  C   UNL     1      49.732   7.456  15.919  0.00  0.00    +0.000 A 
ATOM      2  C   UNL     1      50.118   8.619  15.236  0.00  0.00    +0.000 A 
ATOM      3  C   UNL     1      49.635   8.882  13.952  0.00  0.00    +0.000 A 
ATOM      4  C   UNL     1      48.776   7.977  13.321  0.00  0.00    +0.000 A 
ATOM      5  C   UNL     1      48.490   6.762  13.951  0.00  0.00    +0.000 A 
ATOM      6  C   UNL     1      48.964   6.505  15.237  0.00  0.00    +0.000 A 
ENDROOT
BRANCH   1   7
ATOM      7  C   UNL     1      50.028   7.302  17.401  0.00  0.00    +0.000 C 
BRANCH   7   8
ATOM      8  N   UNL     1      48.845   7.386  18.300  0.00  0.00    +0.000 NA
BRANCH   8   9
ATOM      9  C   UNL     1      48.838   8.580  19.173  0.00  0.00    +0.000 C 
BRANCH   9  10
ATOM     10  C   UNL     1      47.441   9.167  19.411  0.00  0.00    +0.000 C 
BRANCH  10  11
ATOM     11  C   UNL     1      47.257  10.500  18.685  0.00  0.00    +0.000 C 
BRANCH  11  12
ATOM     12  N   UNL     1      47.851  10.412  17.355  0.00  0.00    +0.000 NA
ATOM     13  H   UNL     1      47.149  10.637  16.651  0.00  0.00    +0.000 HD
ATOM     14  H   UNL     1      48.143   9.452  17.173  0.00  0.00    +0.000 HD
ENDBRANCH  11  12
ENDBRANCH  10  11
ENDBRANCH   9  10
ENDBRANCH   8   9
BRANCH   8  15
ATOM     15  C   UNL     1      48.743   6.149  19.114  0.00  0.00    +0.000 C 
BRANCH  15  16
ATOM     16  C   UNL     1      48.557   4.851  18.355  0.00  0.00    +0.000 A 
ATOM     17  C   UNL     1      47.336   4.537  17.767  0.00  0.00    +0.000 A 
ATOM     18  C   UNL     1      47.239   3.371  17.014  0.00  0.00    +0.000 A 
ATOM     19  C   UNL     1      48.354   2.552  16.872  0.00  0.00    +0.000 A 
ATOM     20  C   UNL     1      49.526   2.928  17.504  0.00  0.00    +0.000 A 
ATOM     21  N   UNL     1      49.652   4.053  18.234  0.00  0.00    +0.000 NA
ENDBRANCH  15  16
ENDBRANCH   8  15
ENDBRANCH   7   8
ENDBRANCH   1   7
BRANCH   4  22
ATOM     22  C   UNL     1      48.167   8.286  11.979  0.00  0.00    +0.000 C 
BRANCH  22  23
ATOM     23  N   UNL     1      47.515   7.134  11.428  0.00  0.00    +0.000 N 
ATOM     24  C   UNL     1      46.147   7.044  11.387  0.00  0.00    +0.000 C 
ATOM     25  O   UNL     1      45.419   7.957  11.769  0.00  0.00    +0.000 OA
ATOM     26  H   UNL     1      48.070   6.288  11.348  0.00  0.00    +0.000 HD
BRANCH  24  27
ATOM     27  C   UNL     1      45.598   5.819  10.799  0.00  0.00    +0.000 A 
ATOM     28  C   UNL     1      45.816   5.539   9.458  0.00  0.00    +0.000 A 
ATOM     29  S   UNL     1      45.160   4.046   8.956  0.00  0.00    +0.000 S 
ATOM     30  C   UNL     1      44.511   3.751  10.502  0.00  0.00    +0.000 A 
ATOM     31  N   UNL     1      43.788   2.627  10.754  0.00  0.00    +0.000 NA
ATOM     32  C   UNL     1      43.329   2.548  11.959  0.00  0.00    +0.000 A 
ATOM     33  N   UNL     1      43.532   3.486  12.936  0.00  0.00    +0.000 N 
ATOM     34  C   UNL     1      44.285   4.619  12.737  0.00  0.00    +0.000 A 
ATOM     35  O   UNL     1      44.491   5.413  13.646  0.00  0.00    +0.000 OA
ATOM     36  C   UNL     1      44.810   4.765  11.393  0.00  0.00    +0.000 A 
ATOM     37  H   UNL     1      43.156   3.360  13.864  0.00  0.00    +0.000 HD
ENDBRANCH  24  27
ENDBRANCH  22  23
ENDBRANCH   4  22
TORSDOF 11
ENDMDL
