MODEL 1
REMARK VINA RESULT:    -7.550      0.000      0.000
REMARK INTER + INTRA:          -9.566
REMARK INTER:                  -9.095
REMARK INTRA:                  -0.472
REMARK UNBOUND:                -0.472
REMARK  Name = 
REMARK  4 active torsions:
REMARK  status: ('A' for Active; 'I' for Inactive)
REMARK    1  A    between atoms: N_1  and  C_2
REMARK    2  A    between atoms: C_2  and  C_3
REMARK    3  A    between atoms: C_6  and  C_7
REMARK    4  A    between atoms: C_7  and  N_8
REMARK                            x       y       z     vdW  Elec       q    Type
REMARK                         _______ _______ _______ _____ _____    ______ ____
ROOT
ATOM      1  C   UNL     1      46.566   2.801   6.915  0.00  0.00    +0.000 A 
ATOM      2  C   UNL     1      46.356   1.688   7.720  0.00  0.00    +0.000 A 
ATOM      3  C   UNL     1      45.586   1.822   8.873  0.00  0.00    +0.000 A 
ATOM      4  C   UNL     1      45.037   3.064   9.203  0.00  0.00    +0.000 A 
ATOM      5  C   UNL     1      45.276   4.113   8.319  0.00  0.00    +0.000 A 
ATOM      6  N   UNL     1      46.025   4.011   7.198  0.00  0.00    +0.000 NA
ENDROOT
BRANCH   1   7
ATOM      7  C   UNL     1      47.422   2.699   5.668  0.00  0.00    +0.000 C 
BRANCH   7   8
ATOM      8  N   UNL     1      48.507   1.719   5.798  0.00  0.00    +0.000 NA
ATOM      9  H   UNL     1      48.931   1.591   4.879  0.00  0.00    +0.000 HD
ATOM     10  H   UNL     1      48.089   0.820   6.036  0.00  0.00    +0.000 HD
ENDBRANCH   7   8
ENDBRANCH   1   7
BRANCH   4  11
ATOM     11  C   UNL     1      44.232   3.273  10.456  0.00  0.00    +0.000 C 
BRANCH  11  12
ATOM     12  N   UNL     1      45.018   3.885  11.521  0.00  0.00    +0.000 N 
ATOM     13  C   UNL     1      45.713   3.177  12.471  0.00  0.00    +0.000 A 
ATOM     14  C   UNL     1      46.344   4.080  13.295  0.00  0.00    +0.000 A 
ATOM     15  C   UNL     1      46.003   5.385  12.850  0.00  0.00    +0.000 A 
ATOM     16  C   UNL     1      46.350   6.681  13.283  0.00  0.00    +0.000 A 
ATOM     17  C   UNL     1      45.821   7.793  12.620  0.00  0.00    +0.000 A 
ATOM     18  C   UNL     1      44.939   7.629  11.556  0.00  0.00    +0.000 A 
ATOM     19  C   UNL     1      44.576   6.355  11.113  0.00  0.00    +0.000 A 
ATOM     20  C   UNL     1      45.138   5.241  11.761  0.00  0.00    +0.000 A 
ENDBRANCH  11  12
ENDBRANCH   4  11
TORSDOF 4
ENDMDL
MODEL 2
REMARK VINA RESULT:    -7.508      1.383      1.731
REMARK INTER + INTRA:          -9.516
REMARK INTER:                  -9.001
REMARK INTRA:                  -0.515
REMARK UNBOUND:                -0.472
REMARK  Name = 
REMARK  4 active torsions:
REMARK  status: ('A' for Active; 'I' for Inactive)
REMARK    1  A    between atoms: N_1  and  C_2
REMARK    2  A    between atoms: C_2  and  C_3
REMARK    3  A    between atoms: C_6  and  C_7
REMARK    4  A    between atoms: C_7  and  N_8
REMARK                            x       y       z     vdW  Elec       q    Type
REMARK                         _______ _______ _______ _____ _____    ______ ____
ROOT
ATOM      1  C   UNL     1      46.682   1.987   7.519  0.00  0.00    +0.000 A 
ATOM      2  C   UNL     1      46.584   3.342   7.231  0.00  0.00    +0.000 A 
ATOM      3  C   UNL     1      45.677   4.122   7.946  0.00  0.00    +0.000 A 
ATOM      4  C   UNL     1      44.886   3.536   8.937  0.00  0.00    +0.000 A 
ATOM      5  C   UNL     1      45.078   2.178   9.175  0.00  0.00    +0.000 A 
ATOM      6  N   UNL     1      45.945   1.397   8.492  0.00  0.00    +0.000 NA
ENDROOT
BRANCH   1   7
ATOM      7  C   UNL     1      47.638   1.102   6.742  0.00  0.00    +0.000 C 
BRANCH   7   8
ATOM      8  N   UNL     1      48.470   1.852   5.794  0.00  0.00    +0.000 NA
ATOM      9  H   UNL     1      49.131   2.416   6.329  0.00  0.00    +0.000 HD
ATOM     10  H   UNL     1      47.868   2.519   5.311  0.00  0.00    +0.000 HD
ENDBRANCH   7   8
ENDBRANCH   1   7
BRANCH   4  11
ATOM     11  C   UNL     1      43.864   4.324   9.710  0.00  0.00    +0.000 C 
BRANCH  11  12
ATOM     12  N   UNL     1      44.232   4.478  11.113  0.00  0.00    +0.000 N 
ATOM     13  C   UNL     1      43.562   3.886  12.156  0.00  0.00    +0.000 A 
ATOM     14  C   UNL     1      44.198   4.240  13.323  0.00  0.00    +0.000 A 
ATOM     15  C   UNL     1      45.279   5.098  12.986  0.00  0.00    +0.000 A 
ATOM     16  C   UNL     1      46.272   5.753  13.741  0.00  0.00    +0.000 A 
ATOM     17  C   UNL     1      47.212   6.559  13.092  0.00  0.00    +0.000 A 
ATOM     18  C   UNL     1      47.157   6.738  11.713  0.00  0.00    +0.000 A 
ATOM     19  C   UNL     1      46.178   6.104  10.943  0.00  0.00    +0.000 A 
ATOM     20  C   UNL     1      45.258   5.267  11.597  0.00  0.00    +0.000 A 
ENDBRANCH  11  12
ENDBRANCH   4  11
TORSDOF 4
ENDMDL
MODEL 3
REMARK VINA RESULT:    -7.207      0.928      2.255
REMARK INTER + INTRA:          -9.154
REMARK INTER:                  -8.663
REMARK INTRA:                  -0.491
REMARK UNBOUND:                -0.472
REMARK  Name = 
REMARK  4 active torsions:
REMARK  status: ('A' for Active; 'I' for Inactive)
REMARK    1  A    between atoms: N_1  and  C_2
REMARK    2  A    between atoms: C_2  and  C_3
REMARK    3  A    between atoms: C_6  and  C_7
REMARK    4  A    between atoms: C_7  and  N_8
REMARK                            x       y       z     vdW  Elec       q    Type
REMARK                         _______ _______ _______ _____ _____    ______ ____
ROOT
ATOM      1  C   UNL     1      46.478   2.439   7.597  0.00  0.00    +0.000 A 
ATOM      2  C   UNL     1      45.713   1.694   8.487  0.00  0.00    +0.000 A 
ATOM      3  C   UNL     1      44.857   2.358   9.363  0.00  0.00    +0.000 A 
ATOM      4  C   UNL     1      44.776   3.753   9.334  0.00  0.00    +0.000 A 
ATOM      5  C   UNL     1      45.556   4.409   8.386  0.00  0.00    +0.000 A 
ATOM      6  N   UNL     1      46.401   3.790   7.530  0.00  0.00    +0.000 NA
ENDROOT
BRANCH   1   7
ATOM      7  C   UNL     1      47.442   1.752   6.649  0.00  0.00    +0.000 C 
BRANCH   7   8
ATOM      8  N   UNL     1      48.643   2.551   6.377  0.00  0.00    +0.000 NA
ATOM      9  H   UNL     1      49.298   2.412   7.147  0.00  0.00    +0.000 HD
ATOM     10  H   UNL     1      48.378   3.535   6.416  0.00  0.00    +0.000 HD
ENDBRANCH   7   8
ENDBRANCH   1   7
BRANCH   4  11
ATOM     11  C   UNL     1      43.897   4.520  10.284  0.00  0.00    +0.000 C 
BRANCH  11  12
ATOM     12  N   UNL     1      44.669   5.363  11.189  0.00  0.00    +0.000 N 
ATOM     13  C   UNL     1      44.697   6.735  11.130  0.00  0.00    +0.000 A 
ATOM     14  C   UNL     1      45.512   7.187  12.142  0.00  0.00    +0.000 A 
ATOM     15  C   UNL     1      46.020   6.052  12.829  0.00  0.00    +0.000 A 
ATOM     16  C   UNL     1      46.876   5.890  13.936  0.00  0.00    +0.000 A 
ATOM     17  C   UNL     1      47.203   4.602  14.371  0.00  0.00    +0.000 A 
ATOM     18  C   UNL     1      46.710   3.484  13.705  0.00  0.00    +0.000 A 
ATOM     19  C   UNL     1      45.865   3.620  12.600  0.00  0.00    +0.000 A 
ATOM     20  C   UNL     1      45.512   4.917  12.190  0.00  0.00    +0.000 A 
ENDBRANCH  11  12
ENDBRANCH   4  11
TORSDOF 4
ENDMDL
MODEL 4
REMARK VINA RESULT:    -6.513      1.792      6.410
REMARK INTER + INTRA:          -8.317
REMARK INTER:                  -7.839
REMARK INTRA:                  -0.478
REMARK UNBOUND:                -0.472
REMARK  Name = 
REMARK  4 active torsions:
REMARK  status: ('A' for Active; 'I' for Inactive)
REMARK    1  A    between atoms: N_1  and  C_2
REMARK    2  A    between atoms: C_2  and  C_3
REMARK    3  A    between atoms: C_6  and  C_7
REMARK    4  A    between atoms: C_7  and  N_8
REMARK                            x       y       z     vdW  Elec       q    Type
REMARK                         _______ _______ _______ _____ _____    ______ ____
ROOT
ATOM      1  C   UNL     1      46.430   4.508  13.965  0.00  0.00    +0.000 A 
ATOM      2  C   UNL     1      45.911   5.598  13.276  0.00  0.00    +0.000 A 
ATOM      3  C   UNL     1      45.220   5.379  12.086  0.00  0.00    +0.000 A 
ATOM      4  C   UNL     1      45.056   4.078  11.605  0.00  0.00    +0.000 A 
ATOM      5  C   UNL     1      45.583   3.049  12.381  0.00  0.00    +0.000 A 
ATOM      6  N   UNL     1      46.264   3.233  13.535  0.00  0.00    +0.000 NA
ENDROOT
BRANCH   1   7
ATOM      7  C   UNL     1      47.212   4.710  15.248  0.00  0.00    +0.000 C 
BRANCH   7   8
ATOM      8  N   UNL     1      47.554   3.448  15.914  0.00  0.00    +0.000 NA
ATOM      9  H   UNL     1      48.262   2.974  15.353  0.00  0.00    +0.000 HD
ATOM     10  H   UNL     1      46.731   2.846  15.883  0.00  0.00    +0.000 HD
ENDBRANCH   7   8
ENDBRANCH   1   7
BRANCH   4  11
ATOM     11  C   UNL     1      44.354   3.790  10.306  0.00  0.00    +0.000 C 
BRANCH  11  12
ATOM     12  N   UNL     1      45.258   3.854   9.164  0.00  0.00    +0.000 N 
ATOM     13  C   UNL     1      45.650   5.021   8.555  0.00  0.00    +0.000 A 
ATOM     14  C   UNL     1      46.511   4.698   7.532  0.00  0.00    +0.000 A 
ATOM     15  C   UNL     1      46.631   3.283   7.498  0.00  0.00    +0.000 A 
ATOM     16  C   UNL     1      47.365   2.390   6.692  0.00  0.00    +0.000 A 
ATOM     17  C   UNL     1      47.253   1.014   6.911  0.00  0.00    +0.000 A 
ATOM     18  C   UNL     1      46.404   0.521   7.898  0.00  0.00    +0.000 A 
ATOM     19  C   UNL     1      45.661   1.387   8.704  0.00  0.00    +0.000 A 
ATOM     20  C   UNL     1      45.805   2.770   8.503  0.00  0.00    +0.000 A 
ENDBRANCH  11  12
ENDBRANCH   4  11
TORSDOF 4
ENDMDL
MODEL 5
REMARK VINA RESULT:    -6.348      1.873      6.072
REMARK INTER + INTRA:          -8.118
REMARK INTER:                  -7.565
REMARK INTRA:                  -0.553
REMARK UNBOUND:                -0.472
REMARK  Name = 
REMARK  4 active torsions:
REMARK  status: ('A' for Active; 'I' for Inactive)
REMARK    1  A    between atoms: N_1  and  C_2
REMARK    2  A    between atoms: C_2  and  C_3
REMARK    3  A    between atoms: C_6  and  C_7
REMARK    4  A    between atoms: C_7  and  N_8
REMARK                            x       y       z     vdW  Elec       q    Type
REMARK                         _______ _______ _______ _____ _____    ______ ____
ROOT
ATOM      1  C   UNL     1      46.566   6.032  12.706  0.00  0.00    +0.000 A 
ATOM      2  C   UNL     1      46.788   6.570  11.445  0.00  0.00    +0.000 A 
ATOM      3  C   UNL     1      46.050   6.090  10.365  0.00  0.00    +0.000 A 
ATOM      4  C   UNL     1      45.101   5.083  10.562  0.00  0.00    +0.000 A 
ATOM      5  C   UNL     1      44.927   4.630  11.867  0.00  0.00    +0.000 A 
ATOM      6  N   UNL     1      45.634   5.073  12.931  0.00  0.00    +0.000 NA
ENDROOT
BRANCH   1   7
ATOM      7  C   UNL     1      47.370   6.509  13.899  0.00  0.00    +0.000 C 
BRANCH   7   8
ATOM      8  N   UNL     1      47.771   5.417  14.793  0.00  0.00    +0.000 NA
ATOM      9  H   UNL     1      47.601   4.533  14.312  0.00  0.00    +0.000 HD
ATOM     10  H   UNL     1      47.137   5.420  15.593  0.00  0.00    +0.000 HD
ENDBRANCH   7   8
ENDBRANCH   1   7
BRANCH   4  11
ATOM     11  C   UNL     1      44.307   4.502   9.425  0.00  0.00    +0.000 C 
BRANCH  11  12
ATOM     12  N   UNL     1      44.852   3.232   8.963  0.00  0.00    +0.000 N 
ATOM     13  C   UNL     1      44.441   2.004   9.420  0.00  0.00    +0.000 A 
ATOM     14  C   UNL     1      45.160   1.039   8.754  0.00  0.00    +0.000 A 
ATOM     15  C   UNL     1      46.061   1.700   7.876  0.00  0.00    +0.000 A 
ATOM     16  C   UNL     1      47.022   1.248   6.950  0.00  0.00    +0.000 A 
ATOM     17  C   UNL     1      47.776   2.180   6.230  0.00  0.00    +0.000 A 
ATOM     18  C   UNL     1      47.602   3.544   6.440  0.00  0.00    +0.000 A 
ATOM     19  C   UNL     1      46.660   4.017   7.358  0.00  0.00    +0.000 A 
ATOM     20  C   UNL     1      45.881   3.076   8.052  0.00  0.00    +0.000 A 
ENDBRANCH  11  12
ENDBRANCH   4  11
TORSDOF 4
ENDMDL
MODEL 6
REMARK VINA RESULT:    -6.330      2.492      6.061
REMARK INTER + INTRA:          -8.096
REMARK INTER:                  -7.739
REMARK INTRA:                  -0.358
REMARK UNBOUND:                -0.472
REMARK  Name = 
REMARK  4 active torsions:
REMARK  status: ('A' for Active; 'I' for Inactive)
REMARK    1  A    between atoms: N_1  and  C_2
REMARK    2  A    between atoms: C_2  and  C_3
REMARK    3  A    between atoms: C_6  and  C_7
REMARK    4  A    between atoms: C_7  and  N_8
REMARK                            x       y       z     vdW  Elec       q    Type
REMARK                         _______ _______ _______ _____ _____    ______ ____
ROOT
ATOM      1  C   UNL     1      47.715   7.325  13.876  0.00  0.00    +0.000 A 
ATOM      2  C   UNL     1      47.589   6.039  13.367  0.00  0.00    +0.000 A 
ATOM      3  C   UNL     1      46.495   5.735  12.558  0.00  0.00    +0.000 A 
ATOM      4  C   UNL     1      45.548   6.721  12.269  0.00  0.00    +0.000 A 
ATOM      5  C   UNL     1      45.777   7.988  12.799  0.00  0.00    +0.000 A 
ATOM      6  N   UNL     1      46.825   8.307  13.592  0.00  0.00    +0.000 NA
ENDROOT
BRANCH   1   7
ATOM      7  C   UNL     1      48.876   7.684  14.783  0.00  0.00    +0.000 C 
BRANCH   7   8
ATOM      8  N   UNL     1      50.130   7.031  14.391  0.00  0.00    +0.000 NA
ATOM      9  H   UNL     1      50.751   7.742  14.002  0.00  0.00    +0.000 HD
ATOM     10  H   UNL     1      49.923   6.396  13.620  0.00  0.00    +0.000 HD
ENDBRANCH   7   8
ENDBRANCH   1   7
BRANCH   4  11
ATOM     11  C   UNL     1      44.329   6.436  11.435  0.00  0.00    +0.000 C 
BRANCH  11  12
ATOM     12  N   UNL     1      44.180   5.015  11.145  0.00  0.00    +0.000 N 
ATOM     13  C   UNL     1      43.488   4.134  11.940  0.00  0.00    +0.000 A 
ATOM     14  C   UNL     1      43.545   2.894  11.349  0.00  0.00    +0.000 A 
ATOM     15  C   UNL     1      44.320   3.014  10.164  0.00  0.00    +0.000 A 
ATOM     16  C   UNL     1      44.706   2.104   9.160  0.00  0.00    +0.000 A 
ATOM     17  C   UNL     1      45.503   2.545   8.100  0.00  0.00    +0.000 A 
ATOM     18  C   UNL     1      45.938   3.866   8.044  0.00  0.00    +0.000 A 
ATOM     19  C   UNL     1      45.574   4.785   9.032  0.00  0.00    +0.000 A 
ATOM     20  C   UNL     1      44.742   4.344  10.076  0.00  0.00    +0.000 A 
ENDBRANCH  11  12
ENDBRANCH   4  11
TORSDOF 4
ENDMDL
MODEL 7
REMARK VINA RESULT:    -5.744      4.569      7.555
REMARK INTER + INTRA:          -7.391
REMARK INTER:                  -7.087
REMARK INTRA:                  -0.303
REMARK UNBOUND:                -0.472
REMARK  Name = 
REMARK  4 active torsions:
REMARK  status: ('A' for Active; 'I' for Inactive)
REMARK    1  A    between atoms: N_1  and  C_2
REMARK    2  A    between atoms: C_2  and  C_3
REMARK    3  A    between atoms: C_6  and  C_7
REMARK    4  A    between atoms: C_7  and  N_8
REMARK                            x       y       z     vdW  Elec       q    Type
REMARK                         _______ _______ _______ _____ _____    ______ ____
ROOT
ATOM      1  C   UNL     1      50.581   2.289  17.193  0.00  0.00    +0.000 A 
ATOM      2  C   UNL     1      50.323   3.520  17.785  0.00  0.00    +0.000 A 
ATOM      3  C   UNL     1      49.162   4.207  17.439  0.00  0.00    +0.000 A 
ATOM      4  C   UNL     1      48.277   3.655  16.510  0.00  0.00    +0.000 A 
ATOM      5  C   UNL     1      48.604   2.403  15.995  0.00  0.00    +0.000 A 
ATOM      6  N   UNL     1      49.727   1.718  16.308  0.00  0.00    +0.000 NA
ENDROOT
BRANCH   1   7
ATOM      7  C   UNL     1      51.848   1.526  17.524  0.00  0.00    +0.000 C 
BRANCH   7   8
ATOM      8  N   UNL     1      51.587   0.244  18.188  0.00  0.00    +0.000 NA
ATOM      9  H   UNL     1      50.798   0.368  18.823  0.00  0.00    +0.000 HD
ATOM     10  H   UNL     1      52.388   0.032  18.783  0.00  0.00    +0.000 HD
ENDBRANCH   7   8
ENDBRANCH   1   7
BRANCH   4  11
ATOM     11  C   UNL     1      47.030   4.373  16.072  0.00  0.00    +0.000 C 
BRANCH  11  12
ATOM     12  N   UNL     1      47.261   5.218  14.906  0.00  0.00    +0.000 N 
ATOM     13  C   UNL     1      48.229   6.190  14.837  0.00  0.00    +0.000 A 
ATOM     14  C   UNL     1      48.163   6.766  13.590  0.00  0.00    +0.000 A 
ATOM     15  C   UNL     1      47.102   6.144  12.880  0.00  0.00    +0.000 A 
ATOM     16  C   UNL     1      46.578   6.302  11.581  0.00  0.00    +0.000 A 
ATOM     17  C   UNL     1      45.490   5.522  11.178  0.00  0.00    +0.000 A 
ATOM     18  C   UNL     1      44.909   4.612  12.055  0.00  0.00    +0.000 A 
ATOM     19  C   UNL     1      45.407   4.441  13.349  0.00  0.00    +0.000 A 
ATOM     20  C   UNL     1      46.523   5.203  13.737  0.00  0.00    +0.000 A 
ENDBRANCH  11  12
ENDBRANCH   4  11
TORSDOF 4
ENDMDL
MODEL 8
REMARK VINA RESULT:    -5.643      1.701      2.740
REMARK INTER + INTRA:          -7.270
REMARK INTER:                  -6.726
REMARK INTRA:                  -0.543
REMARK UNBOUND:                -0.472
REMARK  Name = 
REMARK  4 active torsions:
REMARK  status: ('A' for Active; 'I' for Inactive)
REMARK    1  A    between atoms: N_1  and  C_2
REMARK    2  A    between atoms: C_2  and  C_3
REMARK    3  A    between atoms: C_6  and  C_7
REMARK    4  A    between atoms: C_7  and  N_8
REMARK                            x       y       z     vdW  Elec       q    Type
REMARK                         _______ _______ _______ _____ _____    ______ ____
ROOT
ATOM      1  C   UNL     1      45.654   2.892   8.548  0.00  0.00    +0.000 A 
ATOM      2  C   UNL     1      45.924   4.250   8.431  0.00  0.00    +0.000 A 
ATOM      3  C   UNL     1      45.475   5.118   9.424  0.00  0.00    +0.000 A 
ATOM      4  C   UNL     1      44.767   4.615  10.519  0.00  0.00    +0.000 A 
ATOM      5  C   UNL     1      44.574   3.237  10.566  0.00  0.00    +0.000 A 
ATOM      6  N   UNL     1      44.992   2.374   9.612  0.00  0.00    +0.000 NA
ENDROOT
BRANCH   1   7
ATOM      7  C   UNL     1      46.102   1.923   7.472  0.00  0.00    +0.000 C 
BRANCH   7   8
ATOM      8  N   UNL     1      46.503   0.617   8.010  0.00  0.00    +0.000 NA
ATOM      9  H   UNL     1      46.154  -0.107   7.381  0.00  0.00    +0.000 HD
ATOM     10  H   UNL     1      46.008   0.478   8.891  0.00  0.00    +0.000 HD
ENDBRANCH   7   8
ENDBRANCH   1   7
BRANCH   4  11
ATOM     11  C   UNL     1      44.226   5.512  11.599  0.00  0.00    +0.000 C 
BRANCH  11  12
ATOM     12  N   UNL     1      45.231   6.444  12.097  0.00  0.00    +0.000 N 
ATOM     13  C   UNL     1      46.306   6.079  12.871  0.00  0.00    +0.000 A 
ATOM     14  C   UNL     1      47.042   7.210  13.136  0.00  0.00    +0.000 A 
ATOM     15  C   UNL     1      46.383   8.309  12.524  0.00  0.00    +0.000 A 
ATOM     16  C   UNL     1      46.664   9.688  12.443  0.00  0.00    +0.000 A 
ATOM     17  C   UNL     1      45.784  10.531  11.758  0.00  0.00    +0.000 A 
ATOM     18  C   UNL     1      44.624  10.024  11.179  0.00  0.00    +0.000 A 
ATOM     19  C   UNL     1      44.321   8.662  11.252  0.00  0.00    +0.000 A 
ATOM     20  C   UNL     1      45.227   7.814  11.912  0.00  0.00    +0.000 A 
ENDBRANCH  11  12
ENDBRANCH   4  11
TORSDOF 4
ENDMDL
MODEL 9
REMARK VINA RESULT:    -5.447      3.321      5.314
REMARK INTER + INTRA:          -7.033
REMARK INTER:                  -6.515
REMARK INTRA:                  -0.518
REMARK UNBOUND:                -0.472
REMARK  Name = 
REMARK  4 active torsions:
REMARK  status: ('A' for Active; 'I' for Inactive)
REMARK    1  A    between atoms: N_1  and  C_2
REMARK    2  A    between atoms: C_2  and  C_3
REMARK    3  A    between atoms: C_6  and  C_7
REMARK    4  A    between atoms: C_7  and  N_8
REMARK                            x       y       z     vdW  Elec       q    Type
REMARK                         _______ _______ _______ _____ _____    ______ ____
ROOT
ATOM      1  C   UNL     1      44.629   4.079  11.360  0.00  0.00    +0.000 A 
ATOM      2  C   UNL     1      44.723   5.256  10.629  0.00  0.00    +0.000 A 
ATOM      3  C   UNL     1      45.299   6.377  11.223  0.00  0.00    +0.000 A 
ATOM      4  C   UNL     1      45.773   6.304  12.535  0.00  0.00    +0.000 A 
ATOM      5  C   UNL     1      45.664   5.072  13.176  0.00  0.00    +0.000 A 
ATOM      6  N   UNL     1      45.103   3.972  12.626  0.00  0.00    +0.000 NA
ENDROOT
BRANCH   1   7
ATOM      7  C   UNL     1      43.983   2.847  10.757  0.00  0.00    +0.000 C 
BRANCH   7   8
ATOM      8  N   UNL     1      43.055   2.179  11.676  0.00  0.00    +0.000 NA
ATOM      9  H   UNL     1      43.013   2.723  12.538  0.00  0.00    +0.000 HD
ATOM     10  H   UNL     1      43.466   1.282  11.937  0.00  0.00    +0.000 HD
ENDBRANCH   7   8
ENDBRANCH   1   7
BRANCH   4  11
ATOM     11  C   UNL     1      46.367   7.495  13.237  0.00  0.00    +0.000 C 
BRANCH  11  12
ATOM     12  N   UNL     1      47.684   7.841  12.716  0.00  0.00    +0.000 N 
ATOM     13  C   UNL     1      48.782   7.019  12.786  0.00  0.00    +0.000 A 
ATOM     14  C   UNL     1      49.836   7.666  12.183  0.00  0.00    +0.000 A 
ATOM     15  C   UNL     1      49.373   8.938  11.750  0.00  0.00    +0.000 A 
ATOM     16  C   UNL     1      49.981  10.014  11.073  0.00  0.00    +0.000 A 
ATOM     17  C   UNL     1      49.235  11.164  10.797  0.00  0.00    +0.000 A 
ATOM     18  C   UNL     1      47.909  11.262  11.209  0.00  0.00    +0.000 A 
ATOM     19  C   UNL     1      47.287  10.212  11.888  0.00  0.00    +0.000 A 
ATOM     20  C   UNL     1      48.031   9.044  12.130  0.00  0.00    +0.000 A 
ENDBRANCH  11  12
ENDBRANCH   4  11
TORSDOF 4
ENDMDL
