MODEL 1
REMARK VINA RESULT:    -8.327      0.000      0.000
REMARK INTER + INTRA:         -11.537
REMARK INTER:                 -10.762
REMARK INTRA:                  -0.776
REMARK UNBOUND:                -0.776
REMARK  Name = 
REMARK  5 active torsions:
REMARK  status: ('A' for Active; 'I' for Inactive)
REMARK    1  A    between atoms: C_2  and  C_3
REMARK    2  A    between atoms: C_5  and  N_6
REMARK    3  A    between atoms: C_5  and  C_17
REMARK    4  A    between atoms: N_6  and  C_7
REMARK    5  A    between atoms: C_10  and  C_11
REMARK                            x       y       z     vdW  Elec       q    Type
REMARK                         _______ _______ _______ _____ _____    ______ ____
ROOT
ATOM      1  N   UNL     1      44.515   5.430  10.145  0.00  0.00    +0.000 N 
ATOM      2  H   UNL     1      44.016   6.031   9.494  0.00  0.00    +0.000 HD
ENDROOT
BRANCH   1   3
ATOM      3  C   UNL     1      45.098   4.421   9.376  0.00  0.00    +0.000 A 
ATOM      4  N   UNL     1      45.911   4.891   8.400  0.00  0.00    +0.000 NA
ATOM      5  C   UNL     1      46.572   3.991   7.622  0.00  0.00    +0.000 A 
ATOM      6  C   UNL     1      46.482   2.617   7.778  0.00  0.00    +0.000 A 
ATOM      7  C   UNL     1      45.625   2.147   8.774  0.00  0.00    +0.000 A 
ATOM      8  C   UNL     1      44.915   3.052   9.559  0.00  0.00    +0.000 A 
ATOM      9  F   UNL     1      44.083   2.570  10.491  0.00  0.00    +0.000 F 
BRANCH   6  10
ATOM     10  C   UNL     1      47.238   1.640   6.959  0.00  0.00    +0.000 C 
ATOM     11  N   UNL     1      48.269   2.075   6.174  0.00  0.00    +0.000 N 
ATOM     12  O   UNL     1      46.944   0.449   6.980  0.00  0.00    +0.000 OA
ATOM     13  H   UNL     1      48.594   3.020   6.078  0.00  0.00    +0.000 HD
ATOM     14  H   UNL     1      48.752   1.360   5.638  0.00  0.00    +0.000 HD
ENDBRANCH   6  10
ENDBRANCH   1   3
BRANCH   1  17
ATOM     15  C   UNL     1      46.050   5.377  13.126  0.00  0.00    +0.000 C 
ATOM     16  C   UNL     1      44.606   5.142  12.642  0.00  0.00    +0.000 C 
ATOM     17  C   UNL     1      44.912   6.029  11.390  0.00  0.00    +0.000 C 
ATOM     18  C   UNL     1      46.425   5.657  11.656  0.00  0.00    +0.000 C 
BRANCH  17  19
ATOM     19  C   UNL     1      44.532   7.583  11.422  0.00  0.00    +0.000 A 
ATOM     20  C   UNL     1      45.353   8.567  12.003  0.00  0.00    +0.000 A 
ATOM     21  C   UNL     1      45.012   9.919  11.989  0.00  0.00    +0.000 A 
ATOM     22  C   UNL     1      43.834  10.287  11.373  0.00  0.00    +0.000 A 
ATOM     23  N   UNL     1      42.999   9.404  10.797  0.00  0.00    +0.000 NA
ATOM     24  C   UNL     1      43.362   8.096  10.846  0.00  0.00    +0.000 A 
ENDBRANCH  17  19
BRANCH  15  26
ATOM     25  N   UNL     1      47.221   3.313  14.206  0.00  0.00    +0.000 NA
ATOM     26  C   UNL     1      46.698   4.228  13.726  0.00  0.00    +0.000 C 
ENDBRANCH  15  26
ENDBRANCH   1  17
TORSDOF 5
ENDMDL
MODEL 2
REMARK VINA RESULT:    -7.317      0.803      3.846
REMARK INTER + INTRA:         -10.231
REMARK INTER:                  -9.877
REMARK INTRA:                  -0.354
REMARK UNBOUND:                -0.776
REMARK  Name = 
REMARK  5 active torsions:
REMARK  status: ('A' for Active; 'I' for Inactive)
REMARK    1  A    between atoms: C_2  and  C_3
REMARK    2  A    between atoms: C_5  and  N_6
REMARK    3  A    between atoms: C_5  and  C_17
REMARK    4  A    between atoms: N_6  and  C_7
REMARK    5  A    between atoms: C_10  and  C_11
REMARK                            x       y       z     vdW  Elec       q    Type
REMARK                         _______ _______ _______ _____ _____    ______ ____
ROOT
ATOM      1  N   UNL     1      44.348   5.042  10.118  0.00  0.00    +0.000 N 
ATOM      2  H   UNL     1      43.485   5.276   9.635  0.00  0.00    +0.000 HD
ENDROOT
BRANCH   1   3
ATOM      3  C   UNL     1      45.040   4.166   9.279  0.00  0.00    +0.000 A 
ATOM      4  N   UNL     1      45.866   4.796   8.409  0.00  0.00    +0.000 NA
ATOM      5  C   UNL     1      46.628   4.034   7.577  0.00  0.00    +0.000 A 
ATOM      6  C   UNL     1      46.628   2.648   7.577  0.00  0.00    +0.000 A 
ATOM      7  C   UNL     1      45.757   2.014   8.464  0.00  0.00    +0.000 A 
ATOM      8  C   UNL     1      44.945   2.777   9.300  0.00  0.00    +0.000 A 
ATOM      9  F   UNL     1      44.104   2.139  10.123  0.00  0.00    +0.000 F 
BRANCH   6  10
ATOM     10  C   UNL     1      47.492   1.821   6.702  0.00  0.00    +0.000 C 
ATOM     11  N   UNL     1      48.589   2.385   6.113  0.00  0.00    +0.000 N 
ATOM     12  O   UNL     1      47.229   0.640   6.502  0.00  0.00    +0.000 OA
ATOM     13  H   UNL     1      48.898   3.335   6.204  0.00  0.00    +0.000 HD
ATOM     14  H   UNL     1      49.145   1.769   5.527  0.00  0.00    +0.000 HD
ENDBRANCH   6  10
ENDBRANCH   1   3
BRANCH   1  17
ATOM     15  C   UNL     1      44.450   8.098  11.494  0.00  0.00    +0.000 C 
ATOM     16  C   UNL     1      45.320   7.334  10.476  0.00  0.00    +0.000 C 
ATOM     17  C   UNL     1      44.810   5.990  11.095  0.00  0.00    +0.000 C 
ATOM     18  C   UNL     1      43.570   6.835  11.588  0.00  0.00    +0.000 C 
BRANCH  17  19
ATOM     19  C   UNL     1      45.687   5.267  12.221  0.00  0.00    +0.000 A 
ATOM     20  C   UNL     1      46.645   5.938  13.004  0.00  0.00    +0.000 A 
ATOM     21  C   UNL     1      47.374   5.290  14.001  0.00  0.00    +0.000 A 
ATOM     22  C   UNL     1      47.128   3.950  14.218  0.00  0.00    +0.000 A 
ATOM     23  N   UNL     1      46.230   3.242  13.512  0.00  0.00    +0.000 NA
ATOM     24  C   UNL     1      45.552   3.908  12.541  0.00  0.00    +0.000 A 
ENDBRANCH  17  19
BRANCH  15  26
ATOM     25  N   UNL     1      43.260  10.229  10.577  0.00  0.00    +0.000 NA
ATOM     26  C   UNL     1      43.791   9.282  10.982  0.00  0.00    +0.000 C 
ENDBRANCH  15  26
ENDBRANCH   1  17
TORSDOF 5
ENDMDL
MODEL 3
REMARK VINA RESULT:    -6.330      4.532      6.939
REMARK INTER + INTRA:          -8.955
REMARK INTER:                  -8.140
REMARK INTRA:                  -0.816
REMARK UNBOUND:                -0.776
REMARK  Name = 
REMARK  5 active torsions:
REMARK  status: ('A' for Active; 'I' for Inactive)
REMARK    1  A    between atoms: C_2  and  C_3
REMARK    2  A    between atoms: C_5  and  N_6
REMARK    3  A    between atoms: C_5  and  C_17
REMARK    4  A    between atoms: N_6  and  C_7
REMARK    5  A    between atoms: C_10  and  C_11
REMARK                            x       y       z     vdW  Elec       q    Type
REMARK                         _______ _______ _______ _____ _____    ______ ____
ROOT
ATOM      1  N   UNL     1      46.293   4.810  14.977  0.00  0.00    +0.000 N 
ATOM      2  H   UNL     1      45.462   4.543  15.499  0.00  0.00    +0.000 HD
ENDROOT
BRANCH   1   3
ATOM      3  C   UNL     1      47.383   4.323  15.703  0.00  0.00    +0.000 A 
ATOM      4  N   UNL     1      47.518   2.977  15.632  0.00  0.00    +0.000 NA
ATOM      5  C   UNL     1      48.578   2.401  16.262  0.00  0.00    +0.000 A 
ATOM      6  C   UNL     1      49.545   3.109  16.957  0.00  0.00    +0.000 A 
ATOM      7  C   UNL     1      49.382   4.492  17.039  0.00  0.00    +0.000 A 
ATOM      8  C   UNL     1      48.285   5.097  16.429  0.00  0.00    +0.000 A 
ATOM      9  F   UNL     1      48.144   6.423  16.545  0.00  0.00    +0.000 F 
BRANCH   6  10
ATOM     10  C   UNL     1      50.723   2.484  17.603  0.00  0.00    +0.000 C 
ATOM     11  N   UNL     1      51.442   3.194  18.524  0.00  0.00    +0.000 N 
ATOM     12  O   UNL     1      51.057   1.339  17.317  0.00  0.00    +0.000 OA
ATOM     13  H   UNL     1      51.263   4.131  18.833  0.00  0.00    +0.000 HD
ATOM     14  H   UNL     1      52.236   2.712  18.935  0.00  0.00    +0.000 HD
ENDBRANCH   6  10
ENDBRANCH   1   3
BRANCH   1  17
ATOM     15  C   UNL     1      44.824   4.236  12.018  0.00  0.00    +0.000 C 
ATOM     16  C   UNL     1      46.110   3.741  12.708  0.00  0.00    +0.000 C 
ATOM     17  C   UNL     1      46.115   5.046  13.571  0.00  0.00    +0.000 C 
ATOM     18  C   UNL     1      44.564   5.097  13.272  0.00  0.00    +0.000 C 
BRANCH  17  19
ATOM     19  C   UNL     1      46.986   6.298  13.088  0.00  0.00    +0.000 A 
ATOM     20  C   UNL     1      48.367   6.223  12.826  0.00  0.00    +0.000 A 
ATOM     21  C   UNL     1      49.097   7.322  12.376  0.00  0.00    +0.000 A 
ATOM     22  C   UNL     1      48.426   8.511  12.178  0.00  0.00    +0.000 A 
ATOM     23  N   UNL     1      47.110   8.660  12.406  0.00  0.00    +0.000 NA
ATOM     24  C   UNL     1      46.440   7.568  12.858  0.00  0.00    +0.000 A 
ENDBRANCH  17  19
BRANCH  15  26
ATOM     25  N   UNL     1      43.040   2.400  11.524  0.00  0.00    +0.000 NA
ATOM     26  C   UNL     1      43.832   3.215  11.747  0.00  0.00    +0.000 C 
ENDBRANCH  15  26
ENDBRANCH   1  17
TORSDOF 5
ENDMDL
MODEL 4
REMARK VINA RESULT:    -6.006      4.302      7.433
REMARK INTER + INTRA:          -8.537
REMARK INTER:                  -7.610
REMARK INTRA:                  -0.926
REMARK UNBOUND:                -0.776
REMARK  Name = 
REMARK  5 active torsions:
REMARK  status: ('A' for Active; 'I' for Inactive)
REMARK    1  A    between atoms: C_2  and  C_3
REMARK    2  A    between atoms: C_5  and  N_6
REMARK    3  A    between atoms: C_5  and  C_17
REMARK    4  A    between atoms: N_6  and  C_7
REMARK    5  A    between atoms: C_10  and  C_11
REMARK                            x       y       z     vdW  Elec       q    Type
REMARK                         _______ _______ _______ _____ _____    ______ ____
ROOT
ATOM      1  N   UNL     1      47.240   5.240  13.157  0.00  0.00    +0.000 N 
ATOM      2  H   UNL     1      48.113   5.316  12.642  0.00  0.00    +0.000 HD
ENDROOT
BRANCH   1   3
ATOM      3  C   UNL     1      47.588   5.150  14.506  0.00  0.00    +0.000 A 
ATOM      4  N   UNL     1      47.225   3.977  15.078  0.00  0.00    +0.000 NA
ATOM      5  C   UNL     1      47.562   3.763  16.380  0.00  0.00    +0.000 A 
ATOM      6  C   UNL     1      48.275   4.664  17.154  0.00  0.00    +0.000 A 
ATOM      7  C   UNL     1      48.625   5.875  16.558  0.00  0.00    +0.000 A 
ATOM      8  C   UNL     1      48.261   6.127  15.237  0.00  0.00    +0.000 A 
ATOM      9  F   UNL     1      48.591   7.308  14.700  0.00  0.00    +0.000 F 
BRANCH   6  10
ATOM     10  C   UNL     1      48.681   4.408  18.557  0.00  0.00    +0.000 C 
ATOM     11  N   UNL     1      48.342   3.224  19.150  0.00  0.00    +0.000 N 
ATOM     12  O   UNL     1      49.313   5.250  19.187  0.00  0.00    +0.000 OA
ATOM     13  H   UNL     1      47.828   2.470  18.735  0.00  0.00    +0.000 HD
ATOM     14  H   UNL     1      48.649   3.105  20.111  0.00  0.00    +0.000 HD
ENDBRANCH   6  10
ENDBRANCH   1   3
BRANCH   1  17
ATOM     15  C   UNL     1      45.414   7.735  11.858  0.00  0.00    +0.000 C 
ATOM     16  C   UNL     1      45.462   7.018  13.223  0.00  0.00    +0.000 C 
ATOM     17  C   UNL     1      46.069   5.765  12.509  0.00  0.00    +0.000 C 
ATOM     18  C   UNL     1      46.536   6.784  11.395  0.00  0.00    +0.000 C 
BRANCH  17  19
ATOM     19  C   UNL     1      45.095   4.583  12.046  0.00  0.00    +0.000 A 
ATOM     20  C   UNL     1      44.973   4.162  10.708  0.00  0.00    +0.000 A 
ATOM     21  C   UNL     1      44.140   3.107  10.336  0.00  0.00    +0.000 A 
ATOM     22  C   UNL     1      43.428   2.461  11.325  0.00  0.00    +0.000 A 
ATOM     23  N   UNL     1      43.494   2.805  12.623  0.00  0.00    +0.000 NA
ATOM     24  C   UNL     1      44.305   3.847  12.940  0.00  0.00    +0.000 A 
ENDBRANCH  17  19
BRANCH  15  26
ATOM     25  N   UNL     1      46.032  10.267  11.910  0.00  0.00    +0.000 NA
ATOM     26  C   UNL     1      45.760   9.142  11.884  0.00  0.00    +0.000 C 
ENDBRANCH  15  26
ENDBRANCH   1  17
TORSDOF 5
ENDMDL
MODEL 5
REMARK VINA RESULT:    -5.978      3.728      6.014
REMARK INTER + INTRA:          -8.501
REMARK INTER:                  -7.827
REMARK INTRA:                  -0.674
REMARK UNBOUND:                -0.776
REMARK  Name = 
REMARK  5 active torsions:
REMARK  status: ('A' for Active; 'I' for Inactive)
REMARK    1  A    between atoms: C_2  and  C_3
REMARK    2  A    between atoms: C_5  and  N_6
REMARK    3  A    between atoms: C_5  and  C_17
REMARK    4  A    between atoms: N_6  and  C_7
REMARK    5  A    between atoms: C_10  and  C_11
REMARK                            x       y       z     vdW  Elec       q    Type
REMARK                         _______ _______ _______ _____ _____    ______ ____
ROOT
ATOM      1  N   UNL     1      46.736   7.113  13.713  0.00  0.00    +0.000 N 
ATOM      2  H   UNL     1      45.996   7.703  14.084  0.00  0.00    +0.000 HD
ENDROOT
BRANCH   1   3
ATOM      3  C   UNL     1      46.106   6.144  12.930  0.00  0.00    +0.000 A 
ATOM      4  N   UNL     1      46.226   4.890  13.428  0.00  0.00    +0.000 NA
ATOM      5  C   UNL     1      45.606   3.873  12.770  0.00  0.00    +0.000 A 
ATOM      6  C   UNL     1      44.838   4.041  11.629  0.00  0.00    +0.000 A 
ATOM      7  C   UNL     1      44.740   5.335  11.116  0.00  0.00    +0.000 A 
ATOM      8  C   UNL     1      45.395   6.384  11.757  0.00  0.00    +0.000 A 
ATOM      9  F   UNL     1      45.302   7.610  11.227  0.00  0.00    +0.000 F 
BRANCH   6  10
ATOM     10  C   UNL     1      44.126   2.938  10.941  0.00  0.00    +0.000 C 
ATOM     11  N   UNL     1      44.708   2.330   9.864  0.00  0.00    +0.000 N 
ATOM     12  O   UNL     1      43.022   2.572  11.328  0.00  0.00    +0.000 OA
ATOM     13  H   UNL     1      45.601   2.547   9.462  0.00  0.00    +0.000 HD
ATOM     14  H   UNL     1      44.175   1.579   9.435  0.00  0.00    +0.000 HD
ENDBRANCH   6  10
ENDBRANCH   1   3
BRANCH   1  17
ATOM     15  C   UNL     1      48.928   9.334  12.485  0.00  0.00    +0.000 C 
ATOM     16  C   UNL     1      48.562   7.872  12.159  0.00  0.00    +0.000 C 
ATOM     17  C   UNL     1      48.042   7.708  13.626  0.00  0.00    +0.000 C 
ATOM     18  C   UNL     1      47.870   9.278  13.606  0.00  0.00    +0.000 C 
BRANCH  17  19
ATOM     19  C   UNL     1      49.020   7.101  14.738  0.00  0.00    +0.000 A 
ATOM     20  C   UNL     1      50.349   7.528  14.914  0.00  0.00    +0.000 A 
ATOM     21  C   UNL     1      51.170   7.004  15.912  0.00  0.00    +0.000 A 
ATOM     22  C   UNL     1      50.643   6.043  16.750  0.00  0.00    +0.000 A 
ATOM     23  N   UNL     1      49.383   5.586  16.644  0.00  0.00    +0.000 NA
ATOM     24  C   UNL     1      48.622   6.112  15.649  0.00  0.00    +0.000 A 
ENDBRANCH  17  19
BRANCH  15  26
ATOM     25  N   UNL     1      48.456  11.048  10.577  0.00  0.00    +0.000 NA
ATOM     26  C   UNL     1      48.665  10.289  11.427  0.00  0.00    +0.000 C 
ENDBRANCH  15  26
ENDBRANCH   1  17
TORSDOF 5
ENDMDL
MODEL 6
REMARK VINA RESULT:    -5.915      3.957      6.118
REMARK INTER + INTRA:          -8.420
REMARK INTER:                  -7.891
REMARK INTRA:                  -0.528
REMARK UNBOUND:                -0.776
REMARK  Name = 
REMARK  5 active torsions:
REMARK  status: ('A' for Active; 'I' for Inactive)
REMARK    1  A    between atoms: C_2  and  C_3
REMARK    2  A    between atoms: C_5  and  N_6
REMARK    3  A    between atoms: C_5  and  C_17
REMARK    4  A    between atoms: N_6  and  C_7
REMARK    5  A    between atoms: C_10  and  C_11
REMARK                            x       y       z     vdW  Elec       q    Type
REMARK                         _______ _______ _______ _____ _____    ______ ____
ROOT
ATOM      1  N   UNL     1      47.102   6.036  12.687  0.00  0.00    +0.000 N 
ATOM      2  H   UNL     1      47.885   6.650  12.473  0.00  0.00    +0.000 HD
ENDROOT
BRANCH   1   3
ATOM      3  C   UNL     1      47.405   5.432  13.909  0.00  0.00    +0.000 A 
ATOM      4  N   UNL     1      47.981   6.276  14.798  0.00  0.00    +0.000 NA
ATOM      5  C   UNL     1      48.271   5.802  16.041  0.00  0.00    +0.000 A 
ATOM      6  C   UNL     1      47.994   4.512  16.464  0.00  0.00    +0.000 A 
ATOM      7  C   UNL     1      47.419   3.649  15.532  0.00  0.00    +0.000 A 
ATOM      8  C   UNL     1      47.145   4.105  14.244  0.00  0.00    +0.000 A 
ATOM      9  F   UNL     1      46.614   3.246  13.365  0.00  0.00    +0.000 F 
BRANCH   6  10
ATOM     10  C   UNL     1      48.269   4.014  17.833  0.00  0.00    +0.000 C 
ATOM     11  N   UNL     1      47.583   4.540  18.891  0.00  0.00    +0.000 N 
ATOM     12  O   UNL     1      49.107   3.138  18.021  0.00  0.00    +0.000 OA
ATOM     13  H   UNL     1      46.881   5.257  18.856  0.00  0.00    +0.000 HD
ATOM     14  H   UNL     1      47.812   4.157  19.804  0.00  0.00    +0.000 HD
ENDBRANCH   6  10
ENDBRANCH   1   3
BRANCH   1  17
ATOM     15  C   UNL     1      44.057   5.258  11.518  0.00  0.00    +0.000 C 
ATOM     16  C   UNL     1      45.456   5.419  10.889  0.00  0.00    +0.000 C 
ATOM     17  C   UNL     1      45.846   6.366  12.072  0.00  0.00    +0.000 C 
ATOM     18  C   UNL     1      44.697   5.631  12.871  0.00  0.00    +0.000 C 
BRANCH  17  19
ATOM     19  C   UNL     1      45.700   7.949  11.887  0.00  0.00    +0.000 A 
ATOM     20  C   UNL     1      44.547   8.562  11.362  0.00  0.00    +0.000 A 
ATOM     21  C   UNL     1      44.434   9.947  11.240  0.00  0.00    +0.000 A 
ATOM     22  C   UNL     1      45.493  10.725  11.661  0.00  0.00    +0.000 A 
ATOM     23  N   UNL     1      46.625  10.212  12.173  0.00  0.00    +0.000 NA
ATOM     24  C   UNL     1      46.699   8.858  12.260  0.00  0.00    +0.000 A 
ENDBRANCH  17  19
BRANCH  15  26
ATOM     25  N   UNL     1      43.040   2.862  11.374  0.00  0.00    +0.000 NA
ATOM     26  C   UNL     1      43.493   3.925  11.441  0.00  0.00    +0.000 C 
ENDBRANCH  15  26
ENDBRANCH   1  17
TORSDOF 5
ENDMDL
MODEL 7
REMARK VINA RESULT:    -5.594      3.981      6.422
REMARK INTER + INTRA:          -8.005
REMARK INTER:                  -7.108
REMARK INTRA:                  -0.897
REMARK UNBOUND:                -0.776
REMARK  Name = 
REMARK  5 active torsions:
REMARK  status: ('A' for Active; 'I' for Inactive)
REMARK    1  A    between atoms: C_2  and  C_3
REMARK    2  A    between atoms: C_5  and  N_6
REMARK    3  A    between atoms: C_5  and  C_17
REMARK    4  A    between atoms: N_6  and  C_7
REMARK    5  A    between atoms: C_10  and  C_11
REMARK                            x       y       z     vdW  Elec       q    Type
REMARK                         _______ _______ _______ _____ _____    ______ ____
ROOT
ATOM      1  N   UNL     1      48.247   6.571  12.600  0.00  0.00    +0.000 N 
ATOM      2  H   UNL     1      48.850   5.773  12.782  0.00  0.00    +0.000 HD
ENDROOT
BRANCH   1   3
ATOM      3  C   UNL     1      46.956   6.058  12.455  0.00  0.00    +0.000 A 
ATOM      4  N   UNL     1      46.406   6.322  11.245  0.00  0.00    +0.000 NA
ATOM      5  C   UNL     1      45.168   5.825  10.978  0.00  0.00    +0.000 A 
ATOM      6  C   UNL     1      44.438   5.043  11.860  0.00  0.00    +0.000 A 
ATOM      7  C   UNL     1      45.009   4.797  13.109  0.00  0.00    +0.000 A 
ATOM      8  C   UNL     1      46.261   5.325  13.414  0.00  0.00    +0.000 A 
ATOM      9  F   UNL     1      46.771   5.090  14.629  0.00  0.00    +0.000 F 
BRANCH   6  10
ATOM     10  C   UNL     1      43.110   4.464  11.548  0.00  0.00    +0.000 C 
ATOM     11  N   UNL     1      42.000   5.260  11.600  0.00  0.00    +0.000 N 
ATOM     12  O   UNL     1      43.001   3.281  11.247  0.00  0.00    +0.000 OA
ATOM     13  H   UNL     1      41.970   6.235  11.835  0.00  0.00    +0.000 HD
ATOM     14  H   UNL     1      41.118   4.809  11.374  0.00  0.00    +0.000 HD
ENDBRANCH   6  10
ENDBRANCH   1   3
BRANCH   1  17
ATOM     15  C   UNL     1      48.116   9.917  12.777  0.00  0.00    +0.000 C 
ATOM     16  C   UNL     1      48.906   8.902  11.926  0.00  0.00    +0.000 C 
ATOM     17  C   UNL     1      48.718   7.847  13.066  0.00  0.00    +0.000 C 
ATOM     18  C   UNL     1      47.466   8.712  13.488  0.00  0.00    +0.000 C 
BRANCH  17  19
ATOM     19  C   UNL     1      49.873   7.663  14.158  0.00  0.00    +0.000 A 
ATOM     20  C   UNL     1      49.706   6.921  15.342  0.00  0.00    +0.000 A 
ATOM     21  C   UNL     1      50.740   6.750  16.262  0.00  0.00    +0.000 A 
ATOM     22  C   UNL     1      51.961   7.328  15.983  0.00  0.00    +0.000 A 
ATOM     23  N   UNL     1      52.196   8.050  14.874  0.00  0.00    +0.000 NA
ATOM     24  C   UNL     1      51.158   8.203  14.011  0.00  0.00    +0.000 A 
ENDBRANCH  17  19
BRANCH  15  26
ATOM     25  N   UNL     1      46.476  11.451  11.452  0.00  0.00    +0.000 NA
ATOM     26  C   UNL     1      47.207  10.771  12.039  0.00  0.00    +0.000 C 
ENDBRANCH  15  26
ENDBRANCH   1  17
TORSDOF 5
ENDMDL
MODEL 8
REMARK VINA RESULT:    -5.549      4.411      5.911
REMARK INTER + INTRA:          -7.947
REMARK INTER:                  -7.012
REMARK INTRA:                  -0.935
REMARK UNBOUND:                -0.776
REMARK  Name = 
REMARK  5 active torsions:
REMARK  status: ('A' for Active; 'I' for Inactive)
REMARK    1  A    between atoms: C_2  and  C_3
REMARK    2  A    between atoms: C_5  and  N_6
REMARK    3  A    between atoms: C_5  and  C_17
REMARK    4  A    between atoms: N_6  and  C_7
REMARK    5  A    between atoms: C_10  and  C_11
REMARK                            x       y       z     vdW  Elec       q    Type
REMARK                         _______ _______ _______ _____ _____    ______ ____
ROOT
ATOM      1  N   UNL     1      48.410   6.578  12.850  0.00  0.00    +0.000 N 
ATOM      2  H   UNL     1      48.950   5.717  12.880  0.00  0.00    +0.000 HD
ENDROOT
BRANCH   1   3
ATOM      3  C   UNL     1      47.080   6.199  12.658  0.00  0.00    +0.000 A 
ATOM      4  N   UNL     1      46.533   6.707  11.528  0.00  0.00    +0.000 NA
ATOM      5  C   UNL     1      45.255   6.359  11.217  0.00  0.00    +0.000 A 
ATOM      6  C   UNL     1      44.480   5.496  11.976  0.00  0.00    +0.000 A 
ATOM      7  C   UNL     1      45.048   4.997  13.147  0.00  0.00    +0.000 A 
ATOM      8  C   UNL     1      46.344   5.368  13.500  0.00  0.00    +0.000 A 
ATOM      9  F   UNL     1      46.854   4.890  14.642  0.00  0.00    +0.000 F 
BRANCH   6  10
ATOM     10  C   UNL     1      43.104   5.083  11.611  0.00  0.00    +0.000 C 
ATOM     11  N   UNL     1      42.081   5.985  11.710  0.00  0.00    +0.000 N 
ATOM     12  O   UNL     1      42.878   3.942  11.223  0.00  0.00    +0.000 OA
ATOM     13  H   UNL     1      42.149   6.938  12.015  0.00  0.00    +0.000 HD
ATOM     14  H   UNL     1      41.162   5.645  11.444  0.00  0.00    +0.000 HD
ENDBRANCH   6  10
ENDBRANCH   1   3
BRANCH   1  17
ATOM     15  C   UNL     1      49.171   8.389  15.568  0.00  0.00    +0.000 C 
ATOM     16  C   UNL     1      48.032   8.411  14.530  0.00  0.00    +0.000 C 
ATOM     17  C   UNL     1      48.991   7.718  13.506  0.00  0.00    +0.000 C 
ATOM     18  C   UNL     1      49.774   7.208  14.780  0.00  0.00    +0.000 C 
BRANCH  17  19
ATOM     19  C   UNL     1      49.807   8.620  12.467  0.00  0.00    +0.000 A 
ATOM     20  C   UNL     1      49.247   9.720  11.792  0.00  0.00    +0.000 A 
ATOM     21  C   UNL     1      49.990  10.509  10.915  0.00  0.00    +0.000 A 
ATOM     22  C   UNL     1      51.318  10.191  10.721  0.00  0.00    +0.000 A 
ATOM     23  N   UNL     1      51.923   9.156  11.329  0.00  0.00    +0.000 NA
ATOM     24  C   UNL     1      51.159   8.405  12.165  0.00  0.00    +0.000 A 
ENDBRANCH  17  19
BRANCH  15  26
ATOM     25  N   UNL     1      48.449   7.852  18.015  0.00  0.00    +0.000 NA
ATOM     26  C   UNL     1      48.767   8.090  16.927  0.00  0.00    +0.000 C 
ENDBRANCH  15  26
ENDBRANCH   1  17
TORSDOF 5
ENDMDL
MODEL 9
REMARK VINA RESULT:    -5.467      5.044      7.921
REMARK INTER + INTRA:          -7.841
REMARK INTER:                  -6.998
REMARK INTRA:                  -0.842
REMARK UNBOUND:                -0.776
REMARK  Name = 
REMARK  5 active torsions:
REMARK  status: ('A' for Active; 'I' for Inactive)
REMARK    1  A    between atoms: C_2  and  C_3
REMARK    2  A    between atoms: C_5  and  N_6
REMARK    3  A    between atoms: C_5  and  C_17
REMARK    4  A    between atoms: N_6  and  C_7
REMARK    5  A    between atoms: C_10  and  C_11
REMARK                            x       y       z     vdW  Elec       q    Type
REMARK                         _______ _______ _______ _____ _____    ______ ____
ROOT
ATOM      1  N   UNL     1      47.850   6.929  15.085  0.00  0.00    +0.000 N 
ATOM      2  H   UNL     1      47.040   7.126  15.669  0.00  0.00    +0.000 HD
ENDROOT
BRANCH   1   3
ATOM      3  C   UNL     1      48.751   6.231  15.892  0.00  0.00    +0.000 A 
ATOM      4  N   UNL     1      48.283   5.030  16.308  0.00  0.00    +0.000 NA
ATOM      5  C   UNL     1      49.102   4.244  17.059  0.00  0.00    +0.000 A 
ATOM      6  C   UNL     1      50.398   4.586  17.409  0.00  0.00    +0.000 A 
ATOM      7  C   UNL     1      50.860   5.834  16.991  0.00  0.00    +0.000 A 
ATOM      8  C   UNL     1      50.025   6.667  16.249  0.00  0.00    +0.000 A 
ATOM      9  F   UNL     1      50.489   7.868  15.882  0.00  0.00    +0.000 F 
BRANCH   6  10
ATOM     10  C   UNL     1      51.303   3.708  18.188  0.00  0.00    +0.000 C 
ATOM     11  N   UNL     1      51.709   4.096  19.435  0.00  0.00    +0.000 N 
ATOM     12  O   UNL     1      51.689   2.641  17.723  0.00  0.00    +0.000 OA
ATOM     13  H   UNL     1      51.459   4.942  19.911  0.00  0.00    +0.000 HD
ATOM     14  H   UNL     1      52.326   3.452  19.922  0.00  0.00    +0.000 HD
ENDBRANCH   6  10
ENDBRANCH   1   3
BRANCH   1  17
ATOM     15  C   UNL     1      48.612   7.747  11.924  0.00  0.00    +0.000 C 
ATOM     16  C   UNL     1      47.658   8.314  12.995  0.00  0.00    +0.000 C 
ATOM     17  C   UNL     1      47.622   6.901  13.666  0.00  0.00    +0.000 C 
ATOM     18  C   UNL     1      49.009   6.664  12.948  0.00  0.00    +0.000 C 
BRANCH  17  19
ATOM     19  C   UNL     1      46.435   5.892  13.300  0.00  0.00    +0.000 A 
ATOM     20  C   UNL     1      45.163   6.319  12.872  0.00  0.00    +0.000 A 
ATOM     21  C   UNL     1      44.156   5.417  12.529  0.00  0.00    +0.000 A 
ATOM     22  C   UNL     1      44.435   4.069  12.607  0.00  0.00    +0.000 A 
ATOM     23  N   UNL     1      45.625   3.586  13.006  0.00  0.00    +0.000 NA
ATOM     24  C   UNL     1      46.573   4.498  13.345  0.00  0.00    +0.000 A 
ENDBRANCH  17  19
BRANCH  15  26
ATOM     25  N   UNL     1      50.531   9.346  11.176  0.00  0.00    +0.000 NA
ATOM     26  C   UNL     1      49.680   8.636  11.512  0.00  0.00    +0.000 C 
ENDBRANCH  15  26
ENDBRANCH   1  17
TORSDOF 5
ENDMDL
