MODEL 1
REMARK VINA RESULT:    -8.020      0.000      0.000
REMARK INTER + INTRA:         -11.909
REMARK INTER:                 -10.833
REMARK INTRA:                  -1.077
REMARK UNBOUND:                -1.077
REMARK  Name = 
REMARK  7 active torsions:
REMARK  status: ('A' for Active; 'I' for Inactive)
REMARK    1  A    between atoms: C_1  and  N_2
REMARK    2  A    between atoms: N_2  and  C_3
REMARK    3  A    between atoms: C_3  and  C_4
REMARK    4  A    between atoms: C_7  and  C_8
REMARK    5  A    between atoms: C_8  and  N_9
REMARK    6  A    between atoms: C_10  and  C_12
REMARK    7  A    between atoms: C_24  and  C_26
REMARK                            x       y       z     vdW  Elec       q    Type
REMARK                         _______ _______ _______ _____ _____    ______ ____
ROOT
ATOM      1  C   UNL     1      46.378   4.496  13.340  0.00  0.00    +0.000 A 
ATOM      2  C   UNL     1      46.923   5.718  12.919  0.00  0.00    +0.000 A 
ATOM      3  C   UNL     1      47.759   6.452  13.763  0.00  0.00    +0.000 A 
ATOM      4  C   UNL     1      48.075   5.972  15.040  0.00  0.00    +0.000 A 
ATOM      5  C   UNL     1      47.507   4.765  15.470  0.00  0.00    +0.000 A 
ATOM      6  C   UNL     1      46.675   4.027  14.625  0.00  0.00    +0.000 A 
ENDROOT
BRANCH   1   7
ATOM      7  C   UNL     1      45.457   3.721  12.434  0.00  0.00    +0.000 C 
BRANCH   7   9
ATOM      8  C   UNL     1      43.248   4.663  13.255  0.00  0.00    +0.000 C 
ATOM      9  N   UNL     1      44.120   4.262  12.161  0.00  0.00    +0.000 N 
ATOM     10  C   UNL     1      43.740   4.695  10.877  0.00  0.00    +0.000 C 
ATOM     11  O   UNL     1      42.747   5.404  10.723  0.00  0.00    +0.000 OA
BRANCH  10  12
ATOM     12  C   UNL     1      44.556   4.350   9.735  0.00  0.00    +0.000 A 
ATOM     13  C   UNL     1      44.706   3.231   8.936  0.00  0.00    +0.000 A 
ATOM     14  C   UNL     1      45.713   3.557   8.012  0.00  0.00    +0.000 A 
ATOM     15  N   UNL     1      46.142   4.809   8.156  0.00  0.00    +0.000 NA
ATOM     16  N   UNL     1      45.383   5.287   9.158  0.00  0.00    +0.000 N 
ATOM     17  H   UNL     1      45.490   6.260   9.437  0.00  0.00    +0.000 HD
ENDBRANCH  10  12
ENDBRANCH   7   9
ENDBRANCH   1   7
BRANCH   4  18
ATOM     18  C   UNL     1      48.991   6.745  15.950  0.00  0.00    +0.000 C 
BRANCH  18  19
ATOM     19  N   UNL     1      50.071   5.925  16.434  0.00  0.00    +0.000 N 
ATOM     20  C   UNL     1      50.129   5.549  17.752  0.00  0.00    +0.000 C 
ATOM     21  O   UNL     1      49.255   5.863  18.555  0.00  0.00    +0.000 OA
ATOM     22  H   UNL     1      50.905   5.862  15.858  0.00  0.00    +0.000 HD
BRANCH  20  23
ATOM     23  C   UNL     1      51.255   4.694  18.143  0.00  0.00    +0.000 A 
ATOM     24  C   UNL     1      52.317   5.240  18.853  0.00  0.00    +0.000 A 
ATOM     25  S   UNL     1      53.513   4.103  19.277  0.00  0.00    +0.000 S 
ATOM     26  C   UNL     1      52.683   2.850  18.481  0.00  0.00    +0.000 A 
ATOM     27  N   UNL     1      53.191   1.589  18.439  0.00  0.00    +0.000 NA
ATOM     28  C   UNL     1      52.477   0.748  17.771  0.00  0.00    +0.000 A 
ATOM     29  N   UNL     1      51.294   1.050  17.146  0.00  0.00    +0.000 N 
ATOM     30  C   UNL     1      50.725   2.301  17.190  0.00  0.00    +0.000 A 
ATOM     31  O   UNL     1      49.639   2.525  16.664  0.00  0.00    +0.000 OA
ATOM     32  C   UNL     1      51.498   3.289  17.915  0.00  0.00    +0.000 A 
ATOM     33  H   UNL     1      50.779   0.341  16.646  0.00  0.00    +0.000 HD
ENDBRANCH  20  23
ENDBRANCH  18  19
ENDBRANCH   4  18
TORSDOF 6
ENDMDL
MODEL 2
REMARK VINA RESULT:    -7.406      2.583      3.159
REMARK INTER + INTRA:         -11.080
REMARK INTER:                 -10.134
REMARK INTRA:                  -0.946
REMARK UNBOUND:                -1.077
REMARK  Name = 
REMARK  7 active torsions:
REMARK  status: ('A' for Active; 'I' for Inactive)
REMARK    1  A    between atoms: C_1  and  N_2
REMARK    2  A    between atoms: N_2  and  C_3
REMARK    3  A    between atoms: C_3  and  C_4
REMARK    4  A    between atoms: C_7  and  C_8
REMARK    5  A    between atoms: C_8  and  N_9
REMARK    6  A    between atoms: C_10  and  C_12
REMARK    7  A    between atoms: C_24  and  C_26
REMARK                            x       y       z     vdW  Elec       q    Type
REMARK                         _______ _______ _______ _____ _____    ______ ____
ROOT
ATOM      1  C   UNL     1      45.500   6.622  11.708  0.00  0.00    +0.000 A 
ATOM      2  C   UNL     1      45.300   7.898  12.254  0.00  0.00    +0.000 A 
ATOM      3  C   UNL     1      46.338   8.561  12.912  0.00  0.00    +0.000 A 
ATOM      4  C   UNL     1      47.600   7.964  13.026  0.00  0.00    +0.000 A 
ATOM      5  C   UNL     1      47.790   6.676  12.506  0.00  0.00    +0.000 A 
ATOM      6  C   UNL     1      46.754   6.015  11.843  0.00  0.00    +0.000 A 
ENDROOT
BRANCH   1   7
ATOM      7  C   UNL     1      44.368   5.902  11.021  0.00  0.00    +0.000 C 
BRANCH   7   9
ATOM      8  C   UNL     1      43.020   4.823  12.881  0.00  0.00    +0.000 C 
ATOM      9  N   UNL     1      43.803   4.708  11.659  0.00  0.00    +0.000 N 
ATOM     10  C   UNL     1      43.725   3.473  10.990  0.00  0.00    +0.000 C 
ATOM     11  O   UNL     1      42.997   2.575  11.413  0.00  0.00    +0.000 OA
BRANCH  10  12
ATOM     12  C   UNL     1      44.462   3.276   9.763  0.00  0.00    +0.000 A 
ATOM     13  C   UNL     1      44.684   4.021   8.619  0.00  0.00    +0.000 A 
ATOM     14  C   UNL     1      45.473   3.210   7.785  0.00  0.00    +0.000 A 
ATOM     15  N   UNL     1      45.792   2.054   8.364  0.00  0.00    +0.000 NA
ATOM     16  N   UNL     1      45.226   2.146   9.580  0.00  0.00    +0.000 N 
ATOM     17  H   UNL     1      45.364   1.388  10.247  0.00  0.00    +0.000 HD
ENDBRANCH  10  12
ENDBRANCH   7   9
ENDBRANCH   1   7
BRANCH   4  18
ATOM     18  C   UNL     1      48.731   8.678  13.715  0.00  0.00    +0.000 C 
BRANCH  18  19
ATOM     19  N   UNL     1      49.161   7.975  14.895  0.00  0.00    +0.000 N 
ATOM     20  C   UNL     1      48.716   8.352  16.136  0.00  0.00    +0.000 C 
ATOM     21  O   UNL     1      47.916   9.272  16.288  0.00  0.00    +0.000 OA
ATOM     22  H   UNL     1      49.985   7.387  14.815  0.00  0.00    +0.000 HD
BRANCH  20  23
ATOM     23  C   UNL     1      49.192   7.557  17.275  0.00  0.00    +0.000 A 
ATOM     24  C   UNL     1      49.850   8.187  18.323  0.00  0.00    +0.000 A 
ATOM     25  S   UNL     1      50.285   7.133  19.590  0.00  0.00    +0.000 S 
ATOM     26  C   UNL     1      49.659   5.788  18.758  0.00  0.00    +0.000 A 
ATOM     27  N   UNL     1      49.736   4.539  19.290  0.00  0.00    +0.000 NA
ATOM     28  C   UNL     1      49.257   3.608  18.536  0.00  0.00    +0.000 A 
ATOM     29  N   UNL     1      48.697   3.812  17.301  0.00  0.00    +0.000 N 
ATOM     30  C   UNL     1      48.565   5.060  16.739  0.00  0.00    +0.000 A 
ATOM     31  O   UNL     1      48.013   5.215  15.654  0.00  0.00    +0.000 OA
ATOM     32  C   UNL     1      49.107   6.141  17.538  0.00  0.00    +0.000 A 
ATOM     33  H   UNL     1      48.331   3.040  16.766  0.00  0.00    +0.000 HD
ENDBRANCH  20  23
ENDBRANCH  18  19
ENDBRANCH   4  18
TORSDOF 6
ENDMDL
MODEL 3
REMARK VINA RESULT:    -7.184      3.292      8.587
REMARK INTER + INTRA:         -10.781
REMARK INTER:                  -9.818
REMARK INTRA:                  -0.963
REMARK UNBOUND:                -1.077
REMARK  Name = 
REMARK  7 active torsions:
REMARK  status: ('A' for Active; 'I' for Inactive)
REMARK    1  A    between atoms: C_1  and  N_2
REMARK    2  A    between atoms: N_2  and  C_3
REMARK    3  A    between atoms: C_3  and  C_4
REMARK    4  A    between atoms: C_7  and  C_8
REMARK    5  A    between atoms: C_8  and  N_9
REMARK    6  A    between atoms: C_10  and  C_12
REMARK    7  A    between atoms: C_24  and  C_26
REMARK                            x       y       z     vdW  Elec       q    Type
REMARK                         _______ _______ _______ _____ _____    ______ ____
ROOT
ATOM      1  C   UNL     1      50.024   6.651  15.974  0.00  0.00    +0.000 A 
ATOM      2  C   UNL     1      48.726   6.269  15.603  0.00  0.00    +0.000 A 
ATOM      3  C   UNL     1      48.194   6.659  14.372  0.00  0.00    +0.000 A 
ATOM      4  C   UNL     1      48.955   7.430  13.485  0.00  0.00    +0.000 A 
ATOM      5  C   UNL     1      50.241   7.836  13.870  0.00  0.00    +0.000 A 
ATOM      6  C   UNL     1      50.775   7.442  15.098  0.00  0.00    +0.000 A 
ENDROOT
BRANCH   1   7
ATOM      7  C   UNL     1      50.581   6.247  17.315  0.00  0.00    +0.000 C 
BRANCH   7   9
ATOM      8  C   UNL     1      49.013   7.026  19.153  0.00  0.00    +0.000 C 
ATOM      9  N   UNL     1      49.645   5.948  18.405  0.00  0.00    +0.000 N 
ATOM     10  C   UNL     1      49.089   4.668  18.579  0.00  0.00    +0.000 C 
ATOM     11  O   UNL     1      48.102   4.504  19.295  0.00  0.00    +0.000 OA
BRANCH  10  12
ATOM     12  C   UNL     1      49.648   3.542  17.866  0.00  0.00    +0.000 A 
ATOM     13  C   UNL     1      50.851   2.859  17.894  0.00  0.00    +0.000 A 
ATOM     14  C   UNL     1      50.752   1.875  16.897  0.00  0.00    +0.000 A 
ATOM     15  N   UNL     1      49.557   1.874  16.308  0.00  0.00    +0.000 NA
ATOM     16  N   UNL     1      48.889   2.844  16.955  0.00  0.00    +0.000 N 
ATOM     17  H   UNL     1      47.915   3.017  16.714  0.00  0.00    +0.000 HD
ENDBRANCH  10  12
ENDBRANCH   7   9
ENDBRANCH   1   7
BRANCH   4  18
ATOM     18  C   UNL     1      48.400   7.839  12.147  0.00  0.00    +0.000 C 
BRANCH  18  19
ATOM     19  N   UNL     1      47.677   6.763  11.522  0.00  0.00    +0.000 N 
ATOM     20  C   UNL     1      46.306   6.772  11.478  0.00  0.00    +0.000 C 
ATOM     21  O   UNL     1      45.648   7.704  11.933  0.00  0.00    +0.000 OA
ATOM     22  H   UNL     1      48.178   5.893  11.363  0.00  0.00    +0.000 HD
BRANCH  20  23
ATOM     23  C   UNL     1      45.663   5.642  10.798  0.00  0.00    +0.000 A 
ATOM     24  C   UNL     1      45.766   5.524   9.417  0.00  0.00    +0.000 A 
ATOM     25  S   UNL     1      45.013   4.129   8.792  0.00  0.00    +0.000 S 
ATOM     26  C   UNL     1      44.475   3.661  10.336  0.00  0.00    +0.000 A 
ATOM     27  N   UNL     1      43.727   2.537  10.506  0.00  0.00    +0.000 NA
ATOM     28  C   UNL     1      43.356   2.322  11.723  0.00  0.00    +0.000 A 
ATOM     29  N   UNL     1      43.671   3.124  12.789  0.00  0.00    +0.000 N 
ATOM     30  C   UNL     1      44.452   4.250  12.671  0.00  0.00    +0.000 A 
ATOM     31  O   UNL     1      44.759   4.918  13.654  0.00  0.00    +0.000 OA
ATOM     32  C   UNL     1      44.881   4.547  11.320  0.00  0.00    +0.000 A 
ATOM     33  H   UNL     1      43.356   2.894  13.720  0.00  0.00    +0.000 HD
ENDBRANCH  20  23
ENDBRANCH  18  19
ENDBRANCH   4  18
TORSDOF 6
ENDMDL
MODEL 4
REMARK VINA RESULT:    -7.018      2.225      3.502
REMARK INTER + INTRA:         -10.556
REMARK INTER:                  -9.530
REMARK INTRA:                  -1.026
REMARK UNBOUND:                -1.077
REMARK  Name = 
REMARK  7 active torsions:
REMARK  status: ('A' for Active; 'I' for Inactive)
REMARK    1  A    between atoms: C_1  and  N_2
REMARK    2  A    between atoms: N_2  and  C_3
REMARK    3  A    between atoms: C_3  and  C_4
REMARK    4  A    between atoms: C_7  and  C_8
REMARK    5  A    between atoms: C_8  and  N_9
REMARK    6  A    between atoms: C_10  and  C_12
REMARK    7  A    between atoms: C_24  and  C_26
REMARK                            x       y       z     vdW  Elec       q    Type
REMARK                         _______ _______ _______ _____ _____    ______ ____
ROOT
ATOM      1  C   UNL     1      47.396   5.808  13.472  0.00  0.00    +0.000 A 
ATOM      2  C   UNL     1      46.852   4.516  13.540  0.00  0.00    +0.000 A 
ATOM      3  C   UNL     1      46.940   3.769  14.716  0.00  0.00    +0.000 A 
ATOM      4  C   UNL     1      47.563   4.303  15.850  0.00  0.00    +0.000 A 
ATOM      5  C   UNL     1      48.132   5.582  15.772  0.00  0.00    +0.000 A 
ATOM      6  C   UNL     1      48.040   6.333  14.598  0.00  0.00    +0.000 A 
ENDROOT
BRANCH   1   7
ATOM      7  C   UNL     1      47.318   6.599  12.192  0.00  0.00    +0.000 C 
BRANCH   7   9
ATOM      8  C   UNL     1      47.148   9.131  12.160  0.00  0.00    +0.000 C 
ATOM      9  N   UNL     1      46.509   7.823  12.168  0.00  0.00    +0.000 N 
ATOM     10  C   UNL     1      45.139   7.802  11.851  0.00  0.00    +0.000 C 
ATOM     11  O   UNL     1      44.549   8.839  11.549  0.00  0.00    +0.000 OA
BRANCH  10  12
ATOM     12  C   UNL     1      44.428   6.544  11.825  0.00  0.00    +0.000 A 
ATOM     13  C   UNL     1      44.301   5.506  10.921  0.00  0.00    +0.000 A 
ATOM     14  C   UNL     1      43.414   4.592  11.514  0.00  0.00    +0.000 A 
ATOM     15  N   UNL     1      43.041   4.974  12.734  0.00  0.00    +0.000 NA
ATOM     16  N   UNL     1      43.717   6.120  12.924  0.00  0.00    +0.000 N 
ATOM     17  H   UNL     1      43.635   6.598  13.819  0.00  0.00    +0.000 HD
ENDBRANCH  10  12
ENDBRANCH   7   9
ENDBRANCH   1   7
BRANCH   4  18
ATOM     18  C   UNL     1      47.646   3.514  17.129  0.00  0.00    +0.000 C 
BRANCH  18  19
ATOM     19  N   UNL     1      49.010   3.307  17.536  0.00  0.00    +0.000 N 
ATOM     20  C   UNL     1      49.789   2.360  16.921  0.00  0.00    +0.000 C 
ATOM     21  O   UNL     1      49.370   1.682  15.986  0.00  0.00    +0.000 OA
ATOM     22  H   UNL     1      49.290   3.675  18.440  0.00  0.00    +0.000 HD
BRANCH  20  23
ATOM     23  C   UNL     1      51.174   2.241  17.391  0.00  0.00    +0.000 A 
ATOM     24  C   UNL     1      51.725   0.981  17.591  0.00  0.00    +0.000 A 
ATOM     25  S   UNL     1      53.357   1.018  18.082  0.00  0.00    +0.000 S 
ATOM     26  C   UNL     1      53.371   2.719  18.096  0.00  0.00    +0.000 A 
ATOM     27  N   UNL     1      54.486   3.406  18.463  0.00  0.00    +0.000 NA
ATOM     28  C   UNL     1      54.345   4.689  18.465  0.00  0.00    +0.000 A 
ATOM     29  N   UNL     1      53.193   5.350  18.126  0.00  0.00    +0.000 N 
ATOM     30  C   UNL     1      52.053   4.698  17.716  0.00  0.00    +0.000 A 
ATOM     31  O   UNL     1      51.054   5.321  17.369  0.00  0.00    +0.000 OA
ATOM     32  C   UNL     1      52.152   3.253  17.713  0.00  0.00    +0.000 A 
ATOM     33  H   UNL     1      53.151   6.357  18.139  0.00  0.00    +0.000 HD
ENDBRANCH  20  23
ENDBRANCH  18  19
ENDBRANCH   4  18
TORSDOF 6
ENDMDL
MODEL 5
REMARK VINA RESULT:    -7.011      4.054      8.483
REMARK INTER + INTRA:         -10.548
REMARK INTER:                  -9.282
REMARK INTRA:                  -1.266
REMARK UNBOUND:                -1.077
REMARK  Name = 
REMARK  7 active torsions:
REMARK  status: ('A' for Active; 'I' for Inactive)
REMARK    1  A    between atoms: C_1  and  N_2
REMARK    2  A    between atoms: N_2  and  C_3
REMARK    3  A    between atoms: C_3  and  C_4
REMARK    4  A    between atoms: C_7  and  C_8
REMARK    5  A    between atoms: C_8  and  N_9
REMARK    6  A    between atoms: C_10  and  C_12
REMARK    7  A    between atoms: C_24  and  C_26
REMARK                            x       y       z     vdW  Elec       q    Type
REMARK                         _______ _______ _______ _____ _____    ______ ____
ROOT
ATOM      1  C   UNL     1      49.522   7.194  17.429  0.00  0.00    +0.000 A 
ATOM      2  C   UNL     1      48.815   8.404  17.476  0.00  0.00    +0.000 A 
ATOM      3  C   UNL     1      48.268   8.954  16.315  0.00  0.00    +0.000 A 
ATOM      4  C   UNL     1      48.409   8.297  15.086  0.00  0.00    +0.000 A 
ATOM      5  C   UNL     1      49.141   7.103  15.036  0.00  0.00    +0.000 A 
ATOM      6  C   UNL     1      49.684   6.549  16.197  0.00  0.00    +0.000 A 
ENDROOT
BRANCH   1   7
ATOM      7  C   UNL     1      50.131   6.620  18.683  0.00  0.00    +0.000 C 
BRANCH   7   9
ATOM      8  C   UNL     1      49.430   7.482  20.965  0.00  0.00    +0.000 C 
ATOM      9  N   UNL     1      49.297   6.515  19.885  0.00  0.00    +0.000 N 
ATOM     10  C   UNL     1      48.154   5.695  19.929  0.00  0.00    +0.000 C 
ATOM     11  O   UNL     1      47.314   5.837  20.817  0.00  0.00    +0.000 OA
BRANCH  10  12
ATOM     12  C   UNL     1      47.937   4.713  18.891  0.00  0.00    +0.000 A 
ATOM     13  C   UNL     1      48.557   3.540  18.502  0.00  0.00    +0.000 A 
ATOM     14  C   UNL     1      47.850   3.094  17.373  0.00  0.00    +0.000 A 
ATOM     15  N   UNL     1      46.814   3.879  17.086  0.00  0.00    +0.000 NA
ATOM     16  N   UNL     1      46.849   4.810  18.054  0.00  0.00    +0.000 N 
ATOM     17  H   UNL     1      46.118   5.519  18.083  0.00  0.00    +0.000 HD
ENDBRANCH  10  12
ENDBRANCH   7   9
ENDBRANCH   1   7
BRANCH   4  18
ATOM     18  C   UNL     1      47.806   8.870  13.832  0.00  0.00    +0.000 C 
BRANCH  18  19
ATOM     19  N   UNL     1      46.626   8.148  13.434  0.00  0.00    +0.000 N 
ATOM     20  C   UNL     1      46.664   7.270  12.381  0.00  0.00    +0.000 C 
ATOM     21  O   UNL     1      47.701   7.040  11.764  0.00  0.00    +0.000 OA
ATOM     22  H   UNL     1      45.731   8.495  13.765  0.00  0.00    +0.000 HD
BRANCH  20  23
ATOM     23  C   UNL     1      45.416   6.564  12.068  0.00  0.00    +0.000 A 
ATOM     24  C   UNL     1      44.352   7.265  11.513  0.00  0.00    +0.000 A 
ATOM     25  S   UNL     1      43.001   6.289  11.158  0.00  0.00    +0.000 S 
ATOM     26  C   UNL     1      43.767   4.905  11.784  0.00  0.00    +0.000 A 
ATOM     27  N   UNL     1      43.130   3.704  11.809  0.00  0.00    +0.000 NA
ATOM     28  C   UNL     1      43.813   2.749  12.344  0.00  0.00    +0.000 A 
ATOM     29  N   UNL     1      45.080   2.883  12.851  0.00  0.00    +0.000 N 
ATOM     30  C   UNL     1      45.776   4.069  12.816  0.00  0.00    +0.000 A 
ATOM     31  O   UNL     1      46.929   4.143  13.231  0.00  0.00    +0.000 OA
ATOM     32  C   UNL     1      45.045   5.179  12.240  0.00  0.00    +0.000 A 
ATOM     33  H   UNL     1      45.564   2.092  13.249  0.00  0.00    +0.000 HD
ENDBRANCH  20  23
ENDBRANCH  18  19
ENDBRANCH   4  18
TORSDOF 6
ENDMDL
MODEL 6
REMARK VINA RESULT:    -6.904      4.033      5.218
REMARK INTER + INTRA:         -10.402
REMARK INTER:                  -9.090
REMARK INTRA:                  -1.312
REMARK UNBOUND:                -1.077
REMARK  Name = 
REMARK  7 active torsions:
REMARK  status: ('A' for Active; 'I' for Inactive)
REMARK    1  A    between atoms: C_1  and  N_2
REMARK    2  A    between atoms: N_2  and  C_3
REMARK    3  A    between atoms: C_3  and  C_4
REMARK    4  A    between atoms: C_7  and  C_8
REMARK    5  A    between atoms: C_8  and  N_9
REMARK    6  A    between atoms: C_10  and  C_12
REMARK    7  A    between atoms: C_24  and  C_26
REMARK                            x       y       z     vdW  Elec       q    Type
REMARK                         _______ _______ _______ _____ _____    ______ ____
ROOT
ATOM      1  C   UNL     1      46.337   4.708  13.149  0.00  0.00    +0.000 A 
ATOM      2  C   UNL     1      46.769   5.881  12.512  0.00  0.00    +0.000 A 
ATOM      3  C   UNL     1      47.685   6.732  13.135  0.00  0.00    +0.000 A 
ATOM      4  C   UNL     1      48.194   6.419  14.402  0.00  0.00    +0.000 A 
ATOM      5  C   UNL     1      47.738   5.262  15.049  0.00  0.00    +0.000 A 
ATOM      6  C   UNL     1      46.827   4.408  14.425  0.00  0.00    +0.000 A 
ENDROOT
BRANCH   1   7
ATOM      7  C   UNL     1      45.329   3.808  12.481  0.00  0.00    +0.000 C 
BRANCH   7   9
ATOM      8  C   UNL     1      43.110   4.774  13.246  0.00  0.00    +0.000 C 
ATOM      9  N   UNL     1      43.999   4.346  12.175  0.00  0.00    +0.000 N 
ATOM     10  C   UNL     1      43.641   4.752  10.876  0.00  0.00    +0.000 C 
ATOM     11  O   UNL     1      42.653   5.461  10.690  0.00  0.00    +0.000 OA
BRANCH  10  12
ATOM     12  C   UNL     1      44.473   4.380   9.755  0.00  0.00    +0.000 A 
ATOM     13  C   UNL     1      44.608   3.256   8.961  0.00  0.00    +0.000 A 
ATOM     14  C   UNL     1      45.648   3.548   8.062  0.00  0.00    +0.000 A 
ATOM     15  N   UNL     1      46.111   4.787   8.216  0.00  0.00    +0.000 NA
ATOM     16  N   UNL     1      45.343   5.289   9.198  0.00  0.00    +0.000 N 
ATOM     17  H   UNL     1      45.474   6.260   9.478  0.00  0.00    +0.000 HD
ENDBRANCH  10  12
ENDBRANCH   7   9
ENDBRANCH   1   7
BRANCH   4  18
ATOM     18  C   UNL     1      49.197   7.317  15.073  0.00  0.00    +0.000 C 
BRANCH  18  19
ATOM     19  N   UNL     1      50.394   7.457  14.286  0.00  0.00    +0.000 N 
ATOM     20  C   UNL     1      50.946   8.692  14.063  0.00  0.00    +0.000 C 
ATOM     21  O   UNL     1      50.467   9.714  14.547  0.00  0.00    +0.000 OA
ATOM     22  H   UNL     1      50.657   6.676  13.693  0.00  0.00    +0.000 HD
BRANCH  20  23
ATOM     23  C   UNL     1      52.179   8.728  13.269  0.00  0.00    +0.000 A 
ATOM     24  C   UNL     1      53.344   9.233  13.833  0.00  0.00    +0.000 A 
ATOM     25  S   UNL     1      54.697   9.150  12.800  0.00  0.00    +0.000 S 
ATOM     26  C   UNL     1      53.764   8.487  11.542  0.00  0.00    +0.000 A 
ATOM     27  N   UNL     1      54.321   8.196  10.336  0.00  0.00    +0.000 NA
ATOM     28  C   UNL     1      53.492   7.734   9.462  0.00  0.00    +0.000 A 
ATOM     29  N   UNL     1      52.155   7.527   9.686  0.00  0.00    +0.000 N 
ATOM     30  C   UNL     1      51.555   7.773  10.899  0.00  0.00    +0.000 A 
ATOM     31  O   UNL     1      50.366   7.528  11.083  0.00  0.00    +0.000 OA
ATOM     32  C   UNL     1      52.441   8.312  11.911  0.00  0.00    +0.000 A 
ATOM     33  H   UNL     1      51.561   7.153   8.962  0.00  0.00    +0.000 HD
ENDBRANCH  20  23
ENDBRANCH  18  19
ENDBRANCH   4  18
TORSDOF 6
ENDMDL
MODEL 7
REMARK VINA RESULT:    -6.809      2.522      2.945
REMARK INTER + INTRA:         -10.274
REMARK INTER:                  -9.913
REMARK INTRA:                  -0.361
REMARK UNBOUND:                -1.077
REMARK  Name = 
REMARK  7 active torsions:
REMARK  status: ('A' for Active; 'I' for Inactive)
REMARK    1  A    between atoms: C_1  and  N_2
REMARK    2  A    between atoms: N_2  and  C_3
REMARK    3  A    between atoms: C_3  and  C_4
REMARK    4  A    between atoms: C_7  and  C_8
REMARK    5  A    between atoms: C_8  and  N_9
REMARK    6  A    between atoms: C_10  and  C_12
REMARK    7  A    between atoms: C_24  and  C_26
REMARK                            x       y       z     vdW  Elec       q    Type
REMARK                         _______ _______ _______ _____ _____    ______ ____
ROOT
ATOM      1  C   UNL     1      46.661   6.317  11.852  0.00  0.00    +0.000 A 
ATOM      2  C   UNL     1      47.544   7.301  11.383  0.00  0.00    +0.000 A 
ATOM      3  C   UNL     1      48.624   7.718  12.164  0.00  0.00    +0.000 A 
ATOM      4  C   UNL     1      48.849   7.149  13.423  0.00  0.00    +0.000 A 
ATOM      5  C   UNL     1      47.949   6.187  13.903  0.00  0.00    +0.000 A 
ATOM      6  C   UNL     1      46.871   5.766  13.122  0.00  0.00    +0.000 A 
ENDROOT
BRANCH   1   7
ATOM      7  C   UNL     1      45.483   5.891  11.015  0.00  0.00    +0.000 C 
BRANCH   7   9
ATOM      8  C   UNL     1      43.745   5.408  12.801  0.00  0.00    +0.000 C 
ATOM      9  N   UNL     1      44.480   5.001  11.612  0.00  0.00    +0.000 N 
ATOM     10  C   UNL     1      43.970   3.886  10.922  0.00  0.00    +0.000 C 
ATOM     11  O   UNL     1      42.939   3.331  11.301  0.00  0.00    +0.000 OA
BRANCH  10  12
ATOM     12  C   UNL     1      44.632   3.421   9.725  0.00  0.00    +0.000 A 
ATOM     13  C   UNL     1      44.905   3.959   8.481  0.00  0.00    +0.000 A 
ATOM     14  C   UNL     1      45.554   2.941   7.761  0.00  0.00    +0.000 A 
ATOM     15  N   UNL     1      45.745   1.848   8.498  0.00  0.00    +0.000 NA
ATOM     16  N   UNL     1      45.239   2.186   9.696  0.00  0.00    +0.000 N 
ATOM     17  H   UNL     1      45.304   1.520  10.464  0.00  0.00    +0.000 HD
ENDBRANCH  10  12
ENDBRANCH   7   9
ENDBRANCH   1   7
BRANCH   4  18
ATOM     18  C   UNL     1      50.022   7.575  14.264  0.00  0.00    +0.000 C 
BRANCH  18  19
ATOM     19  N   UNL     1      49.746   7.431  15.669  0.00  0.00    +0.000 N 
ATOM     20  C   UNL     1      50.590   6.714  16.479  0.00  0.00    +0.000 C 
ATOM     21  O   UNL     1      51.620   6.201  16.050  0.00  0.00    +0.000 OA
ATOM     22  H   UNL     1      48.803   7.635  15.985  0.00  0.00    +0.000 HD
BRANCH  20  23
ATOM     23  C   UNL     1      50.236   6.646  17.901  0.00  0.00    +0.000 A 
ATOM     24  C   UNL     1      50.533   7.718  18.734  0.00  0.00    +0.000 A 
ATOM     25  S   UNL     1      50.006   7.503  20.340  0.00  0.00    +0.000 S 
ATOM     26  C   UNL     1      49.411   5.947  19.994  0.00  0.00    +0.000 A 
ATOM     27  N   UNL     1      48.842   5.184  20.966  0.00  0.00    +0.000 NA
ATOM     28  C   UNL     1      48.470   4.012  20.573  0.00  0.00    +0.000 A 
ATOM     29  N   UNL     1      48.606   3.536  19.295  0.00  0.00    +0.000 N 
ATOM     30  C   UNL     1      49.142   4.284  18.273  0.00  0.00    +0.000 A 
ATOM     31  O   UNL     1      49.202   3.847  17.128  0.00  0.00    +0.000 OA
ATOM     32  C   UNL     1      49.594   5.603  18.666  0.00  0.00    +0.000 A 
ATOM     33  H   UNL     1      48.284   2.612  19.051  0.00  0.00    +0.000 HD
ENDBRANCH  20  23
ENDBRANCH  18  19
ENDBRANCH   4  18
TORSDOF 6
ENDMDL
MODEL 8
REMARK VINA RESULT:    -6.549      3.476      8.291
REMARK INTER + INTRA:          -9.923
REMARK INTER:                  -8.511
REMARK INTRA:                  -1.412
REMARK UNBOUND:                -1.077
REMARK  Name = 
REMARK  7 active torsions:
REMARK  status: ('A' for Active; 'I' for Inactive)
REMARK    1  A    between atoms: C_1  and  N_2
REMARK    2  A    between atoms: N_2  and  C_3
REMARK    3  A    between atoms: C_3  and  C_4
REMARK    4  A    between atoms: C_7  and  C_8
REMARK    5  A    between atoms: C_8  and  N_9
REMARK    6  A    between atoms: C_10  and  C_12
REMARK    7  A    between atoms: C_24  and  C_26
REMARK                            x       y       z     vdW  Elec       q    Type
REMARK                         _______ _______ _______ _____ _____    ______ ____
ROOT
ATOM      1  C   UNL     1      50.258   6.279  17.298  0.00  0.00    +0.000 A 
ATOM      2  C   UNL     1      49.004   6.807  17.642  0.00  0.00    +0.000 A 
ATOM      3  C   UNL     1      48.313   7.632  16.753  0.00  0.00    +0.000 A 
ATOM      4  C   UNL     1      48.856   7.935  15.498  0.00  0.00    +0.000 A 
ATOM      5  C   UNL     1      50.122   7.431  15.168  0.00  0.00    +0.000 A 
ATOM      6  C   UNL     1      50.812   6.601  16.054  0.00  0.00    +0.000 A 
ENDROOT
BRANCH   1   7
ATOM      7  C   UNL     1      51.010   5.409  18.272  0.00  0.00    +0.000 C 
BRANCH   7   9
ATOM      8  C   UNL     1      53.059   3.987  17.801  0.00  0.00    +0.000 C 
ATOM      9  N   UNL     1      51.614   4.164  17.784  0.00  0.00    +0.000 N 
ATOM     10  C   UNL     1      50.852   3.001  17.570  0.00  0.00    +0.000 C 
ATOM     11  O   UNL     1      51.399   1.906  17.449  0.00  0.00    +0.000 OA
BRANCH  10  12
ATOM     12  C   UNL     1      49.409   3.084  17.549  0.00  0.00    +0.000 A 
ATOM     13  C   UNL     1      48.414   3.148  18.507  0.00  0.00    +0.000 A 
ATOM     14  C   UNL     1      47.203   3.171  17.795  0.00  0.00    +0.000 A 
ATOM     15  N   UNL     1      47.395   3.185  16.478  0.00  0.00    +0.000 NA
ATOM     16  N   UNL     1      48.733   3.198  16.356  0.00  0.00    +0.000 N 
ATOM     17  H   UNL     1      49.143   3.254  15.425  0.00  0.00    +0.000 HD
ENDBRANCH  10  12
ENDBRANCH   7   9
ENDBRANCH   1   7
BRANCH   4  18
ATOM     18  C   UNL     1      48.110   8.807  14.525  0.00  0.00    +0.000 C 
BRANCH  18  19
ATOM     19  N   UNL     1      46.962   8.130  13.980  0.00  0.00    +0.000 N 
ATOM     20  C   UNL     1      47.065   7.392  12.829  0.00  0.00    +0.000 C 
ATOM     21  O   UNL     1      48.134   7.252  12.240  0.00  0.00    +0.000 OA
ATOM     22  H   UNL     1      46.046   8.424  14.307  0.00  0.00    +0.000 HD
BRANCH  20  23
ATOM     23  C   UNL     1      45.844   6.720  12.367  0.00  0.00    +0.000 A 
ATOM     24  C   UNL     1      44.830   7.467  11.782  0.00  0.00    +0.000 A 
ATOM     25  S   UNL     1      43.509   6.529  11.251  0.00  0.00    +0.000 S 
ATOM     26  C   UNL     1      44.221   5.098  11.833  0.00  0.00    +0.000 A 
ATOM     27  N   UNL     1      43.583   3.903  11.720  0.00  0.00    +0.000 NA
ATOM     28  C   UNL     1      44.220   2.907  12.237  0.00  0.00    +0.000 A 
ATOM     29  N   UNL     1      45.443   2.994  12.850  0.00  0.00    +0.000 N 
ATOM     30  C   UNL     1      46.141   4.175  12.957  0.00  0.00    +0.000 A 
ATOM     31  O   UNL     1      47.257   4.210  13.467  0.00  0.00    +0.000 OA
ATOM     32  C   UNL     1      45.460   5.329  12.408  0.00  0.00    +0.000 A 
ATOM     33  H   UNL     1      45.892   2.173  13.226  0.00  0.00    +0.000 HD
ENDBRANCH  20  23
ENDBRANCH  18  19
ENDBRANCH   4  18
TORSDOF 6
ENDMDL
MODEL 9
REMARK VINA RESULT:    -6.469      1.821      2.564
REMARK INTER + INTRA:          -9.815
REMARK INTER:                  -8.908
REMARK INTRA:                  -0.907
REMARK UNBOUND:                -1.077
REMARK  Name = 
REMARK  7 active torsions:
REMARK  status: ('A' for Active; 'I' for Inactive)
REMARK    1  A    between atoms: C_1  and  N_2
REMARK    2  A    between atoms: N_2  and  C_3
REMARK    3  A    between atoms: C_3  and  C_4
REMARK    4  A    between atoms: C_7  and  C_8
REMARK    5  A    between atoms: C_8  and  N_9
REMARK    6  A    between atoms: C_10  and  C_12
REMARK    7  A    between atoms: C_24  and  C_26
REMARK                            x       y       z     vdW  Elec       q    Type
REMARK                         _______ _______ _______ _____ _____    ______ ____
ROOT
ATOM      1  C   UNL     1      47.378   5.347  14.445  0.00  0.00    +0.000 A 
ATOM      2  C   UNL     1      46.918   4.287  15.240  0.00  0.00    +0.000 A 
ATOM      3  C   UNL     1      47.317   4.173  16.574  0.00  0.00    +0.000 A 
ATOM      4  C   UNL     1      48.174   5.125  17.140  0.00  0.00    +0.000 A 
ATOM      5  C   UNL     1      48.656   6.167  16.336  0.00  0.00    +0.000 A 
ATOM      6  C   UNL     1      48.254   6.284  15.004  0.00  0.00    +0.000 A 
ENDROOT
BRANCH   1   7
ATOM      7  C   UNL     1      46.964   5.448  13.000  0.00  0.00    +0.000 C 
BRANCH   7   9
ATOM      8  C   UNL     1      46.527   7.909  12.557  0.00  0.00    +0.000 C 
ATOM      9  N   UNL     1      46.058   6.532  12.602  0.00  0.00    +0.000 N 
ATOM     10  C   UNL     1      44.827   6.278  11.969  0.00  0.00    +0.000 C 
ATOM     11  O   UNL     1      44.224   7.178  11.385  0.00  0.00    +0.000 OA
BRANCH  10  12
ATOM     12  C   UNL     1      44.292   4.936  11.957  0.00  0.00    +0.000 A 
ATOM     13  C   UNL     1      43.900   4.025  12.921  0.00  0.00    +0.000 A 
ATOM     14  C   UNL     1      43.507   2.873  12.217  0.00  0.00    +0.000 A 
ATOM     15  N   UNL     1      43.577   3.042  10.898  0.00  0.00    +0.000 NA
ATOM     16  N   UNL     1      43.990   4.314  10.766  0.00  0.00    +0.000 N 
ATOM     17  H   UNL     1      44.083   4.708   9.832  0.00  0.00    +0.000 HD
ENDBRANCH  10  12
ENDBRANCH   7   9
ENDBRANCH   1   7
BRANCH   4  18
ATOM     18  C   UNL     1      48.593   5.024  18.582  0.00  0.00    +0.000 C 
BRANCH  18  19
ATOM     19  N   UNL     1      49.774   4.215  18.734  0.00  0.00    +0.000 N 
ATOM     20  C   UNL     1      51.019   4.791  18.771  0.00  0.00    +0.000 C 
ATOM     21  O   UNL     1      51.172   6.008  18.710  0.00  0.00    +0.000 OA
ATOM     22  H   UNL     1      49.688   3.220  18.546  0.00  0.00    +0.000 HD
BRANCH  20  23
ATOM     23  C   UNL     1      52.158   3.884  18.954  0.00  0.00    +0.000 A 
ATOM     24  C   UNL     1      53.198   4.252  19.799  0.00  0.00    +0.000 A 
ATOM     25  S   UNL     1      54.412   3.066  19.945  0.00  0.00    +0.000 S 
ATOM     26  C   UNL     1      53.620   2.040  18.842  0.00  0.00    +0.000 A 
ATOM     27  N   UNL     1      54.156   0.841  18.494  0.00  0.00    +0.000 NA
ATOM     28  C   UNL     1      53.470   0.183  17.621  0.00  0.00    +0.000 A 
ATOM     29  N   UNL     1      52.290   0.612  17.071  0.00  0.00    +0.000 N 
ATOM     30  C   UNL     1      51.692   1.801  17.419  0.00  0.00    +0.000 A 
ATOM     31  O   UNL     1      50.609   2.131  16.946  0.00  0.00    +0.000 OA
ATOM     32  C   UNL     1      52.434   2.587  18.383  0.00  0.00    +0.000 A 
ATOM     33  H   UNL     1      51.796   0.044  16.399  0.00  0.00    +0.000 HD
ENDBRANCH  20  23
ENDBRANCH  18  19
ENDBRANCH   4  18
TORSDOF 6
ENDMDL
