MODEL 1
REMARK VINA RESULT:    -7.152      0.000      0.000
REMARK INTER + INTRA:         -12.723
REMARK INTER:                 -11.123
REMARK INTRA:                  -1.599
REMARK UNBOUND:                -1.599
REMARK  Name = 
REMARK  10 active torsions:
REMARK  status: ('A' for Active; 'I' for Inactive)
REMARK    1  A    between atoms: N_1  and  C_2
REMARK    2  A    between atoms: C_2  and  C_3
REMARK    3  A    between atoms: C_3  and  N_4
REMARK    4  A    between atoms: N_4  and  C_5
REMARK    5  A    between atoms: C_5  and  C_6
REMARK    6  A    between atoms: C_9  and  C_10
REMARK    7  A    between atoms: C_10  and  N_11
REMARK    8  A    between atoms: N_11  and  C_12
REMARK    9  A    between atoms: C_12  and  C_13
REMARK   10  A    between atoms: C_20  and  C_22
REMARK                            x       y       z     vdW  Elec       q    Type
REMARK                         _______ _______ _______ _____ _____    ______ ____
ROOT
ATOM      1  N   UNL     1      46.123   7.080  12.015  0.00  0.00    +0.000 N 
ATOM      2  C   UNL     1      44.877   6.639  11.496  0.00  0.00    +0.000 C 
ATOM      3  O   UNL     1      44.023   7.461  11.150  0.00  0.00    +0.000 OA
ENDROOT
BRANCH   2   4
ATOM      4  C   UNL     1      44.543   5.194  11.413  0.00  0.00    +0.000 A 
ATOM      5  C   UNL     1      43.907   4.442  12.379  0.00  0.00    +0.000 A 
ATOM      6  S   UNL     1      43.479   2.860  11.919  0.00  0.00    +0.000 S 
ATOM      7  C   UNL     1      44.171   3.086  10.394  0.00  0.00    +0.000 A 
ATOM      8  N   UNL     1      44.133   2.082   9.480  0.00  0.00    +0.000 NA
ATOM      9  C   UNL     1      44.704   2.370   8.361  0.00  0.00    +0.000 A 
ATOM     10  N   UNL     1      45.310   3.578   8.078  0.00  0.00    +0.000 N 
ATOM     11  C   UNL     1      45.445   4.584   9.007  0.00  0.00    +0.000 A 
ATOM     12  O   UNL     1      46.182   5.541   8.782  0.00  0.00    +0.000 OA
ATOM     13  C   UNL     1      44.745   4.340  10.253  0.00  0.00    +0.000 A 
ATOM     14  H   UNL     1      45.804   3.704   7.208  0.00  0.00    +0.000 HD
ENDBRANCH   2   4
BRANCH   1  15
ATOM     15  C   UNL     1      46.357   8.544  11.901  0.00  0.00    +0.000 C 
BRANCH  15  16
ATOM     16  C   UNL     1      45.748   9.509  12.945  0.00  0.00    +0.000 C 
BRANCH  16  17
ATOM     17  N   UNL     1      44.413  10.026  12.618  0.00  0.00    +0.000 NA
ATOM     18  H   UNL     1      44.382  10.252  11.623  0.00  0.00    +0.000 HD
ATOM     19  H   UNL     1      44.246  10.899  13.118  0.00  0.00    +0.000 HD
ENDBRANCH  16  17
ENDBRANCH  15  16
ENDBRANCH   1  15
BRANCH   1  20
ATOM     20  C   UNL     1      47.294   6.219  12.201  0.00  0.00    +0.000 C 
BRANCH  20  21
ATOM     21  C   UNL     1      47.587   5.856  13.649  0.00  0.00    +0.000 A 
ATOM     22  C   UNL     1      48.410   6.633  14.478  0.00  0.00    +0.000 A 
ATOM     23  C   UNL     1      48.560   6.340  15.833  0.00  0.00    +0.000 A 
ATOM     24  C   UNL     1      47.996   5.183  16.378  0.00  0.00    +0.000 A 
ATOM     25  C   UNL     1      47.207   4.375  15.556  0.00  0.00    +0.000 A 
ATOM     26  C   UNL     1      46.977   4.731  14.221  0.00  0.00    +0.000 A 
BRANCH  24  27
ATOM     27  C   UNL     1      48.265   4.834  17.822  0.00  0.00    +0.000 C 
BRANCH  27  28
ATOM     28  N   UNL     1      49.180   3.703  17.888  0.00  0.00    +0.000 NA
ATOM     29  H   UNL     1      49.025   3.107  17.074  0.00  0.00    +0.000 HD
BRANCH  28  30
ATOM     30  C   UNL     1      50.581   4.095  17.974  0.00  0.00    +0.000 C 
BRANCH  30  31
ATOM     31  C   UNL     1      51.425   2.939  17.438  0.00  0.00    +0.000 C 
ATOM     32  C   UNL     1      52.661   2.624  18.264  0.00  0.00    +0.000 C 
ATOM     33  C   UNL     1      52.951   1.196  17.845  0.00  0.00    +0.000 C 
ATOM     34  N   UNL     1      51.631   0.561  17.814  0.00  0.00    +0.000 NA
ATOM     35  C   UNL     1      50.680   1.601  17.378  0.00  0.00    +0.000 C 
ATOM     36  H   UNL     1      51.379   0.287  18.764  0.00  0.00    +0.000 HD
ENDBRANCH  30  31
ENDBRANCH  28  30
ENDBRANCH  27  28
ENDBRANCH  24  27
ENDBRANCH  20  21
ENDBRANCH   1  20
TORSDOF 10
ENDMDL
MODEL 2
REMARK VINA RESULT:    -6.786      3.718      8.363
REMARK INTER + INTRA:         -12.154
REMARK INTER:                 -10.735
REMARK INTRA:                  -1.419
REMARK UNBOUND:                -1.599
REMARK  Name = 
REMARK  10 active torsions:
REMARK  status: ('A' for Active; 'I' for Inactive)
REMARK    1  A    between atoms: N_1  and  C_2
REMARK    2  A    between atoms: C_2  and  C_3
REMARK    3  A    between atoms: C_3  and  N_4
REMARK    4  A    between atoms: N_4  and  C_5
REMARK    5  A    between atoms: C_5  and  C_6
REMARK    6  A    between atoms: C_9  and  C_10
REMARK    7  A    between atoms: C_10  and  N_11
REMARK    8  A    between atoms: N_11  and  C_12
REMARK    9  A    between atoms: C_12  and  C_13
REMARK   10  A    between atoms: C_20  and  C_22
REMARK                            x       y       z     vdW  Elec       q    Type
REMARK                         _______ _______ _______ _____ _____    ______ ____
ROOT
ATOM      1  N   UNL     1      48.724   7.193  13.784  0.00  0.00    +0.000 N 
ATOM      2  C   UNL     1      49.572   7.531  14.871  0.00  0.00    +0.000 C 
ATOM      3  O   UNL     1      50.799   7.494  14.735  0.00  0.00    +0.000 OA
ENDROOT
BRANCH   2   4
ATOM      4  C   UNL     1      49.018   7.875  16.206  0.00  0.00    +0.000 A 
ATOM      5  C   UNL     1      48.657   9.132  16.645  0.00  0.00    +0.000 A 
ATOM      6  S   UNL     1      47.865   9.187  18.151  0.00  0.00    +0.000 S 
ATOM      7  C   UNL     1      48.002   7.510  18.316  0.00  0.00    +0.000 A 
ATOM      8  N   UNL     1      47.497   6.898  19.417  0.00  0.00    +0.000 NA
ATOM      9  C   UNL     1      47.674   5.621  19.435  0.00  0.00    +0.000 A 
ATOM     10  N   UNL     1      48.315   4.905  18.444  0.00  0.00    +0.000 N 
ATOM     11  C   UNL     1      48.917   5.501  17.359  0.00  0.00    +0.000 A 
ATOM     12  O   UNL     1      49.662   4.853  16.628  0.00  0.00    +0.000 OA
ATOM     13  C   UNL     1      48.671   6.926  17.251  0.00  0.00    +0.000 A 
ATOM     14  H   UNL     1      48.486   3.919  18.562  0.00  0.00    +0.000 HD
ENDBRANCH   2   4
BRANCH   1  15
ATOM     15  C   UNL     1      49.424   7.011  12.485  0.00  0.00    +0.000 C 
BRANCH  15  16
ATOM     16  C   UNL     1      49.390   8.135  11.423  0.00  0.00    +0.000 C 
BRANCH  16  17
ATOM     17  N   UNL     1      49.771   9.468  11.907  0.00  0.00    +0.000 NA
ATOM     18  H   UNL     1      50.389   9.362  12.712  0.00  0.00    +0.000 HD
ATOM     19  H   UNL     1      48.946   9.966  12.240  0.00  0.00    +0.000 HD
ENDBRANCH  16  17
ENDBRANCH  15  16
ENDBRANCH   1  15
BRANCH   1  20
ATOM     20  C   UNL     1      47.283   7.457  13.746  0.00  0.00    +0.000 C 
BRANCH  20  21
ATOM     21  C   UNL     1      46.474   6.432  12.966  0.00  0.00    +0.000 A 
ATOM     22  C   UNL     1      46.229   5.134  13.438  0.00  0.00    +0.000 A 
ATOM     23  C   UNL     1      45.382   4.260  12.756  0.00  0.00    +0.000 A 
ATOM     24  C   UNL     1      44.853   4.608  11.510  0.00  0.00    +0.000 A 
ATOM     25  C   UNL     1      45.121   5.882  11.005  0.00  0.00    +0.000 A 
ATOM     26  C   UNL     1      45.888   6.792  11.743  0.00  0.00    +0.000 A 
BRANCH  24  27
ATOM     27  C   UNL     1      44.028   3.601  10.745  0.00  0.00    +0.000 C 
BRANCH  27  28
ATOM     28  N   UNL     1      44.855   2.453  10.403  0.00  0.00    +0.000 NA
ATOM     29  H   UNL     1      44.575   1.662  10.983  0.00  0.00    +0.000 HD
BRANCH  28  30
ATOM     30  C   UNL     1      44.799   2.097   8.991  0.00  0.00    +0.000 C 
BRANCH  30  31
ATOM     31  C   UNL     1      46.143   2.463   8.362  0.00  0.00    +0.000 C 
ATOM     32  C   UNL     1      46.813   1.330   7.602  0.00  0.00    +0.000 C 
ATOM     33  C   UNL     1      47.757   2.090   6.692  0.00  0.00    +0.000 C 
ATOM     34  N   UNL     1      46.956   3.222   6.217  0.00  0.00    +0.000 NA
ATOM     35  C   UNL     1      46.058   3.590   7.328  0.00  0.00    +0.000 C 
ATOM     36  H   UNL     1      46.376   2.906   5.439  0.00  0.00    +0.000 HD
ENDBRANCH  30  31
ENDBRANCH  28  30
ENDBRANCH  27  28
ENDBRANCH  24  27
ENDBRANCH  20  21
ENDBRANCH   1  20
TORSDOF 10
ENDMDL
MODEL 3
REMARK VINA RESULT:    -6.651      2.097      3.114
REMARK INTER + INTRA:         -11.944
REMARK INTER:                  -9.965
REMARK INTRA:                  -1.978
REMARK UNBOUND:                -1.599
REMARK  Name = 
REMARK  10 active torsions:
REMARK  status: ('A' for Active; 'I' for Inactive)
REMARK    1  A    between atoms: N_1  and  C_2
REMARK    2  A    between atoms: C_2  and  C_3
REMARK    3  A    between atoms: C_3  and  N_4
REMARK    4  A    between atoms: N_4  and  C_5
REMARK    5  A    between atoms: C_5  and  C_6
REMARK    6  A    between atoms: C_9  and  C_10
REMARK    7  A    between atoms: C_10  and  N_11
REMARK    8  A    between atoms: N_11  and  C_12
REMARK    9  A    between atoms: C_12  and  C_13
REMARK   10  A    between atoms: C_20  and  C_22
REMARK                            x       y       z     vdW  Elec       q    Type
REMARK                         _______ _______ _______ _____ _____    ______ ____
ROOT
ATOM      1  N   UNL     1      46.124   6.981  12.125  0.00  0.00    +0.000 N 
ATOM      2  C   UNL     1      44.894   6.565  11.551  0.00  0.00    +0.000 C 
ATOM      3  O   UNL     1      44.061   7.403  11.193  0.00  0.00    +0.000 OA
ENDROOT
BRANCH   2   4
ATOM      4  C   UNL     1      44.550   5.125  11.422  0.00  0.00    +0.000 A 
ATOM      5  C   UNL     1      43.890   4.352  12.355  0.00  0.00    +0.000 A 
ATOM      6  S   UNL     1      43.459   2.787  11.844  0.00  0.00    +0.000 S 
ATOM      7  C   UNL     1      44.180   3.050  10.338  0.00  0.00    +0.000 A 
ATOM      8  N   UNL     1      44.151   2.072   9.397  0.00  0.00    +0.000 NA
ATOM      9  C   UNL     1      44.745   2.385   8.296  0.00  0.00    +0.000 A 
ATOM     10  N   UNL     1      45.365   3.595   8.057  0.00  0.00    +0.000 N 
ATOM     11  C   UNL     1      45.492   4.574   9.016  0.00  0.00    +0.000 A 
ATOM     12  O   UNL     1      46.240   5.531   8.832  0.00  0.00    +0.000 OA
ATOM     13  C   UNL     1      44.767   4.302  10.243  0.00  0.00    +0.000 A 
ATOM     14  H   UNL     1      45.876   3.741   7.201  0.00  0.00    +0.000 HD
ENDBRANCH   2   4
BRANCH   1  15
ATOM     15  C   UNL     1      46.375   8.445  12.054  0.00  0.00    +0.000 C 
BRANCH  15  16
ATOM     16  C   UNL     1      45.702   9.396  13.071  0.00  0.00    +0.000 C 
BRANCH  16  17
ATOM     17  N   UNL     1      44.454  10.020  12.614  0.00  0.00    +0.000 NA
ATOM     18  H   UNL     1      44.633  11.003  12.406  0.00  0.00    +0.000 HD
ATOM     19  H   UNL     1      43.763  10.007  13.364  0.00  0.00    +0.000 HD
ENDBRANCH  16  17
ENDBRANCH  15  16
ENDBRANCH   1  15
BRANCH   1  20
ATOM     20  C   UNL     1      47.279   6.104  12.334  0.00  0.00    +0.000 C 
BRANCH  20  21
ATOM     21  C   UNL     1      47.426   5.581  13.755  0.00  0.00    +0.000 A 
ATOM     22  C   UNL     1      46.920   4.340  14.167  0.00  0.00    +0.000 A 
ATOM     23  C   UNL     1      47.178   3.836  15.442  0.00  0.00    +0.000 A 
ATOM     24  C   UNL     1      47.841   4.615  16.394  0.00  0.00    +0.000 A 
ATOM     25  C   UNL     1      48.316   5.872  16.013  0.00  0.00    +0.000 A 
ATOM     26  C   UNL     1      48.143   6.329  14.700  0.00  0.00    +0.000 A 
BRANCH  24  27
ATOM     27  C   UNL     1      48.011   4.088  17.798  0.00  0.00    +0.000 C 
BRANCH  27  28
ATOM     28  N   UNL     1      47.417   5.022  18.745  0.00  0.00    +0.000 NA
ATOM     29  H   UNL     1      46.542   4.627  19.090  0.00  0.00    +0.000 HD
BRANCH  28  30
ATOM     30  C   UNL     1      48.297   5.363  19.854  0.00  0.00    +0.000 C 
BRANCH  30  31
ATOM     31  C   UNL     1      48.544   6.871  19.809  0.00  0.00    +0.000 C 
ATOM     32  C   UNL     1      49.781   7.285  19.029  0.00  0.00    +0.000 C 
ATOM     33  C   UNL     1      49.467   8.733  18.707  0.00  0.00    +0.000 C 
ATOM     34  N   UNL     1      48.053   8.712  18.323  0.00  0.00    +0.000 NA
ATOM     35  C   UNL     1      47.415   7.666  19.145  0.00  0.00    +0.000 C 
ATOM     36  H   UNL     1      47.986   8.425  17.346  0.00  0.00    +0.000 HD
ENDBRANCH  30  31
ENDBRANCH  28  30
ENDBRANCH  27  28
ENDBRANCH  24  27
ENDBRANCH  20  21
ENDBRANCH   1  20
TORSDOF 10
ENDMDL
MODEL 4
REMARK VINA RESULT:    -6.608      1.559      2.348
REMARK INTER + INTRA:         -11.877
REMARK INTER:                 -10.208
REMARK INTRA:                  -1.668
REMARK UNBOUND:                -1.599
REMARK  Name = 
REMARK  10 active torsions:
REMARK  status: ('A' for Active; 'I' for Inactive)
REMARK    1  A    between atoms: N_1  and  C_2
REMARK    2  A    between atoms: C_2  and  C_3
REMARK    3  A    between atoms: C_3  and  N_4
REMARK    4  A    between atoms: N_4  and  C_5
REMARK    5  A    between atoms: C_5  and  C_6
REMARK    6  A    between atoms: C_9  and  C_10
REMARK    7  A    between atoms: C_10  and  N_11
REMARK    8  A    between atoms: N_11  and  C_12
REMARK    9  A    between atoms: C_12  and  C_13
REMARK   10  A    between atoms: C_20  and  C_22
REMARK                            x       y       z     vdW  Elec       q    Type
REMARK                         _______ _______ _______ _____ _____    ______ ____
ROOT
ATOM      1  N   UNL     1      46.462   7.390  12.563  0.00  0.00    +0.000 N 
ATOM      2  C   UNL     1      45.435   7.297  11.587  0.00  0.00    +0.000 C 
ATOM      3  O   UNL     1      44.707   8.268  11.358  0.00  0.00    +0.000 OA
ENDROOT
BRANCH   2   4
ATOM      4  C   UNL     1      45.167   6.027  10.866  0.00  0.00    +0.000 A 
ATOM      5  C   UNL     1      45.603   5.694   9.600  0.00  0.00    +0.000 A 
ATOM      6  S   UNL     1      45.308   4.088   9.117  0.00  0.00    +0.000 S 
ATOM      7  C   UNL     1      44.532   3.761  10.582  0.00  0.00    +0.000 A 
ATOM      8  N   UNL     1      44.037   2.519  10.820  0.00  0.00    +0.000 NA
ATOM      9  C   UNL     1      43.457   2.395  11.964  0.00  0.00    +0.000 A 
ATOM     10  N   UNL     1      43.329   3.410  12.892  0.00  0.00    +0.000 N 
ATOM     11  C   UNL     1      43.739   4.702  12.650  0.00  0.00    +0.000 A 
ATOM     12  O   UNL     1      43.405   5.611  13.406  0.00  0.00    +0.000 OA
ATOM     13  C   UNL     1      44.473   4.871  11.411  0.00  0.00    +0.000 A 
ATOM     14  H   UNL     1      42.795   3.263  13.734  0.00  0.00    +0.000 HD
ENDBRANCH   2   4
BRANCH   1  15
ATOM     15  C   UNL     1      46.693   8.761  13.090  0.00  0.00    +0.000 C 
BRANCH  15  16
ATOM     16  C   UNL     1      47.471   9.796  12.243  0.00  0.00    +0.000 C 
BRANCH  16  17
ATOM     17  N   UNL     1      46.645  10.813  11.581  0.00  0.00    +0.000 NA
ATOM     18  H   UNL     1      46.060  10.358  10.880  0.00  0.00    +0.000 HD
ATOM     19  H   UNL     1      47.240  11.470  11.076  0.00  0.00    +0.000 HD
ENDBRANCH  16  17
ENDBRANCH  15  16
ENDBRANCH   1  15
BRANCH   1  20
ATOM     20  C   UNL     1      47.540   6.411  12.725  0.00  0.00    +0.000 C 
BRANCH  20  21
ATOM     21  C   UNL     1      47.615   5.778  14.106  0.00  0.00    +0.000 A 
ATOM     22  C   UNL     1      46.912   4.615  14.452  0.00  0.00    +0.000 A 
ATOM     23  C   UNL     1      47.097   3.992  15.686  0.00  0.00    +0.000 A 
ATOM     24  C   UNL     1      47.896   4.584  16.669  0.00  0.00    +0.000 A 
ATOM     25  C   UNL     1      48.572   5.765  16.356  0.00  0.00    +0.000 A 
ATOM     26  C   UNL     1      48.461   6.330  15.079  0.00  0.00    +0.000 A 
BRANCH  24  27
ATOM     27  C   UNL     1      47.993   3.943  18.032  0.00  0.00    +0.000 C 
BRANCH  27  28
ATOM     28  N   UNL     1      49.352   3.468  18.251  0.00  0.00    +0.000 NA
ATOM     29  H   UNL     1      49.454   3.204  19.231  0.00  0.00    +0.000 HD
BRANCH  28  30
ATOM     30  C   UNL     1      49.727   2.360  17.382  0.00  0.00    +0.000 C 
BRANCH  30  31
ATOM     31  C   UNL     1      51.253   2.311  17.318  0.00  0.00    +0.000 C 
ATOM     32  C   UNL     1      51.956   3.309  18.222  0.00  0.00    +0.000 C 
ATOM     33  C   UNL     1      53.330   2.683  18.357  0.00  0.00    +0.000 C 
ATOM     34  N   UNL     1      53.053   1.255  18.536  0.00  0.00    +0.000 NA
ATOM     35  C   UNL     1      51.849   0.962  17.736  0.00  0.00    +0.000 C 
ATOM     36  H   UNL     1      52.823   1.089  19.517  0.00  0.00    +0.000 HD
ENDBRANCH  30  31
ENDBRANCH  28  30
ENDBRANCH  27  28
ENDBRANCH  24  27
ENDBRANCH  20  21
ENDBRANCH   1  20
TORSDOF 10
ENDMDL
MODEL 5
REMARK VINA RESULT:    -6.426      3.129      8.138
REMARK INTER + INTRA:         -11.593
REMARK INTER:                 -10.374
REMARK INTRA:                  -1.220
REMARK UNBOUND:                -1.599
REMARK  Name = 
REMARK  10 active torsions:
REMARK  status: ('A' for Active; 'I' for Inactive)
REMARK    1  A    between atoms: N_1  and  C_2
REMARK    2  A    between atoms: C_2  and  C_3
REMARK    3  A    between atoms: C_3  and  N_4
REMARK    4  A    between atoms: N_4  and  C_5
REMARK    5  A    between atoms: C_5  and  C_6
REMARK    6  A    between atoms: C_9  and  C_10
REMARK    7  A    between atoms: C_10  and  N_11
REMARK    8  A    between atoms: N_11  and  C_12
REMARK    9  A    between atoms: C_12  and  C_13
REMARK   10  A    between atoms: C_20  and  C_22
REMARK                            x       y       z     vdW  Elec       q    Type
REMARK                         _______ _______ _______ _____ _____    ______ ____
ROOT
ATOM      1  N   UNL     1      48.315   7.644  14.222  0.00  0.00    +0.000 N 
ATOM      2  C   UNL     1      48.773   7.720  15.564  0.00  0.00    +0.000 C 
ATOM      3  O   UNL     1      48.358   8.609  16.313  0.00  0.00    +0.000 OA
ENDROOT
BRANCH   2   4
ATOM      4  C   UNL     1      49.800   6.780  16.084  0.00  0.00    +0.000 A 
ATOM      5  C   UNL     1      51.162   6.995  16.127  0.00  0.00    +0.000 A 
ATOM      6  S   UNL     1      52.068   5.820  16.962  0.00  0.00    +0.000 S 
ATOM      7  C   UNL     1      50.669   4.927  17.280  0.00  0.00    +0.000 A 
ATOM      8  N   UNL     1      50.752   3.773  17.990  0.00  0.00    +0.000 NA
ATOM      9  C   UNL     1      49.622   3.176  18.156  0.00  0.00    +0.000 A 
ATOM     10  N   UNL     1      48.414   3.636  17.670  0.00  0.00    +0.000 N 
ATOM     11  C   UNL     1      48.304   4.751  16.872  0.00  0.00    +0.000 A 
ATOM     12  O   UNL     1      47.253   4.992  16.282  0.00  0.00    +0.000 OA
ATOM     13  C   UNL     1      49.535   5.504  16.728  0.00  0.00    +0.000 A 
ATOM     14  H   UNL     1      47.582   3.076  17.772  0.00  0.00    +0.000 HD
ENDBRANCH   2   4
BRANCH   1  15
ATOM     15  C   UNL     1      47.191   8.562  13.900  0.00  0.00    +0.000 C 
BRANCH  15  16
ATOM     16  C   UNL     1      47.432   9.797  13.001  0.00  0.00    +0.000 C 
BRANCH  16  17
ATOM     17  N   UNL     1      46.249  10.296  12.289  0.00  0.00    +0.000 NA
ATOM     18  H   UNL     1      46.461  10.346  11.292  0.00  0.00    +0.000 HD
ATOM     19  H   UNL     1      46.038  11.248  12.587  0.00  0.00    +0.000 HD
ENDBRANCH  16  17
ENDBRANCH  15  16
ENDBRANCH   1  15
BRANCH   1  20
ATOM     20  C   UNL     1      48.527   6.495  13.339  0.00  0.00    +0.000 C 
BRANCH  20  21
ATOM     21  C   UNL     1      47.271   5.998  12.638  0.00  0.00    +0.000 A 
ATOM     22  C   UNL     1      46.442   5.002  13.175  0.00  0.00    +0.000 A 
ATOM     23  C   UNL     1      45.235   4.655  12.567  0.00  0.00    +0.000 A 
ATOM     24  C   UNL     1      44.878   5.201  11.332  0.00  0.00    +0.000 A 
ATOM     25  C   UNL     1      45.713   6.166  10.762  0.00  0.00    +0.000 A 
ATOM     26  C   UNL     1      46.872   6.583  11.428  0.00  0.00    +0.000 A 
BRANCH  24  27
ATOM     27  C   UNL     1      43.619   4.728  10.646  0.00  0.00    +0.000 C 
BRANCH  27  28
ATOM     28  N   UNL     1      43.938   4.281   9.297  0.00  0.00    +0.000 NA
ATOM     29  H   UNL     1      44.578   4.951   8.872  0.00  0.00    +0.000 HD
BRANCH  28  30
ATOM     30  C   UNL     1      44.497   2.937   9.248  0.00  0.00    +0.000 C 
BRANCH  30  31
ATOM     31  C   UNL     1      45.900   3.035   8.650  0.00  0.00    +0.000 C 
ATOM     32  C   UNL     1      46.304   1.849   7.791  0.00  0.00    +0.000 C 
ATOM     33  C   UNL     1      47.414   2.446   6.949  0.00  0.00    +0.000 C 
ATOM     34  N   UNL     1      46.906   3.770   6.580  0.00  0.00    +0.000 NA
ATOM     35  C   UNL     1      46.097   4.238   7.722  0.00  0.00    +0.000 C 
ATOM     36  H   UNL     1      46.282   3.667   5.778  0.00  0.00    +0.000 HD
ENDBRANCH  30  31
ENDBRANCH  28  30
ENDBRANCH  27  28
ENDBRANCH  24  27
ENDBRANCH  20  21
ENDBRANCH   1  20
TORSDOF 10
ENDMDL
MODEL 6
REMARK VINA RESULT:    -6.395      3.793      8.515
REMARK INTER + INTRA:         -11.546
REMARK INTER:                 -10.014
REMARK INTRA:                  -1.532
REMARK UNBOUND:                -1.599
REMARK  Name = 
REMARK  10 active torsions:
REMARK  status: ('A' for Active; 'I' for Inactive)
REMARK    1  A    between atoms: N_1  and  C_2
REMARK    2  A    between atoms: C_2  and  C_3
REMARK    3  A    between atoms: C_3  and  N_4
REMARK    4  A    between atoms: N_4  and  C_5
REMARK    5  A    between atoms: C_5  and  C_6
REMARK    6  A    between atoms: C_9  and  C_10
REMARK    7  A    between atoms: C_10  and  N_11
REMARK    8  A    between atoms: N_11  and  C_12
REMARK    9  A    between atoms: C_12  and  C_13
REMARK   10  A    between atoms: C_20  and  C_22
REMARK                            x       y       z     vdW  Elec       q    Type
REMARK                         _______ _______ _______ _____ _____    ______ ____
ROOT
ATOM      1  N   UNL     1      48.904   7.676  13.996  0.00  0.00    +0.000 N 
ATOM      2  C   UNL     1      49.550   7.051  15.096  0.00  0.00    +0.000 C 
ATOM      3  O   UNL     1      50.777   6.913  15.098  0.00  0.00    +0.000 OA
ENDROOT
BRANCH   2   4
ATOM      4  C   UNL     1      48.773   6.495  16.233  0.00  0.00    +0.000 A 
ATOM      5  C   UNL     1      48.230   5.229  16.315  0.00  0.00    +0.000 A 
ATOM      6  S   UNL     1      47.566   4.809  17.825  0.00  0.00    +0.000 S 
ATOM      7  C   UNL     1      47.939   6.336  18.446  0.00  0.00    +0.000 A 
ATOM      8  N   UNL     1      47.633   6.632  19.735  0.00  0.00    +0.000 NA
ATOM      9  C   UNL     1      47.954   7.830  20.089  0.00  0.00    +0.000 A 
ATOM     10  N   UNL     1      48.555   8.757  19.260  0.00  0.00    +0.000 N 
ATOM     11  C   UNL     1      48.798   8.523  17.926  0.00  0.00    +0.000 A 
ATOM     12  O   UNL     1      49.122   9.445  17.182  0.00  0.00    +0.000 OA
ATOM     13  C   UNL     1      48.532   7.161  17.503  0.00  0.00    +0.000 A 
ATOM     14  H   UNL     1      48.706   9.700  19.582  0.00  0.00    +0.000 HD
ENDBRANCH   2   4
BRANCH   1  15
ATOM     15  C   UNL     1      49.827   8.301  13.011  0.00  0.00    +0.000 C 
BRANCH  15  16
ATOM     16  C   UNL     1      49.943   7.720  11.582  0.00  0.00    +0.000 C 
BRANCH  16  17
ATOM     17  N   UNL     1      51.294   7.314  11.179  0.00  0.00    +0.000 NA
ATOM     18  H   UNL     1      51.828   8.147  10.926  0.00  0.00    +0.000 HD
ATOM     19  H   UNL     1      51.248   6.737  10.339  0.00  0.00    +0.000 HD
ENDBRANCH  16  17
ENDBRANCH  15  16
ENDBRANCH   1  15
BRANCH   1  20
ATOM     20  C   UNL     1      47.512   8.130  14.003  0.00  0.00    +0.000 C 
BRANCH  20  21
ATOM     21  C   UNL     1      46.571   7.296  13.146  0.00  0.00    +0.000 A 
ATOM     22  C   UNL     1      45.438   7.831  12.516  0.00  0.00    +0.000 A 
ATOM     23  C   UNL     1      44.666   7.068  11.639  0.00  0.00    +0.000 A 
ATOM     24  C   UNL     1      44.926   5.707  11.462  0.00  0.00    +0.000 A 
ATOM     25  C   UNL     1      46.027   5.148  12.114  0.00  0.00    +0.000 A 
ATOM     26  C   UNL     1      46.858   5.943  12.913  0.00  0.00    +0.000 A 
BRANCH  24  27
ATOM     27  C   UNL     1      44.009   4.882  10.591  0.00  0.00    +0.000 C 
BRANCH  27  28
ATOM     28  N   UNL     1      44.627   4.680   9.288  0.00  0.00    +0.000 NA
ATOM     29  H   UNL     1      45.565   5.080   9.305  0.00  0.00    +0.000 HD
BRANCH  28  30
ATOM     30  C   UNL     1      44.673   3.283   8.877  0.00  0.00    +0.000 C 
BRANCH  30  31
ATOM     31  C   UNL     1      46.108   2.965   8.457  0.00  0.00    +0.000 C 
ATOM     32  C   UNL     1      46.317   1.550   7.945  0.00  0.00    +0.000 C 
ATOM     33  C   UNL     1      47.591   1.702   7.139  0.00  0.00    +0.000 C 
ATOM     34  N   UNL     1      47.407   2.965   6.419  0.00  0.00    +0.000 NA
ATOM     35  C   UNL     1      46.628   3.843   7.314  0.00  0.00    +0.000 C 
ATOM     36  H   UNL     1      46.840   2.786   5.589  0.00  0.00    +0.000 HD
ENDBRANCH  30  31
ENDBRANCH  28  30
ENDBRANCH  27  28
ENDBRANCH  24  27
ENDBRANCH  20  21
ENDBRANCH   1  20
TORSDOF 10
ENDMDL
MODEL 7
REMARK VINA RESULT:    -6.207      3.739      8.332
REMARK INTER + INTRA:         -11.254
REMARK INTER:                 -10.059
REMARK INTRA:                  -1.195
REMARK UNBOUND:                -1.599
REMARK  Name = 
REMARK  10 active torsions:
REMARK  status: ('A' for Active; 'I' for Inactive)
REMARK    1  A    between atoms: N_1  and  C_2
REMARK    2  A    between atoms: C_2  and  C_3
REMARK    3  A    between atoms: C_3  and  N_4
REMARK    4  A    between atoms: N_4  and  C_5
REMARK    5  A    between atoms: C_5  and  C_6
REMARK    6  A    between atoms: C_9  and  C_10
REMARK    7  A    between atoms: C_10  and  N_11
REMARK    8  A    between atoms: N_11  and  C_12
REMARK    9  A    between atoms: C_12  and  C_13
REMARK   10  A    between atoms: C_20  and  C_22
REMARK                            x       y       z     vdW  Elec       q    Type
REMARK                         _______ _______ _______ _____ _____    ______ ____
ROOT
ATOM      1  N   UNL     1      47.983   6.798  14.399  0.00  0.00    +0.000 N 
ATOM      2  C   UNL     1      49.243   7.397  14.663  0.00  0.00    +0.000 C 
ATOM      3  O   UNL     1      50.143   6.739  15.194  0.00  0.00    +0.000 OA
ENDROOT
BRANCH   2   4
ATOM      4  C   UNL     1      49.493   8.831  14.371  0.00  0.00    +0.000 A 
ATOM      5  C   UNL     1      49.322   9.889  15.241  0.00  0.00    +0.000 A 
ATOM      6  S   UNL     1      49.881  11.398  14.686  0.00  0.00    +0.000 S 
ATOM      7  C   UNL     1      50.351  10.714  13.214  0.00  0.00    +0.000 A 
ATOM      8  N   UNL     1      50.930  11.492  12.264  0.00  0.00    +0.000 NA
ATOM      9  C   UNL     1      51.232  10.861  11.181  0.00  0.00    +0.000 A 
ATOM     10  N   UNL     1      51.003   9.516  10.968  0.00  0.00    +0.000 N 
ATOM     11  C   UNL     1      50.339   8.717  11.871  0.00  0.00    +0.000 A 
ATOM     12  O   UNL     1      49.961   7.594  11.546  0.00  0.00    +0.000 OA
ATOM     13  C   UNL     1      50.055   9.362  13.139  0.00  0.00    +0.000 A 
ATOM     14  H   UNL     1      51.194   9.106  10.067  0.00  0.00    +0.000 HD
ENDBRANCH   2   4
BRANCH   1  15
ATOM     15  C   UNL     1      47.939   5.328  14.617  0.00  0.00    +0.000 C 
BRANCH  15  16
ATOM     16  C   UNL     1      47.656   4.763  16.029  0.00  0.00    +0.000 C 
BRANCH  16  17
ATOM     17  N   UNL     1      48.828   4.235  16.740  0.00  0.00    +0.000 NA
ATOM     18  H   UNL     1      49.382   5.017  17.089  0.00  0.00    +0.000 HD
ATOM     19  H   UNL     1      49.427   3.725  16.092  0.00  0.00    +0.000 HD
ENDBRANCH  16  17
ENDBRANCH  15  16
ENDBRANCH   1  15
BRANCH   1  20
ATOM     20  C   UNL     1      46.950   7.387  13.543  0.00  0.00    +0.000 C 
BRANCH  20  21
ATOM     21  C   UNL     1      46.175   6.382  12.705  0.00  0.00    +0.000 A 
ATOM     22  C   UNL     1      45.172   5.557  13.236  0.00  0.00    +0.000 A 
ATOM     23  C   UNL     1      44.397   4.735  12.418  0.00  0.00    +0.000 A 
ATOM     24  C   UNL     1      44.685   4.612  11.056  0.00  0.00    +0.000 A 
ATOM     25  C   UNL     1      45.708   5.395  10.518  0.00  0.00    +0.000 A 
ATOM     26  C   UNL     1      46.415   6.294  11.326  0.00  0.00    +0.000 A 
BRANCH  24  27
ATOM     27  C   UNL     1      43.900   3.633  10.216  0.00  0.00    +0.000 C 
BRANCH  27  28
ATOM     28  N   UNL     1      44.626   2.374  10.129  0.00  0.00    +0.000 NA
ATOM     29  H   UNL     1      44.149   1.679  10.704  0.00  0.00    +0.000 HD
BRANCH  28  30
ATOM     30  C   UNL     1      44.783   1.888   8.764  0.00  0.00    +0.000 C 
BRANCH  30  31
ATOM     31  C   UNL     1      46.158   2.330   8.264  0.00  0.00    +0.000 C 
ATOM     32  C   UNL     1      46.937   1.256   7.525  0.00  0.00    +0.000 C 
ATOM     33  C   UNL     1      47.920   2.087   6.725  0.00  0.00    +0.000 C 
ATOM     34  N   UNL     1      47.115   3.205   6.225  0.00  0.00    +0.000 NA
ATOM     35  C   UNL     1      46.112   3.494   7.268  0.00  0.00    +0.000 C 
ATOM     36  H   UNL     1      46.615   2.897   5.390  0.00  0.00    +0.000 HD
ENDBRANCH  30  31
ENDBRANCH  28  30
ENDBRANCH  27  28
ENDBRANCH  24  27
ENDBRANCH  20  21
ENDBRANCH   1  20
TORSDOF 10
ENDMDL
MODEL 8
REMARK VINA RESULT:    -6.187      3.229      8.224
REMARK INTER + INTRA:         -11.223
REMARK INTER:                  -9.939
REMARK INTRA:                  -1.284
REMARK UNBOUND:                -1.599
REMARK  Name = 
REMARK  10 active torsions:
REMARK  status: ('A' for Active; 'I' for Inactive)
REMARK    1  A    between atoms: N_1  and  C_2
REMARK    2  A    between atoms: C_2  and  C_3
REMARK    3  A    between atoms: C_3  and  N_4
REMARK    4  A    between atoms: N_4  and  C_5
REMARK    5  A    between atoms: C_5  and  C_6
REMARK    6  A    between atoms: C_9  and  C_10
REMARK    7  A    between atoms: C_10  and  N_11
REMARK    8  A    between atoms: N_11  and  C_12
REMARK    9  A    between atoms: C_12  and  C_13
REMARK   10  A    between atoms: C_20  and  C_22
REMARK                            x       y       z     vdW  Elec       q    Type
REMARK                         _______ _______ _______ _____ _____    ______ ____
ROOT
ATOM      1  N   UNL     1      48.736   7.642  14.793  0.00  0.00    +0.000 N 
ATOM      2  C   UNL     1      48.659   7.395  16.189  0.00  0.00    +0.000 C 
ATOM      3  O   UNL     1      48.460   8.327  16.974  0.00  0.00    +0.000 OA
ENDROOT
BRANCH   2   4
ATOM      4  C   UNL     1      48.874   6.035  16.746  0.00  0.00    +0.000 A 
ATOM      5  C   UNL     1      47.912   5.065  16.937  0.00  0.00    +0.000 A 
ATOM      6  S   UNL     1      48.491   3.534  17.405  0.00  0.00    +0.000 S 
ATOM      7  C   UNL     1      50.080   4.108  17.418  0.00  0.00    +0.000 A 
ATOM      8  N   UNL     1      51.098   3.268  17.737  0.00  0.00    +0.000 NA
ATOM      9  C   UNL     1      52.261   3.824  17.725  0.00  0.00    +0.000 A 
ATOM     10  N   UNL     1      52.492   5.151  17.422  0.00  0.00    +0.000 N 
ATOM     11  C   UNL     1      51.479   6.052  17.182  0.00  0.00    +0.000 A 
ATOM     12  O   UNL     1      51.716   7.257  17.140  0.00  0.00    +0.000 OA
ATOM     13  C   UNL     1      50.160   5.456  17.101  0.00  0.00    +0.000 A 
ATOM     14  H   UNL     1      53.419   5.536  17.509  0.00  0.00    +0.000 HD
ENDBRANCH   2   4
BRANCH   1  15
ATOM     15  C   UNL     1      48.360   9.022  14.387  0.00  0.00    +0.000 C 
BRANCH  15  16
ATOM     16  C   UNL     1      49.310  10.205  14.692  0.00  0.00    +0.000 C 
BRANCH  16  17
ATOM     17  N   UNL     1      48.761  11.236  15.581  0.00  0.00    +0.000 NA
ATOM     18  H   UNL     1      49.514  11.601  16.167  0.00  0.00    +0.000 HD
ATOM     19  H   UNL     1      48.078  10.822  16.215  0.00  0.00    +0.000 HD
ENDBRANCH  16  17
ENDBRANCH  15  16
ENDBRANCH   1  15
BRANCH   1  20
ATOM     20  C   UNL     1      48.699   6.599  13.765  0.00  0.00    +0.000 C 
BRANCH  20  21
ATOM     21  C   UNL     1      47.320   6.344  13.174  0.00  0.00    +0.000 A 
ATOM     22  C   UNL     1      46.416   5.420  13.717  0.00  0.00    +0.000 A 
ATOM     23  C   UNL     1      45.116   5.298  13.226  0.00  0.00    +0.000 A 
ATOM     24  C   UNL     1      44.717   6.006  12.088  0.00  0.00    +0.000 A 
ATOM     25  C   UNL     1      45.618   6.901  11.509  0.00  0.00    +0.000 A 
ATOM     26  C   UNL     1      46.887   7.093  12.070  0.00  0.00    +0.000 A 
BRANCH  24  27
ATOM     27  C   UNL     1      43.340   5.774  11.515  0.00  0.00    +0.000 C 
BRANCH  27  28
ATOM     28  N   UNL     1      43.452   5.053  10.254  0.00  0.00    +0.000 NA
ATOM     29  H   UNL     1      44.150   5.517   9.672  0.00  0.00    +0.000 HD
BRANCH  28  30
ATOM     30  C   UNL     1      43.780   3.643  10.419  0.00  0.00    +0.000 C 
BRANCH  30  31
ATOM     31  C   UNL     1      45.074   3.369   9.654  0.00  0.00    +0.000 C 
ATOM     32  C   UNL     1      45.059   2.099   8.821  0.00  0.00    +0.000 C 
ATOM     33  C   UNL     1      46.163   2.377   7.821  0.00  0.00    +0.000 C 
ATOM     34  N   UNL     1      45.954   3.776   7.440  0.00  0.00    +0.000 NA
ATOM     35  C   UNL     1      45.440   4.460   8.642  0.00  0.00    +0.000 C 
ATOM     36  H   UNL     1      45.225   3.813   6.726  0.00  0.00    +0.000 HD
ENDBRANCH  30  31
ENDBRANCH  28  30
ENDBRANCH  27  28
ENDBRANCH  24  27
ENDBRANCH  20  21
ENDBRANCH   1  20
TORSDOF 10
ENDMDL
MODEL 9
REMARK VINA RESULT:    -5.597      3.871      5.191
REMARK INTER + INTRA:         -10.305
REMARK INTER:                  -9.377
REMARK INTRA:                  -0.928
REMARK UNBOUND:                -1.599
REMARK  Name = 
REMARK  10 active torsions:
REMARK  status: ('A' for Active; 'I' for Inactive)
REMARK    1  A    between atoms: N_1  and  C_2
REMARK    2  A    between atoms: C_2  and  C_3
REMARK    3  A    between atoms: C_3  and  N_4
REMARK    4  A    between atoms: N_4  and  C_5
REMARK    5  A    between atoms: C_5  and  C_6
REMARK    6  A    between atoms: C_9  and  C_10
REMARK    7  A    between atoms: C_10  and  N_11
REMARK    8  A    between atoms: N_11  and  C_12
REMARK    9  A    between atoms: C_12  and  C_13
REMARK   10  A    between atoms: C_20  and  C_22
REMARK                            x       y       z     vdW  Elec       q    Type
REMARK                         _______ _______ _______ _____ _____    ______ ____
ROOT
ATOM      1  N   UNL     1      45.256   6.978  12.802  0.00  0.00    +0.000 N 
ATOM      2  C   UNL     1      44.293   6.475  11.888  0.00  0.00    +0.000 C 
ATOM      3  O   UNL     1      43.478   7.239  11.362  0.00  0.00    +0.000 OA
ENDROOT
BRANCH   2   4
ATOM      4  C   UNL     1      44.198   5.023  11.587  0.00  0.00    +0.000 A 
ATOM      5  C   UNL     1      43.552   4.068  12.345  0.00  0.00    +0.000 A 
ATOM      6  S   UNL     1      43.441   2.521  11.644  0.00  0.00    +0.000 S 
ATOM      7  C   UNL     1      44.301   3.044  10.286  0.00  0.00    +0.000 A 
ATOM      8  N   UNL     1      44.548   2.178   9.270  0.00  0.00    +0.000 NA
ATOM      9  C   UNL     1      45.223   2.689   8.298  0.00  0.00    +0.000 A 
ATOM     10  N   UNL     1      45.672   3.994   8.256  0.00  0.00    +0.000 N 
ATOM     11  C   UNL     1      45.518   4.873   9.304  0.00  0.00    +0.000 A 
ATOM     12  O   UNL     1      46.125   5.941   9.313  0.00  0.00    +0.000 OA
ATOM     13  C   UNL     1      44.692   4.370  10.385  0.00  0.00    +0.000 A 
ATOM     14  H   UNL     1      46.260   4.302   7.498  0.00  0.00    +0.000 HD
ENDBRANCH   2   4
BRANCH   1  15
ATOM     15  C   UNL     1      45.312   8.461  12.886  0.00  0.00    +0.000 C 
BRANCH  15  16
ATOM     16  C   UNL     1      45.509   9.303  11.604  0.00  0.00    +0.000 C 
BRANCH  16  17
ATOM     17  N   UNL     1      46.462  10.413  11.722  0.00  0.00    +0.000 NA
ATOM     18  H   UNL     1      46.149  11.039  12.465  0.00  0.00    +0.000 HD
ATOM     19  H   UNL     1      46.464  10.964  10.864  0.00  0.00    +0.000 HD
ENDBRANCH  16  17
ENDBRANCH  15  16
ENDBRANCH   1  15
BRANCH   1  20
ATOM     20  C   UNL     1      46.423   6.227  13.271  0.00  0.00    +0.000 C 
BRANCH  20  21
ATOM     21  C   UNL     1      47.756   6.926  13.046  0.00  0.00    +0.000 A 
ATOM     22  C   UNL     1      48.578   7.359  14.097  0.00  0.00    +0.000 A 
ATOM     23  C   UNL     1      49.847   7.885  13.859  0.00  0.00    +0.000 A 
ATOM     24  C   UNL     1      50.287   8.118  12.553  0.00  0.00    +0.000 A 
ATOM     25  C   UNL     1      49.464   7.731  11.493  0.00  0.00    +0.000 A 
ATOM     26  C   UNL     1      48.234   7.109  11.740  0.00  0.00    +0.000 A 
BRANCH  24  27
ATOM     27  C   UNL     1      51.621   8.788  12.326  0.00  0.00    +0.000 C 
BRANCH  27  28
ATOM     28  N   UNL     1      51.929   8.790  10.903  0.00  0.00    +0.000 NA
ATOM     29  H   UNL     1      51.970   9.756  10.577  0.00  0.00    +0.000 HD
BRANCH  28  30
ATOM     30  C   UNL     1      53.163   8.088  10.575  0.00  0.00    +0.000 C 
BRANCH  30  31
ATOM     31  C   UNL     1      52.809   6.930   9.642  0.00  0.00    +0.000 C 
ATOM     32  C   UNL     1      53.078   7.199   8.171  0.00  0.00    +0.000 C 
ATOM     33  C   UNL     1      53.162   5.792   7.614  0.00  0.00    +0.000 C 
ATOM     34  N   UNL     1      53.944   5.060   8.615  0.00  0.00    +0.000 NA
ATOM     35  C   UNL     1      53.593   5.644   9.924  0.00  0.00    +0.000 C 
ATOM     36  H   UNL     1      54.935   5.242   8.449  0.00  0.00    +0.000 HD
ENDBRANCH  30  31
ENDBRANCH  28  30
ENDBRANCH  27  28
ENDBRANCH  24  27
ENDBRANCH  20  21
ENDBRANCH   1  20
TORSDOF 10
ENDMDL
