MODEL 1
REMARK VINA RESULT:    -9.565      0.000      0.000
REMARK INTER + INTRA:         -12.619
REMARK INTER:                 -11.801
REMARK INTRA:                  -0.818
REMARK UNBOUND:                -0.818
REMARK  Name = 
REMARK  4 active torsions:
REMARK  status: ('A' for Active; 'I' for Inactive)
REMARK    1  A    between atoms: C_2  and  C_4
REMARK    2  A    between atoms: N_8  and  C_9
REMARK    3  A    between atoms: C_9  and  C_10
REMARK    4  A    between atoms: C_14  and  C_15
REMARK                            x       y       z     vdW  Elec       q    Type
REMARK                         _______ _______ _______ _____ _____    ______ ____
ROOT
ATOM      1  C   UNL     1      43.384   4.639  11.071  0.00  0.00    +0.000 C 
ENDROOT
BRANCH   1   6
ATOM      2  C   UNL     1      46.432   2.359   7.652  0.00  0.00    +0.000 A 
ATOM      3  C   UNL     1      45.641   1.780   8.637  0.00  0.00    +0.000 A 
ATOM      4  C   UNL     1      44.748   2.582   9.351  0.00  0.00    +0.000 A 
ATOM      5  C   UNL     1      44.675   3.946   9.087  0.00  0.00    +0.000 A 
ATOM      6  N   UNL     1      43.750   4.782   9.676  0.00  0.00    +0.000 N 
ATOM      7  N   UNL     1      45.455   4.520   8.150  0.00  0.00    +0.000 NA
ATOM      8  C   UNL     1      46.315   3.726   7.456  0.00  0.00    +0.000 A 
ATOM      9  H   UNL     1      43.955   5.735   9.383  0.00  0.00    +0.000 HD
BRANCH   2  11
ATOM     10  N   UNL     1      48.566   2.186   6.495  0.00  0.00    +0.000 N 
ATOM     11  C   UNL     1      47.384   1.583   6.832  0.00  0.00    +0.000 C 
ATOM     12  O   UNL     1      47.139   0.431   6.493  0.00  0.00    +0.000 OA
ATOM     13  H   UNL     1      49.247   1.604   6.024  0.00  0.00    +0.000 HD
ATOM     14  H   UNL     1      48.907   3.012   6.964  0.00  0.00    +0.000 HD
ENDBRANCH   2  11
ENDBRANCH   1   6
BRANCH   1  15
ATOM     15  C   UNL     1      44.559   5.000  11.938  0.00  0.00    +0.000 A 
ATOM     16  C   UNL     1      44.959   4.156  12.969  0.00  0.00    +0.000 A 
ATOM     17  N   UNL     1      46.030   4.379  13.755  0.00  0.00    +0.000 NA
ATOM     18  C   UNL     1      46.750   5.498  13.501  0.00  0.00    +0.000 A 
ATOM     19  C   UNL     1      46.473   6.423  12.488  0.00  0.00    +0.000 A 
ATOM     20  C   UNL     1      45.339   6.141  11.705  0.00  0.00    +0.000 A 
BRANCH  19  21
ATOM     21  C   UNL     1      47.328   7.608  12.237  0.00  0.00    +0.000 A 
ATOM     22  C   UNL     1      48.653   7.467  11.772  0.00  0.00    +0.000 A 
ATOM     23  C   UNL     1      49.486   8.577  11.571  0.00  0.00    +0.000 A 
ATOM     24  C   UNL     1      49.008   9.860  11.818  0.00  0.00    +0.000 A 
ATOM     25  C   UNL     1      47.703  10.022  12.258  0.00  0.00    +0.000 A 
ATOM     26  F   UNL     1      47.240  11.259  12.490  0.00  0.00    +0.000 F 
ATOM     27  C   UNL     1      46.875   8.920  12.467  0.00  0.00    +0.000 A 
ATOM     28  F   UNL     1      45.631   9.142  12.919  0.00  0.00    +0.000 F 
ENDBRANCH  19  21
ENDBRANCH   1  15
TORSDOF 4
ENDMDL
MODEL 2
REMARK VINA RESULT:    -8.516      2.396      3.620
REMARK INTER + INTRA:         -11.326
REMARK INTER:                 -10.960
REMARK INTRA:                  -0.366
REMARK UNBOUND:                -0.818
REMARK  Name = 
REMARK  4 active torsions:
REMARK  status: ('A' for Active; 'I' for Inactive)
REMARK    1  A    between atoms: C_2  and  C_4
REMARK    2  A    between atoms: N_8  and  C_9
REMARK    3  A    between atoms: C_9  and  C_10
REMARK    4  A    between atoms: C_14  and  C_15
REMARK                            x       y       z     vdW  Elec       q    Type
REMARK                         _______ _______ _______ _____ _____    ______ ____
ROOT
ATOM      1  C   UNL     1      43.795   4.951  11.166  0.00  0.00    +0.000 C 
ENDROOT
BRANCH   1   6
ATOM      2  C   UNL     1      46.439   2.313   7.670  0.00  0.00    +0.000 A 
ATOM      3  C   UNL     1      45.728   1.838   8.766  0.00  0.00    +0.000 A 
ATOM      4  C   UNL     1      44.930   2.723   9.494  0.00  0.00    +0.000 A 
ATOM      5  C   UNL     1      44.872   4.065   9.132  0.00  0.00    +0.000 A 
ATOM      6  N   UNL     1      44.032   4.976   9.737  0.00  0.00    +0.000 N 
ATOM      7  N   UNL     1      45.576   4.539   8.086  0.00  0.00    +0.000 NA
ATOM      8  C   UNL     1      46.344   3.665   7.380  0.00  0.00    +0.000 A 
ATOM      9  H   UNL     1      44.236   5.896   9.353  0.00  0.00    +0.000 HD
BRANCH   2  11
ATOM     10  N   UNL     1      48.354   2.021   6.198  0.00  0.00    +0.000 N 
ATOM     11  C   UNL     1      47.286   1.443   6.829  0.00  0.00    +0.000 C 
ATOM     12  O   UNL     1      47.060   0.243   6.725  0.00  0.00    +0.000 OA
ATOM     13  H   UNL     1      48.982   1.393   5.712  0.00  0.00    +0.000 HD
ATOM     14  H   UNL     1      48.717   2.925   6.462  0.00  0.00    +0.000 HD
ENDBRANCH   2  11
ENDBRANCH   1   6
BRANCH   1  15
ATOM     15  C   UNL     1      44.933   5.633  11.875  0.00  0.00    +0.000 A 
ATOM     16  C   UNL     1      45.306   6.927  11.523  0.00  0.00    +0.000 A 
ATOM     17  N   UNL     1      46.276   7.628  12.142  0.00  0.00    +0.000 NA
ATOM     18  C   UNL     1      46.907   7.015  13.173  0.00  0.00    +0.000 A 
ATOM     19  C   UNL     1      46.624   5.728  13.643  0.00  0.00    +0.000 A 
ATOM     20  C   UNL     1      45.607   5.043  12.952  0.00  0.00    +0.000 A 
BRANCH  19  21
ATOM     21  C   UNL     1      47.326   5.132  14.804  0.00  0.00    +0.000 A 
ATOM     22  C   UNL     1      47.128   3.782  15.162  0.00  0.00    +0.000 A 
ATOM     23  C   UNL     1      47.751   3.217  16.284  0.00  0.00    +0.000 A 
ATOM     24  C   UNL     1      48.603   3.988  17.069  0.00  0.00    +0.000 A 
ATOM     25  C   UNL     1      48.826   5.312  16.723  0.00  0.00    +0.000 A 
ATOM     26  F   UNL     1      49.652   6.053  17.476  0.00  0.00    +0.000 F 
ATOM     27  C   UNL     1      48.200   5.879  15.614  0.00  0.00    +0.000 A 
ATOM     28  F   UNL     1      48.437   7.173  15.349  0.00  0.00    +0.000 F 
ENDBRANCH  19  21
ENDBRANCH   1  15
TORSDOF 4
ENDMDL
MODEL 3
REMARK VINA RESULT:    -8.110      4.233      7.338
REMARK INTER + INTRA:         -10.824
REMARK INTER:                 -10.610
REMARK INTRA:                  -0.213
REMARK UNBOUND:                -0.818
REMARK  Name = 
REMARK  4 active torsions:
REMARK  status: ('A' for Active; 'I' for Inactive)
REMARK    1  A    between atoms: C_2  and  C_4
REMARK    2  A    between atoms: N_8  and  C_9
REMARK    3  A    between atoms: C_9  and  C_10
REMARK    4  A    between atoms: C_14  and  C_15
REMARK                            x       y       z     vdW  Elec       q    Type
REMARK                         _______ _______ _______ _____ _____    ______ ____
ROOT
ATOM      1  C   UNL     1      45.824   7.385  11.728  0.00  0.00    +0.000 C 
ENDROOT
BRANCH   1   6
ATOM      2  C   UNL     1      47.349   4.415  15.604  0.00  0.00    +0.000 A 
ATOM      3  C   UNL     1      46.286   4.227  14.728  0.00  0.00    +0.000 A 
ATOM      4  C   UNL     1      46.154   5.076  13.627  0.00  0.00    +0.000 A 
ATOM      5  C   UNL     1      47.068   6.107  13.431  0.00  0.00    +0.000 A 
ATOM      6  N   UNL     1      47.063   6.920  12.317  0.00  0.00    +0.000 N 
ATOM      7  N   UNL     1      48.087   6.311  14.288  0.00  0.00    +0.000 NA
ATOM      8  C   UNL     1      48.209   5.472  15.353  0.00  0.00    +0.000 A 
ATOM      9  H   UNL     1      47.770   7.640  12.450  0.00  0.00    +0.000 HD
BRANCH   2  11
ATOM     10  N   UNL     1      48.872   3.390  17.201  0.00  0.00    +0.000 N 
ATOM     11  C   UNL     1      47.580   3.549  16.778  0.00  0.00    +0.000 C 
ATOM     12  O   UNL     1      46.647   3.018  17.371  0.00  0.00    +0.000 OA
ATOM     13  H   UNL     1      49.001   2.879  18.066  0.00  0.00    +0.000 HD
ATOM     14  H   UNL     1      49.618   4.003  16.909  0.00  0.00    +0.000 HD
ENDBRANCH   2  11
ENDBRANCH   1   6
BRANCH   1  15
ATOM     15  C   UNL     1      45.143   6.241  11.025  0.00  0.00    +0.000 A 
ATOM     16  C   UNL     1      43.781   6.018  11.202  0.00  0.00    +0.000 A 
ATOM     17  N   UNL     1      43.086   5.051  10.570  0.00  0.00    +0.000 NA
ATOM     18  C   UNL     1      43.779   4.267   9.709  0.00  0.00    +0.000 A 
ATOM     19  C   UNL     1      45.143   4.391   9.423  0.00  0.00    +0.000 A 
ATOM     20  C   UNL     1      45.816   5.413  10.118  0.00  0.00    +0.000 A 
BRANCH  19  21
ATOM     21  C   UNL     1      45.831   3.525   8.437  0.00  0.00    +0.000 A 
ATOM     22  C   UNL     1      46.514   4.076   7.332  0.00  0.00    +0.000 A 
ATOM     23  C   UNL     1      47.132   3.267   6.368  0.00  0.00    +0.000 A 
ATOM     24  C   UNL     1      47.095   1.882   6.494  0.00  0.00    +0.000 A 
ATOM     25  C   UNL     1      46.445   1.319   7.583  0.00  0.00    +0.000 A 
ATOM     26  F   UNL     1      46.415  -0.015   7.708  0.00  0.00    +0.000 F 
ATOM     27  C   UNL     1      45.822   2.122   8.537  0.00  0.00    +0.000 A 
ATOM     28  F   UNL     1      45.187   1.515   9.553  0.00  0.00    +0.000 F 
ENDBRANCH  19  21
ENDBRANCH   1  15
TORSDOF 4
ENDMDL
MODEL 4
REMARK VINA RESULT:    -7.848      4.152      7.224
REMARK INTER + INTRA:         -10.501
REMARK INTER:                 -10.079
REMARK INTRA:                  -0.422
REMARK UNBOUND:                -0.818
REMARK  Name = 
REMARK  4 active torsions:
REMARK  status: ('A' for Active; 'I' for Inactive)
REMARK    1  A    between atoms: C_2  and  C_4
REMARK    2  A    between atoms: N_8  and  C_9
REMARK    3  A    between atoms: C_9  and  C_10
REMARK    4  A    between atoms: C_14  and  C_15
REMARK                            x       y       z     vdW  Elec       q    Type
REMARK                         _______ _______ _______ _____ _____    ______ ____
ROOT
ATOM      1  C   UNL     1      44.102   6.478  11.795  0.00  0.00    +0.000 C 
ENDROOT
BRANCH   1   6
ATOM      2  C   UNL     1      48.952   7.649  12.923  0.00  0.00    +0.000 A 
ATOM      3  C   UNL     1      48.096   8.262  12.014  0.00  0.00    +0.000 A 
ATOM      4  C   UNL     1      46.751   7.889  11.991  0.00  0.00    +0.000 A 
ATOM      5  C   UNL     1      46.288   6.902  12.855  0.00  0.00    +0.000 A 
ATOM      6  N   UNL     1      44.958   6.553  12.962  0.00  0.00    +0.000 N 
ATOM      7  N   UNL     1      47.115   6.287  13.723  0.00  0.00    +0.000 NA
ATOM      8  C   UNL     1      48.422   6.664  13.741  0.00  0.00    +0.000 A 
ATOM      9  H   UNL     1      44.890   5.758  13.594  0.00  0.00    +0.000 HD
BRANCH   2  11
ATOM     10  N   UNL     1      50.997   7.772  14.236  0.00  0.00    +0.000 N 
ATOM     11  C   UNL     1      50.383   8.000  13.034  0.00  0.00    +0.000 C 
ATOM     12  O   UNL     1      51.005   8.446  12.077  0.00  0.00    +0.000 OA
ATOM     13  H   UNL     1      51.998   7.920  14.263  0.00  0.00    +0.000 HD
ATOM     14  H   UNL     1      50.597   7.177  14.947  0.00  0.00    +0.000 HD
ENDBRANCH   2  11
ENDBRANCH   1   6
BRANCH   1  15
ATOM     15  C   UNL     1      44.143   5.084  11.231  0.00  0.00    +0.000 A 
ATOM     16  C   UNL     1      43.301   4.097  11.736  0.00  0.00    +0.000 A 
ATOM     17  N   UNL     1      43.237   2.840  11.252  0.00  0.00    +0.000 NA
ATOM     18  C   UNL     1      44.048   2.548  10.207  0.00  0.00    +0.000 A 
ATOM     19  C   UNL     1      44.928   3.445   9.592  0.00  0.00    +0.000 A 
ATOM     20  C   UNL     1      44.956   4.739  10.144  0.00  0.00    +0.000 A 
BRANCH  19  21
ATOM     21  C   UNL     1      45.758   3.071   8.422  0.00  0.00    +0.000 A 
ATOM     22  C   UNL     1      46.333   4.055   7.590  0.00  0.00    +0.000 A 
ATOM     23  C   UNL     1      47.083   3.715   6.456  0.00  0.00    +0.000 A 
ATOM     24  C   UNL     1      47.290   2.377   6.133  0.00  0.00    +0.000 A 
ATOM     25  C   UNL     1      46.749   1.394   6.947  0.00  0.00    +0.000 A 
ATOM     26  F   UNL     1      46.953   0.105   6.640  0.00  0.00    +0.000 F 
ATOM     27  C   UNL     1      45.994   1.729   8.070  0.00  0.00    +0.000 A 
ATOM     28  F   UNL     1      45.475   0.731   8.803  0.00  0.00    +0.000 F 
ENDBRANCH  19  21
ENDBRANCH   1  15
TORSDOF 4
ENDMDL
MODEL 5
REMARK VINA RESULT:    -7.726      2.153      2.666
REMARK INTER + INTRA:         -10.351
REMARK INTER:                 -10.180
REMARK INTRA:                  -0.171
REMARK UNBOUND:                -0.818
REMARK  Name = 
REMARK  4 active torsions:
REMARK  status: ('A' for Active; 'I' for Inactive)
REMARK    1  A    between atoms: C_2  and  C_4
REMARK    2  A    between atoms: N_8  and  C_9
REMARK    3  A    between atoms: C_9  and  C_10
REMARK    4  A    between atoms: C_14  and  C_15
REMARK                            x       y       z     vdW  Elec       q    Type
REMARK                         _______ _______ _______ _____ _____    ______ ____
ROOT
ATOM      1  C   UNL     1      43.425   3.522  10.903  0.00  0.00    +0.000 C 
ENDROOT
BRANCH   1   6
ATOM      2  C   UNL     1      46.698   2.545   7.095  0.00  0.00    +0.000 A 
ATOM      3  C   UNL     1      46.163   3.764   7.492  0.00  0.00    +0.000 A 
ATOM      4  C   UNL     1      45.421   3.828   8.673  0.00  0.00    +0.000 A 
ATOM      5  C   UNL     1      45.208   2.676   9.424  0.00  0.00    +0.000 A 
ATOM      6  N   UNL     1      44.574   2.678  10.649  0.00  0.00    +0.000 N 
ATOM      7  N   UNL     1      45.703   1.486   9.034  0.00  0.00    +0.000 NA
ATOM      8  C   UNL     1      46.431   1.438   7.885  0.00  0.00    +0.000 A 
ATOM      9  H   UNL     1      44.471   1.712  10.952  0.00  0.00    +0.000 HD
BRANCH   2  11
ATOM     10  N   UNL     1      47.351   3.318   4.882  0.00  0.00    +0.000 N 
ATOM     11  C   UNL     1      47.517   2.390   5.875  0.00  0.00    +0.000 C 
ATOM     12  O   UNL     1      48.336   1.485   5.768  0.00  0.00    +0.000 OA
ATOM     13  H   UNL     1      47.992   3.257   4.101  0.00  0.00    +0.000 HD
ATOM     14  H   UNL     1      46.892   4.203   5.037  0.00  0.00    +0.000 HD
ENDBRANCH   2  11
ENDBRANCH   1   6
BRANCH   1  15
ATOM     15  C   UNL     1      43.886   4.929  11.173  0.00  0.00    +0.000 A 
ATOM     16  C   UNL     1      42.995   5.993  11.065  0.00  0.00    +0.000 A 
ATOM     17  N   UNL     1      43.313   7.274  11.340  0.00  0.00    +0.000 NA
ATOM     18  C   UNL     1      44.582   7.511  11.752  0.00  0.00    +0.000 A 
ATOM     19  C   UNL     1      45.572   6.538  11.921  0.00  0.00    +0.000 A 
ATOM     20  C   UNL     1      45.183   5.221  11.611  0.00  0.00    +0.000 A 
BRANCH  19  21
ATOM     21  C   UNL     1      46.931   6.861  12.416  0.00  0.00    +0.000 A 
ATOM     22  C   UNL     1      47.817   7.652  11.655  0.00  0.00    +0.000 A 
ATOM     23  C   UNL     1      49.120   7.929  12.091  0.00  0.00    +0.000 A 
ATOM     24  C   UNL     1      49.566   7.432  13.312  0.00  0.00    +0.000 A 
ATOM     25  C   UNL     1      48.705   6.667  14.085  0.00  0.00    +0.000 A 
ATOM     26  F   UNL     1      49.132   6.193  15.264  0.00  0.00    +0.000 F 
ATOM     27  C   UNL     1      47.412   6.382  13.648  0.00  0.00    +0.000 A 
ATOM     28  F   UNL     1      46.637   5.614  14.431  0.00  0.00    +0.000 F 
ENDBRANCH  19  21
ENDBRANCH   1  15
TORSDOF 4
ENDMDL
MODEL 6
REMARK VINA RESULT:    -7.639      3.842      7.069
REMARK INTER + INTRA:         -10.243
REMARK INTER:                  -9.449
REMARK INTRA:                  -0.794
REMARK UNBOUND:                -0.818
REMARK  Name = 
REMARK  4 active torsions:
REMARK  status: ('A' for Active; 'I' for Inactive)
REMARK    1  A    between atoms: C_2  and  C_4
REMARK    2  A    between atoms: N_8  and  C_9
REMARK    3  A    between atoms: C_9  and  C_10
REMARK    4  A    between atoms: C_14  and  C_15
REMARK                            x       y       z     vdW  Elec       q    Type
REMARK                         _______ _______ _______ _____ _____    ______ ____
ROOT
ATOM      1  C   UNL     1      45.276   4.909  13.224  0.00  0.00    +0.000 C 
ENDROOT
BRANCH   1   6
ATOM      2  C   UNL     1      47.968   9.094  12.039  0.00  0.00    +0.000 A 
ATOM      3  C   UNL     1      48.272   7.762  11.785  0.00  0.00    +0.000 A 
ATOM      4  C   UNL     1      47.307   6.785  12.041  0.00  0.00    +0.000 A 
ATOM      5  C   UNL     1      46.071   7.148  12.564  0.00  0.00    +0.000 A 
ATOM      6  N   UNL     1      45.035   6.256  12.747  0.00  0.00    +0.000 N 
ATOM      7  N   UNL     1      45.776   8.434  12.835  0.00  0.00    +0.000 NA
ATOM      8  C   UNL     1      46.721   9.378  12.574  0.00  0.00    +0.000 A 
ATOM      9  H   UNL     1      44.276   6.746  13.215  0.00  0.00    +0.000 HD
BRANCH   2  11
ATOM     10  N   UNL     1      48.655  11.011  10.706  0.00  0.00    +0.000 N 
ATOM     11  C   UNL     1      48.917  10.195  11.774  0.00  0.00    +0.000 C 
ATOM     12  O   UNL     1      49.884  10.391  12.501  0.00  0.00    +0.000 OA
ATOM     13  H   UNL     1      49.256  11.819  10.602  0.00  0.00    +0.000 HD
ATOM     14  H   UNL     1      47.753  11.043  10.255  0.00  0.00    +0.000 HD
ENDBRANCH   2  11
ENDBRANCH   1   6
BRANCH   1  15
ATOM     15  C   UNL     1      44.789   3.920  12.200  0.00  0.00    +0.000 A 
ATOM     16  C   UNL     1      43.577   3.260  12.380  0.00  0.00    +0.000 A 
ATOM     17  N   UNL     1      43.044   2.402  11.488  0.00  0.00    +0.000 NA
ATOM     18  C   UNL     1      43.750   2.192  10.350  0.00  0.00    +0.000 A 
ATOM     19  C   UNL     1      44.969   2.799  10.032  0.00  0.00    +0.000 A 
ATOM     20  C   UNL     1      45.478   3.679  11.005  0.00  0.00    +0.000 A 
BRANCH  19  21
ATOM     21  C   UNL     1      45.669   2.555   8.748  0.00  0.00    +0.000 A 
ATOM     22  C   UNL     1      46.151   1.273   8.411  0.00  0.00    +0.000 A 
ATOM     23  C   UNL     1      46.853   1.038   7.220  0.00  0.00    +0.000 A 
ATOM     24  C   UNL     1      47.077   2.081   6.327  0.00  0.00    +0.000 A 
ATOM     25  C   UNL     1      46.595   3.346   6.630  0.00  0.00    +0.000 A 
ATOM     26  F   UNL     1      46.806   4.350   5.767  0.00  0.00    +0.000 F 
ATOM     27  C   UNL     1      45.906   3.584   7.818  0.00  0.00    +0.000 A 
ATOM     28  F   UNL     1      45.488   4.835   8.065  0.00  0.00    +0.000 F 
ENDBRANCH  19  21
ENDBRANCH   1  15
TORSDOF 4
ENDMDL
MODEL 7
REMARK VINA RESULT:    -6.950      4.848      8.152
REMARK INTER + INTRA:          -9.393
REMARK INTER:                  -8.769
REMARK INTRA:                  -0.624
REMARK UNBOUND:                -0.818
REMARK  Name = 
REMARK  4 active torsions:
REMARK  status: ('A' for Active; 'I' for Inactive)
REMARK    1  A    between atoms: C_2  and  C_4
REMARK    2  A    between atoms: N_8  and  C_9
REMARK    3  A    between atoms: C_9  and  C_10
REMARK    4  A    between atoms: C_14  and  C_15
REMARK                            x       y       z     vdW  Elec       q    Type
REMARK                         _______ _______ _______ _____ _____    ______ ____
ROOT
ATOM      1  C   UNL     1      48.334   7.608  13.896  0.00  0.00    +0.000 C 
ENDROOT
BRANCH   1   6
ATOM      2  C   UNL     1      50.935   5.004  17.450  0.00  0.00    +0.000 A 
ATOM      3  C   UNL     1      51.326   6.130  16.734  0.00  0.00    +0.000 A 
ATOM      4  C   UNL     1      50.387   6.787  15.935  0.00  0.00    +0.000 A 
ATOM      5  C   UNL     1      49.087   6.299  15.846  0.00  0.00    +0.000 A 
ATOM      6  N   UNL     1      48.081   6.948  15.161  0.00  0.00    +0.000 N 
ATOM      7  N   UNL     1      48.706   5.196  16.518  0.00  0.00    +0.000 NA
ATOM      8  C   UNL     1      49.628   4.569  17.299  0.00  0.00    +0.000 A 
ATOM      9  H   UNL     1      47.255   6.354  15.176  0.00  0.00    +0.000 HD
BRANCH   2  11
ATOM     10  N   UNL     1      51.710   2.904  18.404  0.00  0.00    +0.000 N 
ATOM     11  C   UNL     1      51.853   4.264  18.339  0.00  0.00    +0.000 C 
ATOM     12  O   UNL     1      52.732   4.841  18.969  0.00  0.00    +0.000 OA
ATOM     13  H   UNL     1      52.412   2.404  18.935  0.00  0.00    +0.000 HD
ATOM     14  H   UNL     1      51.186   2.380  17.718  0.00  0.00    +0.000 HD
ENDBRANCH   2  11
ENDBRANCH   1   6
BRANCH   1  15
ATOM     15  C   UNL     1      47.098   7.543  13.041  0.00  0.00    +0.000 A 
ATOM     16  C   UNL     1      46.283   8.663  12.898  0.00  0.00    +0.000 A 
ATOM     17  N   UNL     1      45.190   8.705  12.110  0.00  0.00    +0.000 NA
ATOM     18  C   UNL     1      44.893   7.577  11.421  0.00  0.00    +0.000 A 
ATOM     19  C   UNL     1      45.631   6.390  11.457  0.00  0.00    +0.000 A 
ATOM     20  C   UNL     1      46.757   6.404  12.301  0.00  0.00    +0.000 A 
BRANCH  19  21
ATOM     21  C   UNL     1      45.273   5.204  10.643  0.00  0.00    +0.000 A 
ATOM     22  C   UNL     1      45.637   5.114   9.283  0.00  0.00    +0.000 A 
ATOM     23  C   UNL     1      45.267   4.018   8.491  0.00  0.00    +0.000 A 
ATOM     24  C   UNL     1      44.533   2.974   9.046  0.00  0.00    +0.000 A 
ATOM     25  C   UNL     1      44.180   3.034  10.386  0.00  0.00    +0.000 A 
ATOM     26  F   UNL     1      43.478   2.025  10.922  0.00  0.00    +0.000 F 
ATOM     27  C   UNL     1      44.539   4.127  11.173  0.00  0.00    +0.000 A 
ATOM     28  F   UNL     1      44.144   4.137  12.456  0.00  0.00    +0.000 F 
ENDBRANCH  19  21
ENDBRANCH   1  15
TORSDOF 4
ENDMDL
MODEL 8
REMARK VINA RESULT:    -6.938      5.078      8.604
REMARK INTER + INTRA:          -9.378
REMARK INTER:                  -8.791
REMARK INTRA:                  -0.587
REMARK UNBOUND:                -0.818
REMARK  Name = 
REMARK  4 active torsions:
REMARK  status: ('A' for Active; 'I' for Inactive)
REMARK    1  A    between atoms: C_2  and  C_4
REMARK    2  A    between atoms: N_8  and  C_9
REMARK    3  A    between atoms: C_9  and  C_10
REMARK    4  A    between atoms: C_14  and  C_15
REMARK                            x       y       z     vdW  Elec       q    Type
REMARK                         _______ _______ _______ _____ _____    ______ ____
ROOT
ATOM      1  C   UNL     1      48.065   7.089  14.174  0.00  0.00    +0.000 C 
ENDROOT
BRANCH   1   6
ATOM      2  C   UNL     1      49.938   5.578  18.689  0.00  0.00    +0.000 A 
ATOM      3  C   UNL     1      49.601   6.860  18.270  0.00  0.00    +0.000 A 
ATOM      4  C   UNL     1      48.939   7.025  17.052  0.00  0.00    +0.000 A 
ATOM      5  C   UNL     1      48.644   5.916  16.265  0.00  0.00    +0.000 A 
ATOM      6  N   UNL     1      47.905   5.988  15.103  0.00  0.00    +0.000 N 
ATOM      7  N   UNL     1      48.987   4.672  16.652  0.00  0.00    +0.000 NA
ATOM      8  C   UNL     1      49.626   4.524  17.845  0.00  0.00    +0.000 A 
ATOM      9  H   UNL     1      47.900   5.064  14.675  0.00  0.00    +0.000 HD
BRANCH   2  11
ATOM     10  N   UNL     1      50.015   4.428  20.832  0.00  0.00    +0.000 N 
ATOM     11  C   UNL     1      50.615   5.309  19.974  0.00  0.00    +0.000 C 
ATOM     12  O   UNL     1      51.690   5.831  20.248  0.00  0.00    +0.000 OA
ATOM     13  H   UNL     1      50.543   4.176  21.658  0.00  0.00    +0.000 HD
ATOM     14  H   UNL     1      49.285   3.795  20.538  0.00  0.00    +0.000 HD
ENDBRANCH   2  11
ENDBRANCH   1   6
BRANCH   1  15
ATOM     15  C   UNL     1      46.911   7.102  13.209  0.00  0.00    +0.000 A 
ATOM     16  C   UNL     1      46.193   8.273  12.987  0.00  0.00    +0.000 A 
ATOM     17  N   UNL     1      45.183   8.383  12.102  0.00  0.00    +0.000 NA
ATOM     18  C   UNL     1      44.872   7.272  11.391  0.00  0.00    +0.000 A 
ATOM     19  C   UNL     1      45.520   6.037  11.499  0.00  0.00    +0.000 A 
ATOM     20  C   UNL     1      46.561   5.981  12.445  0.00  0.00    +0.000 A 
BRANCH  19  21
ATOM     21  C   UNL     1      45.157   4.870  10.660  0.00  0.00    +0.000 A 
ATOM     22  C   UNL     1      44.376   3.814  11.176  0.00  0.00    +0.000 A 
ATOM     23  C   UNL     1      44.063   2.685  10.407  0.00  0.00    +0.000 A 
ATOM     24  C   UNL     1      44.510   2.591   9.093  0.00  0.00    +0.000 A 
ATOM     25  C   UNL     1      45.263   3.626   8.560  0.00  0.00    +0.000 A 
ATOM     26  F   UNL     1      45.690   3.539   7.292  0.00  0.00    +0.000 F 
ATOM     27  C   UNL     1      45.585   4.746   9.326  0.00  0.00    +0.000 A 
ATOM     28  F   UNL     1      46.339   5.701   8.760  0.00  0.00    +0.000 F 
ENDBRANCH  19  21
ENDBRANCH   1  15
TORSDOF 4
ENDMDL
MODEL 9
REMARK VINA RESULT:    -6.862      4.722      7.872
REMARK INTER + INTRA:          -9.284
REMARK INTER:                  -8.694
REMARK INTRA:                  -0.590
REMARK UNBOUND:                -0.818
REMARK  Name = 
REMARK  4 active torsions:
REMARK  status: ('A' for Active; 'I' for Inactive)
REMARK    1  A    between atoms: C_2  and  C_4
REMARK    2  A    between atoms: N_8  and  C_9
REMARK    3  A    between atoms: C_9  and  C_10
REMARK    4  A    between atoms: C_14  and  C_15
REMARK                            x       y       z     vdW  Elec       q    Type
REMARK                         _______ _______ _______ _____ _____    ______ ____
ROOT
ATOM      1  C   UNL     1      45.278   4.452  14.261  0.00  0.00    +0.000 C 
ENDROOT
BRANCH   1   6
ATOM      2  C   UNL     1      49.362   4.952  17.302  0.00  0.00    +0.000 A 
ATOM      3  C   UNL     1      48.430   3.922  17.256  0.00  0.00    +0.000 A 
ATOM      4  C   UNL     1      47.489   3.901  16.225  0.00  0.00    +0.000 A 
ATOM      5  C   UNL     1      47.479   4.916  15.273  0.00  0.00    +0.000 A 
ATOM      6  N   UNL     1      46.649   4.911  14.171  0.00  0.00    +0.000 N 
ATOM      7  N   UNL     1      48.363   5.931  15.322  0.00  0.00    +0.000 NA
ATOM      8  C   UNL     1      49.280   5.935  16.328  0.00  0.00    +0.000 A 
ATOM      9  H   UNL     1      46.774   5.793  13.678  0.00  0.00    +0.000 HD
BRANCH   2  11
ATOM     10  N   UNL     1      50.934   3.864  18.807  0.00  0.00    +0.000 N 
ATOM     11  C   UNL     1      50.408   5.039  18.341  0.00  0.00    +0.000 C 
ATOM     12  O   UNL     1      50.814   6.122  18.747  0.00  0.00    +0.000 OA
ATOM     13  H   UNL     1      51.720   3.945  19.440  0.00  0.00    +0.000 HD
ATOM     14  H   UNL     1      50.818   2.987  18.322  0.00  0.00    +0.000 HD
ENDBRANCH   2  11
ENDBRANCH   1   6
BRANCH   1  15
ATOM     15  C   UNL     1      44.652   4.469  12.893  0.00  0.00    +0.000 A 
ATOM     16  C   UNL     1      43.485   5.191  12.663  0.00  0.00    +0.000 A 
ATOM     17  N   UNL     1      42.891   5.302  11.458  0.00  0.00    +0.000 NA
ATOM     18  C   UNL     1      43.492   4.666  10.423  0.00  0.00    +0.000 A 
ATOM     19  C   UNL     1      44.673   3.922  10.508  0.00  0.00    +0.000 A 
ATOM     20  C   UNL     1      45.242   3.836  11.792  0.00  0.00    +0.000 A 
BRANCH  19  21
ATOM     21  C   UNL     1      45.300   3.285   9.325  0.00  0.00    +0.000 A 
ATOM     22  C   UNL     1      45.354   1.881   9.194  0.00  0.00    +0.000 A 
ATOM     23  C   UNL     1      45.983   1.266   8.102  0.00  0.00    +0.000 A 
ATOM     24  C   UNL     1      46.562   2.043   7.104  0.00  0.00    +0.000 A 
ATOM     25  C   UNL     1      46.503   3.425   7.204  0.00  0.00    +0.000 A 
ATOM     26  F   UNL     1      47.056   4.174   6.239  0.00  0.00    +0.000 F 
ATOM     27  C   UNL     1      45.887   4.039   8.293  0.00  0.00    +0.000 A 
ATOM     28  F   UNL     1      45.888   5.381   8.344  0.00  0.00    +0.000 F 
ENDBRANCH  19  21
ENDBRANCH   1  15
TORSDOF 4
ENDMDL
