MODEL 1
REMARK VINA RESULT:    -7.860      0.000      0.000
REMARK INTER + INTRA:         -10.901
REMARK INTER:                 -10.387
REMARK INTRA:                  -0.514
REMARK UNBOUND:                -0.514
REMARK  Name = 
REMARK  7 active torsions:
REMARK  status: ('A' for Active; 'I' for Inactive)
REMARK    1  A    between atoms: C_1  and  O_2
REMARK    2  A    between atoms: O_2  and  C_3
REMARK    3  A    between atoms: N_10  and  C_11
REMARK    4  A    between atoms: C_11  and  C_12
REMARK    5  A    between atoms: C_15  and  C_16
REMARK    6  A    between atoms: C_16  and  C_17
REMARK    7  A    between atoms: C_17  and  N_18
REMARK                            x       y       z     vdW  Elec       q    Type
REMARK                         _______ _______ _______ _____ _____    ______ ____
ROOT
ATOM      1  C   UNL     1      43.739   4.647  10.562  0.00  0.00    +0.000 C 
ENDROOT
BRANCH   1   9
ATOM      2  C   UNL     1      47.170   4.635  14.434  0.00  0.00    +0.000 A 
ATOM      3  C   UNL     1      46.542   3.605  13.738  0.00  0.00    +0.000 A 
ATOM      4  N   UNL     1      45.668   3.750  12.706  0.00  0.00    +0.000 NA
ATOM      5  C   UNL     1      45.440   5.041  12.380  0.00  0.00    +0.000 A 
ATOM      6  C   UNL     1      46.000   6.161  12.995  0.00  0.00    +0.000 A 
ATOM      7  C   UNL     1      45.487   7.304  12.329  0.00  0.00    +0.000 A 
ATOM      8  C   UNL     1      44.630   6.862  11.342  0.00  0.00    +0.000 A 
ATOM      9  N   UNL     1      44.602   5.488  11.385  0.00  0.00    +0.000 N 
ATOM     10  C   UNL     1      46.883   5.948  14.067  0.00  0.00    +0.000 A 
BRANCH   2  12
ATOM     11  C   UNL     1      47.502   3.830  16.632  0.00  0.00    +0.000 C 
ATOM     12  O   UNL     1      48.030   4.494  15.488  0.00  0.00    +0.000 OA
ENDBRANCH   2  12
ENDBRANCH   1   9
BRANCH   1  13
ATOM     13  C   UNL     1      44.526   3.804   9.585  0.00  0.00    +0.000 A 
ATOM     14  C   UNL     1      44.464   2.406   9.642  0.00  0.00    +0.000 A 
ATOM     15  C   UNL     1      45.253   1.620   8.799  0.00  0.00    +0.000 A 
ATOM     16  C   UNL     1      46.114   2.216   7.870  0.00  0.00    +0.000 A 
ATOM     17  C   UNL     1      46.123   3.611   7.759  0.00  0.00    +0.000 A 
ATOM     18  C   UNL     1      45.339   4.399   8.610  0.00  0.00    +0.000 A 
BRANCH  16  19
ATOM     19  C   UNL     1      47.039   1.369   7.030  0.00  0.00    +0.000 C 
BRANCH  19  20
ATOM     20  C   UNL     1      48.309   2.108   6.599  0.00  0.00    +0.000 C 
BRANCH  20  21
ATOM     21  N   UNL     1      48.362   2.249   5.142  0.00  0.00    +0.000 NA
ATOM     22  H   UNL     1      47.428   2.131   4.751  0.00  0.00    +0.000 HD
ATOM     23  H   UNL     1      48.931   1.499   4.752  0.00  0.00    +0.000 HD
ENDBRANCH  20  21
ENDBRANCH  19  20
ENDBRANCH  16  19
ENDBRANCH   1  13
TORSDOF 6
ENDMDL
MODEL 2
REMARK VINA RESULT:    -7.024      2.262      3.761
REMARK INTER + INTRA:          -9.796
REMARK INTER:                  -9.333
REMARK INTRA:                  -0.463
REMARK UNBOUND:                -0.514
REMARK  Name = 
REMARK  7 active torsions:
REMARK  status: ('A' for Active; 'I' for Inactive)
REMARK    1  A    between atoms: C_1  and  O_2
REMARK    2  A    between atoms: O_2  and  C_3
REMARK    3  A    between atoms: N_10  and  C_11
REMARK    4  A    between atoms: C_11  and  C_12
REMARK    5  A    between atoms: C_15  and  C_16
REMARK    6  A    between atoms: C_16  and  C_17
REMARK    7  A    between atoms: C_17  and  N_18
REMARK                            x       y       z     vdW  Elec       q    Type
REMARK                         _______ _______ _______ _____ _____    ______ ____
ROOT
ATOM      1  C   UNL     1      44.232   4.588  11.538  0.00  0.00    +0.000 C 
ENDROOT
BRANCH   1   9
ATOM      2  C   UNL     1      45.373   9.610  12.031  0.00  0.00    +0.000 A 
ATOM      3  C   UNL     1      44.363   8.943  11.341  0.00  0.00    +0.000 A 
ATOM      4  N   UNL     1      44.158   7.599  11.318  0.00  0.00    +0.000 NA
ATOM      5  C   UNL     1      45.055   6.913  12.060  0.00  0.00    +0.000 A 
ATOM      6  C   UNL     1      46.110   7.455  12.793  0.00  0.00    +0.000 A 
ATOM      7  C   UNL     1      46.785   6.374  13.417  0.00  0.00    +0.000 A 
ATOM      8  C   UNL     1      46.141   5.211  13.047  0.00  0.00    +0.000 A 
ATOM      9  N   UNL     1      45.097   5.547  12.218  0.00  0.00    +0.000 N 
ATOM     10  C   UNL     1      46.282   8.849  12.764  0.00  0.00    +0.000 A 
BRANCH   2  12
ATOM     11  C   UNL     1      46.720  11.402  11.279  0.00  0.00    +0.000 C 
ATOM     12  O   UNL     1      45.598  10.959  12.035  0.00  0.00    +0.000 OA
ENDBRANCH   2  12
ENDBRANCH   1   9
BRANCH   1  13
ATOM     13  C   UNL     1      44.864   4.039  10.281  0.00  0.00    +0.000 A 
ATOM     14  C   UNL     1      45.490   4.896   9.366  0.00  0.00    +0.000 A 
ATOM     15  C   UNL     1      46.001   4.407   8.162  0.00  0.00    +0.000 A 
ATOM     16  C   UNL     1      45.910   3.046   7.851  0.00  0.00    +0.000 A 
ATOM     17  C   UNL     1      45.352   2.175   8.794  0.00  0.00    +0.000 A 
ATOM     18  C   UNL     1      44.832   2.666   9.997  0.00  0.00    +0.000 A 
BRANCH  16  19
ATOM     19  C   UNL     1      46.372   2.534   6.507  0.00  0.00    +0.000 C 
BRANCH  19  20
ATOM     20  C   UNL     1      47.627   1.663   6.592  0.00  0.00    +0.000 C 
BRANCH  20  21
ATOM     21  N   UNL     1      48.501   1.893   5.440  0.00  0.00    +0.000 NA
ATOM     22  H   UNL     1      48.419   2.861   5.134  0.00  0.00    +0.000 HD
ATOM     23  H   UNL     1      48.186   1.319   4.659  0.00  0.00    +0.000 HD
ENDBRANCH  20  21
ENDBRANCH  19  20
ENDBRANCH  16  19
ENDBRANCH   1  13
TORSDOF 6
ENDMDL
MODEL 3
REMARK VINA RESULT:    -6.411      2.823      6.899
REMARK INTER + INTRA:          -8.987
REMARK INTER:                  -8.575
REMARK INTRA:                  -0.412
REMARK UNBOUND:                -0.514
REMARK  Name = 
REMARK  7 active torsions:
REMARK  status: ('A' for Active; 'I' for Inactive)
REMARK    1  A    between atoms: C_1  and  O_2
REMARK    2  A    between atoms: O_2  and  C_3
REMARK    3  A    between atoms: N_10  and  C_11
REMARK    4  A    between atoms: C_11  and  C_12
REMARK    5  A    between atoms: C_15  and  C_16
REMARK    6  A    between atoms: C_16  and  C_17
REMARK    7  A    between atoms: C_17  and  N_18
REMARK                            x       y       z     vdW  Elec       q    Type
REMARK                         _______ _______ _______ _____ _____    ______ ____
ROOT
ATOM      1  C   UNL     1      43.861   6.215  11.046  0.00  0.00    +0.000 C 
ENDROOT
BRANCH   1   9
ATOM      2  C   UNL     1      45.999   2.620   8.002  0.00  0.00    +0.000 A 
ATOM      3  C   UNL     1      46.094   4.009   8.017  0.00  0.00    +0.000 A 
ATOM      4  N   UNL     1      45.491   4.846   8.904  0.00  0.00    +0.000 NA
ATOM      5  C   UNL     1      44.753   4.195   9.829  0.00  0.00    +0.000 A 
ATOM      6  C   UNL     1      44.573   2.815   9.925  0.00  0.00    +0.000 A 
ATOM      7  C   UNL     1      43.731   2.580  11.042  0.00  0.00    +0.000 A 
ATOM      8  C   UNL     1      43.412   3.805  11.590  0.00  0.00    +0.000 A 
ATOM      9  N   UNL     1      44.030   4.780  10.843  0.00  0.00    +0.000 N 
ATOM     10  C   UNL     1      45.207   2.004   8.969  0.00  0.00    +0.000 A 
BRANCH   2  12
ATOM     11  C   UNL     1      47.882   2.150   6.651  0.00  0.00    +0.000 C 
ATOM     12  O   UNL     1      46.582   1.777   7.097  0.00  0.00    +0.000 OA
ENDBRANCH   2  12
ENDBRANCH   1   9
BRANCH   1  13
ATOM     13  C   UNL     1      45.032   6.831  11.775  0.00  0.00    +0.000 A 
ATOM     14  C   UNL     1      45.176   8.224  11.841  0.00  0.00    +0.000 A 
ATOM     15  C   UNL     1      46.299   8.799  12.439  0.00  0.00    +0.000 A 
ATOM     16  C   UNL     1      47.299   7.994  12.997  0.00  0.00    +0.000 A 
ATOM     17  C   UNL     1      47.124   6.606  12.999  0.00  0.00    +0.000 A 
ATOM     18  C   UNL     1      46.002   6.028  12.392  0.00  0.00    +0.000 A 
BRANCH  16  19
ATOM     19  C   UNL     1      48.559   8.613  13.553  0.00  0.00    +0.000 C 
BRANCH  19  20
ATOM     20  C   UNL     1      48.688   8.459  15.071  0.00  0.00    +0.000 C 
BRANCH  20  21
ATOM     21  N   UNL     1      47.563   9.095  15.758  0.00  0.00    +0.000 NA
ATOM     22  H   UNL     1      46.725   9.026  15.182  0.00  0.00    +0.000 HD
ATOM     23  H   UNL     1      47.753  10.091  15.865  0.00  0.00    +0.000 HD
ENDBRANCH  20  21
ENDBRANCH  19  20
ENDBRANCH  16  19
ENDBRANCH   1  13
TORSDOF 6
ENDMDL
MODEL 4
REMARK VINA RESULT:    -5.823      3.682      7.927
REMARK INTER + INTRA:          -8.210
REMARK INTER:                  -7.947
REMARK INTRA:                  -0.263
REMARK UNBOUND:                -0.514
REMARK  Name = 
REMARK  7 active torsions:
REMARK  status: ('A' for Active; 'I' for Inactive)
REMARK    1  A    between atoms: C_1  and  O_2
REMARK    2  A    between atoms: O_2  and  C_3
REMARK    3  A    between atoms: N_10  and  C_11
REMARK    4  A    between atoms: C_11  and  C_12
REMARK    5  A    between atoms: C_15  and  C_16
REMARK    6  A    between atoms: C_16  and  C_17
REMARK    7  A    between atoms: C_17  and  N_18
REMARK                            x       y       z     vdW  Elec       q    Type
REMARK                         _______ _______ _______ _____ _____    ______ ____
ROOT
ATOM      1  C   UNL     1      47.324   4.154  16.541  0.00  0.00    +0.000 C 
ENDROOT
BRANCH   1   9
ATOM      2  C   UNL     1      45.622   5.132  11.755  0.00  0.00    +0.000 A 
ATOM      3  C   UNL     1      45.223   4.210  12.719  0.00  0.00    +0.000 A 
ATOM      4  N   UNL     1      45.746   4.076  13.968  0.00  0.00    +0.000 NA
ATOM      5  C   UNL     1      46.738   4.956  14.224  0.00  0.00    +0.000 A 
ATOM      6  C   UNL     1      47.234   5.923  13.350  0.00  0.00    +0.000 A 
ATOM      7  C   UNL     1      48.261   6.620  14.037  0.00  0.00    +0.000 A 
ATOM      8  C   UNL     1      48.375   6.063  15.294  0.00  0.00    +0.000 A 
ATOM      9  N   UNL     1      47.452   5.050  15.396  0.00  0.00    +0.000 N 
ATOM     10  C   UNL     1      46.665   6.002  12.068  0.00  0.00    +0.000 A 
BRANCH   2  12
ATOM     11  C   UNL     1      43.960   4.471  10.208  0.00  0.00    +0.000 C 
ATOM     12  O   UNL     1      45.117   5.252  10.490  0.00  0.00    +0.000 OA
ENDBRANCH   2  12
ENDBRANCH   1   9
BRANCH   1  13
ATOM     13  C   UNL     1      48.654   3.582  16.971  0.00  0.00    +0.000 A 
ATOM     14  C   UNL     1      49.528   4.333  17.768  0.00  0.00    +0.000 A 
ATOM     15  C   UNL     1      50.794   3.845  18.099  0.00  0.00    +0.000 A 
ATOM     16  C   UNL     1      51.210   2.587  17.649  0.00  0.00    +0.000 A 
ATOM     17  C   UNL     1      50.314   1.802  16.916  0.00  0.00    +0.000 A 
ATOM     18  C   UNL     1      49.048   2.294  16.577  0.00  0.00    +0.000 A 
BRANCH  16  19
ATOM     19  C   UNL     1      52.615   2.102  17.922  0.00  0.00    +0.000 C 
BRANCH  19  20
ATOM     20  C   UNL     1      52.892   0.706  17.358  0.00  0.00    +0.000 C 
BRANCH  20  21
ATOM     21  N   UNL     1      53.044  -0.272  18.436  0.00  0.00    +0.000 NA
ATOM     22  H   UNL     1      52.712   0.128  19.313  0.00  0.00    +0.000 HD
ATOM     23  H   UNL     1      54.033  -0.473  18.571  0.00  0.00    +0.000 HD
ENDBRANCH  20  21
ENDBRANCH  19  20
ENDBRANCH  16  19
ENDBRANCH   1  13
TORSDOF 6
ENDMDL
MODEL 5
REMARK VINA RESULT:    -5.782      3.227      6.295
REMARK INTER + INTRA:          -8.155
REMARK INTER:                  -7.595
REMARK INTRA:                  -0.560
REMARK UNBOUND:                -0.514
REMARK  Name = 
REMARK  7 active torsions:
REMARK  status: ('A' for Active; 'I' for Inactive)
REMARK    1  A    between atoms: C_1  and  O_2
REMARK    2  A    between atoms: O_2  and  C_3
REMARK    3  A    between atoms: N_10  and  C_11
REMARK    4  A    between atoms: C_11  and  C_12
REMARK    5  A    between atoms: C_15  and  C_16
REMARK    6  A    between atoms: C_16  and  C_17
REMARK    7  A    between atoms: C_17  and  N_18
REMARK                            x       y       z     vdW  Elec       q    Type
REMARK                         _______ _______ _______ _____ _____    ______ ____
ROOT
ATOM      1  C   UNL     1      44.876   6.763  12.511  0.00  0.00    +0.000 C 
ENDROOT
BRANCH   1   9
ATOM      2  C   UNL     1      45.427   3.325   8.685  0.00  0.00    +0.000 A 
ATOM      3  C   UNL     1      45.764   4.672   8.787  0.00  0.00    +0.000 A 
ATOM      4  N   UNL     1      45.585   5.464   9.879  0.00  0.00    +0.000 NA
ATOM      5  C   UNL     1      45.029   4.812  10.922  0.00  0.00    +0.000 A 
ATOM      6  C   UNL     1      44.644   3.472  10.951  0.00  0.00    +0.000 A 
ATOM      7  C   UNL     1      44.116   3.216  12.243  0.00  0.00    +0.000 A 
ATOM      8  C   UNL     1      44.180   4.393  12.960  0.00  0.00    +0.000 A 
ATOM      9  N   UNL     1      44.729   5.357  12.149  0.00  0.00    +0.000 N 
ATOM     10  C   UNL     1      44.837   2.709   9.787  0.00  0.00    +0.000 A 
BRANCH   2  12
ATOM     11  C   UNL     1      46.821   1.842   7.483  0.00  0.00    +0.000 C 
ATOM     12  O   UNL     1      45.580   2.532   7.581  0.00  0.00    +0.000 OA
ENDBRANCH   2  12
ENDBRANCH   1   9
BRANCH   1  13
ATOM     13  C   UNL     1      46.324   7.167  12.659  0.00  0.00    +0.000 A 
ATOM     14  C   UNL     1      46.806   8.329  12.043  0.00  0.00    +0.000 A 
ATOM     15  C   UNL     1      48.161   8.663  12.104  0.00  0.00    +0.000 A 
ATOM     16  C   UNL     1      49.064   7.847  12.795  0.00  0.00    +0.000 A 
ATOM     17  C   UNL     1      48.575   6.725  13.475  0.00  0.00    +0.000 A 
ATOM     18  C   UNL     1      47.219   6.386  13.406  0.00  0.00    +0.000 A 
BRANCH  16  19
ATOM     19  C   UNL     1      50.543   8.154  12.777  0.00  0.00    +0.000 C 
BRANCH  19  20
ATOM     20  C   UNL     1      51.093   8.389  11.368  0.00  0.00    +0.000 C 
BRANCH  20  21
ATOM     21  N   UNL     1      51.592   7.142  10.787  0.00  0.00    +0.000 NA
ATOM     22  H   UNL     1      52.091   7.341   9.921  0.00  0.00    +0.000 HD
ATOM     23  H   UNL     1      50.803   6.550  10.531  0.00  0.00    +0.000 HD
ENDBRANCH  20  21
ENDBRANCH  19  20
ENDBRANCH  16  19
ENDBRANCH   1  13
TORSDOF 6
ENDMDL
MODEL 6
REMARK VINA RESULT:    -5.513      3.462      5.334
REMARK INTER + INTRA:          -7.800
REMARK INTER:                  -7.200
REMARK INTRA:                  -0.601
REMARK UNBOUND:                -0.514
REMARK  Name = 
REMARK  7 active torsions:
REMARK  status: ('A' for Active; 'I' for Inactive)
REMARK    1  A    between atoms: C_1  and  O_2
REMARK    2  A    between atoms: O_2  and  C_3
REMARK    3  A    between atoms: N_10  and  C_11
REMARK    4  A    between atoms: C_11  and  C_12
REMARK    5  A    between atoms: C_15  and  C_16
REMARK    6  A    between atoms: C_16  and  C_17
REMARK    7  A    between atoms: C_17  and  N_18
REMARK                            x       y       z     vdW  Elec       q    Type
REMARK                         _______ _______ _______ _____ _____    ______ ____
ROOT
ATOM      1  C   UNL     1      48.793   6.673  13.280  0.00  0.00    +0.000 C 
ENDROOT
BRANCH   1   9
ATOM      2  C   UNL     1      49.141   6.347  18.431  0.00  0.00    +0.000 A 
ATOM      3  C   UNL     1      49.380   5.423  17.418  0.00  0.00    +0.000 A 
ATOM      4  N   UNL     1      49.275   5.652  16.081  0.00  0.00    +0.000 NA
ATOM      5  C   UNL     1      48.904   6.917  15.787  0.00  0.00    +0.000 A 
ATOM      6  C   UNL     1      48.633   7.935  16.701  0.00  0.00    +0.000 A 
ATOM      7  C   UNL     1      48.289   9.089  15.953  0.00  0.00    +0.000 A 
ATOM      8  C   UNL     1      48.347   8.753  14.616  0.00  0.00    +0.000 A 
ATOM      9  N   UNL     1      48.714   7.431  14.525  0.00  0.00    +0.000 N 
ATOM     10  C   UNL     1      48.742   7.633  18.069  0.00  0.00    +0.000 A 
BRANCH   2  12
ATOM     11  C   UNL     1      48.993   4.769  20.186  0.00  0.00    +0.000 C 
ATOM     12  O   UNL     1      49.220   6.114  19.777  0.00  0.00    +0.000 OA
ENDBRANCH   2  12
ENDBRANCH   1   9
BRANCH   1  13
ATOM     13  C   UNL     1      47.439   6.187  12.820  0.00  0.00    +0.000 A 
ATOM     14  C   UNL     1      46.822   5.097  13.450  0.00  0.00    +0.000 A 
ATOM     15  C   UNL     1      45.611   4.588  12.975  0.00  0.00    +0.000 A 
ATOM     16  C   UNL     1      44.981   5.168  11.868  0.00  0.00    +0.000 A 
ATOM     17  C   UNL     1      45.555   6.302  11.282  0.00  0.00    +0.000 A 
ATOM     18  C   UNL     1      46.774   6.807  11.752  0.00  0.00    +0.000 A 
BRANCH  16  19
ATOM     19  C   UNL     1      43.724   4.556  11.295  0.00  0.00    +0.000 C 
BRANCH  19  20
ATOM     20  C   UNL     1      43.905   3.099  10.862  0.00  0.00    +0.000 C 
BRANCH  20  21
ATOM     21  N   UNL     1      43.053   2.210  11.653  0.00  0.00    +0.000 NA
ATOM     22  H   UNL     1      43.617   1.718  12.345  0.00  0.00    +0.000 HD
ATOM     23  H   UNL     1      42.658   1.494  11.046  0.00  0.00    +0.000 HD
ENDBRANCH  20  21
ENDBRANCH  19  20
ENDBRANCH  16  19
ENDBRANCH   1  13
TORSDOF 6
ENDMDL
MODEL 7
REMARK VINA RESULT:    -5.441      3.476      4.422
REMARK INTER + INTRA:          -7.705
REMARK INTER:                  -7.319
REMARK INTRA:                  -0.386
REMARK UNBOUND:                -0.514
REMARK  Name = 
REMARK  7 active torsions:
REMARK  status: ('A' for Active; 'I' for Inactive)
REMARK    1  A    between atoms: C_1  and  O_2
REMARK    2  A    between atoms: O_2  and  C_3
REMARK    3  A    between atoms: N_10  and  C_11
REMARK    4  A    between atoms: C_11  and  C_12
REMARK    5  A    between atoms: C_15  and  C_16
REMARK    6  A    between atoms: C_16  and  C_17
REMARK    7  A    between atoms: C_17  and  N_18
REMARK                            x       y       z     vdW  Elec       q    Type
REMARK                         _______ _______ _______ _____ _____    ______ ____
ROOT
ATOM      1  C   UNL     1      46.126   6.365  13.196  0.00  0.00    +0.000 C 
ENDROOT
BRANCH   1   9
ATOM      2  C   UNL     1      50.173   9.038  11.396  0.00  0.00    +0.000 A 
ATOM      3  C   UNL     1      50.017   7.700  11.747  0.00  0.00    +0.000 A 
ATOM      4  N   UNL     1      48.872   7.112  12.187  0.00  0.00    +0.000 NA
ATOM      5  C   UNL     1      47.831   7.969  12.261  0.00  0.00    +0.000 A 
ATOM      6  C   UNL     1      47.852   9.327  11.944  0.00  0.00    +0.000 A 
ATOM      7  C   UNL     1      46.543   9.828  12.163  0.00  0.00    +0.000 A 
ATOM      8  C   UNL     1      45.765   8.780  12.613  0.00  0.00    +0.000 A 
ATOM      9  N   UNL     1      46.557   7.658  12.676  0.00  0.00    +0.000 N 
ATOM     10  C   UNL     1      49.068   9.881  11.511  0.00  0.00    +0.000 A 
BRANCH   2  12
ATOM     11  C   UNL     1      52.510   9.262  11.679  0.00  0.00    +0.000 C 
ATOM     12  O   UNL     1      51.328   9.639  10.979  0.00  0.00    +0.000 OA
ENDBRANCH   2  12
ENDBRANCH   1   9
BRANCH   1  13
ATOM     13  C   UNL     1      45.678   5.428  12.099  0.00  0.00    +0.000 A 
ATOM     14  C   UNL     1      45.280   4.118  12.400  0.00  0.00    +0.000 A 
ATOM     15  C   UNL     1      44.946   3.220  11.383  0.00  0.00    +0.000 A 
ATOM     16  C   UNL     1      44.991   3.616  10.041  0.00  0.00    +0.000 A 
ATOM     17  C   UNL     1      45.316   4.944   9.741  0.00  0.00    +0.000 A 
ATOM     18  C   UNL     1      45.659   5.842  10.759  0.00  0.00    +0.000 A 
BRANCH  16  19
ATOM     19  C   UNL     1      44.728   2.618   8.939  0.00  0.00    +0.000 C 
BRANCH  19  20
ATOM     20  C   UNL     1      45.983   2.251   8.144  0.00  0.00    +0.000 C 
BRANCH  20  21
ATOM     21  N   UNL     1      46.220   0.807   8.178  0.00  0.00    +0.000 NA
ATOM     22  H   UNL     1      45.329   0.314   8.221  0.00  0.00    +0.000 HD
ATOM     23  H   UNL     1      46.719   0.568   9.033  0.00  0.00    +0.000 HD
ENDBRANCH  20  21
ENDBRANCH  19  20
ENDBRANCH  16  19
ENDBRANCH   1  13
TORSDOF 6
ENDMDL
MODEL 8
REMARK VINA RESULT:    -5.219      4.049      6.317
REMARK INTER + INTRA:          -7.412
REMARK INTER:                  -7.054
REMARK INTRA:                  -0.358
REMARK UNBOUND:                -0.514
REMARK  Name = 
REMARK  7 active torsions:
REMARK  status: ('A' for Active; 'I' for Inactive)
REMARK    1  A    between atoms: C_1  and  O_2
REMARK    2  A    between atoms: O_2  and  C_3
REMARK    3  A    between atoms: N_10  and  C_11
REMARK    4  A    between atoms: C_11  and  C_12
REMARK    5  A    between atoms: C_15  and  C_16
REMARK    6  A    between atoms: C_16  and  C_17
REMARK    7  A    between atoms: C_17  and  N_18
REMARK                            x       y       z     vdW  Elec       q    Type
REMARK                         _______ _______ _______ _____ _____    ______ ____
ROOT
ATOM      1  C   UNL     1      46.734   7.863  13.065  0.00  0.00    +0.000 C 
ENDROOT
BRANCH   1   9
ATOM      2  C   UNL     1      44.549   3.700  10.907  0.00  0.00    +0.000 A 
ATOM      3  C   UNL     1      44.579   5.041  10.533  0.00  0.00    +0.000 A 
ATOM      4  N   UNL     1      45.225   6.044  11.187  0.00  0.00    +0.000 NA
ATOM      5  C   UNL     1      45.879   5.622  12.291  0.00  0.00    +0.000 A 
ATOM      6  C   UNL     1      45.928   4.315  12.776  0.00  0.00    +0.000 A 
ATOM      7  C   UNL     1      46.728   4.333  13.947  0.00  0.00    +0.000 A 
ATOM      8  C   UNL     1      47.136   5.635  14.153  0.00  0.00    +0.000 A 
ATOM      9  N   UNL     1      46.610   6.411  13.148  0.00  0.00    +0.000 N 
ATOM     10  C   UNL     1      45.227   3.325  12.066  0.00  0.00    +0.000 A 
BRANCH   2  12
ATOM     11  C   UNL     1      44.568   2.089   9.177  0.00  0.00    +0.000 C 
ATOM     12  O   UNL     1      43.880   2.694  10.267  0.00  0.00    +0.000 OA
ENDBRANCH   2  12
ENDBRANCH   1   9
BRANCH   1  13
ATOM     13  C   UNL     1      48.003   8.289  12.364  0.00  0.00    +0.000 A 
ATOM     14  C   UNL     1      48.952   7.337  11.969  0.00  0.00    +0.000 A 
ATOM     15  C   UNL     1      50.164   7.730  11.397  0.00  0.00    +0.000 A 
ATOM     16  C   UNL     1      50.450   9.085  11.196  0.00  0.00    +0.000 A 
ATOM     17  C   UNL     1      49.475  10.035  11.520  0.00  0.00    +0.000 A 
ATOM     18  C   UNL     1      48.263   9.642  12.101  0.00  0.00    +0.000 A 
BRANCH  16  19
ATOM     19  C   UNL     1      51.799   9.514  10.671  0.00  0.00    +0.000 C 
BRANCH  19  20
ATOM     20  C   UNL     1      52.807   8.365  10.587  0.00  0.00    +0.000 C 
BRANCH  20  21
ATOM     21  N   UNL     1      53.064   7.997   9.194  0.00  0.00    +0.000 NA
ATOM     22  H   UNL     1      52.616   8.669   8.572  0.00  0.00    +0.000 HD
ATOM     23  H   UNL     1      52.631   7.095   8.999  0.00  0.00    +0.000 HD
ENDBRANCH  20  21
ENDBRANCH  19  20
ENDBRANCH  16  19
ENDBRANCH   1  13
TORSDOF 6
ENDMDL
MODEL 9
REMARK VINA RESULT:    -5.162      3.825      8.242
REMARK INTER + INTRA:          -7.336
REMARK INTER:                  -6.825
REMARK INTRA:                  -0.511
REMARK UNBOUND:                -0.514
REMARK  Name = 
REMARK  7 active torsions:
REMARK  status: ('A' for Active; 'I' for Inactive)
REMARK    1  A    between atoms: C_1  and  O_2
REMARK    2  A    between atoms: O_2  and  C_3
REMARK    3  A    between atoms: N_10  and  C_11
REMARK    4  A    between atoms: C_11  and  C_12
REMARK    5  A    between atoms: C_15  and  C_16
REMARK    6  A    between atoms: C_16  and  C_17
REMARK    7  A    between atoms: C_17  and  N_18
REMARK                            x       y       z     vdW  Elec       q    Type
REMARK                         _______ _______ _______ _____ _____    ______ ____
ROOT
ATOM      1  C   UNL     1      48.689   6.855  14.180  0.00  0.00    +0.000 C 
ENDROOT
BRANCH   1   9
ATOM      2  C   UNL     1      44.440   4.875  11.991  0.00  0.00    +0.000 A 
ATOM      3  C   UNL     1      45.545   4.281  12.595  0.00  0.00    +0.000 A 
ATOM      4  N   UNL     1      46.596   4.930  13.164  0.00  0.00    +0.000 NA
ATOM      5  C   UNL     1      46.485   6.275  13.103  0.00  0.00    +0.000 A 
ATOM      6  C   UNL     1      45.438   6.994  12.527  0.00  0.00    +0.000 A 
ATOM      7  C   UNL     1      45.734   8.371  12.695  0.00  0.00    +0.000 A 
ATOM      8  C   UNL     1      46.944   8.460  13.352  0.00  0.00    +0.000 A 
ATOM      9  N   UNL     1      47.396   7.184  13.589  0.00  0.00    +0.000 N 
ATOM     10  C   UNL     1      44.389   6.267  11.939  0.00  0.00    +0.000 A 
BRANCH   2  12
ATOM     11  C   UNL     1      43.323   2.823  11.627  0.00  0.00    +0.000 C 
ATOM     12  O   UNL     1      43.395   4.226  11.395  0.00  0.00    +0.000 OA
ENDBRANCH   2  12
ENDBRANCH   1   9
BRANCH   1  13
ATOM     13  C   UNL     1      48.608   6.694  15.680  0.00  0.00    +0.000 A 
ATOM     14  C   UNL     1      48.832   7.788  16.526  0.00  0.00    +0.000 A 
ATOM     15  C   UNL     1      48.844   7.628  17.914  0.00  0.00    +0.000 A 
ATOM     16  C   UNL     1      48.618   6.372  18.487  0.00  0.00    +0.000 A 
ATOM     17  C   UNL     1      48.320   5.292  17.649  0.00  0.00    +0.000 A 
ATOM     18  C   UNL     1      48.317   5.449  16.258  0.00  0.00    +0.000 A 
BRANCH  16  19
ATOM     19  C   UNL     1      48.730   6.180  19.981  0.00  0.00    +0.000 C 
BRANCH  19  20
ATOM     20  C   UNL     1      49.414   4.868  20.372  0.00  0.00    +0.000 C 
BRANCH  20  21
ATOM     21  N   UNL     1      48.428   3.870  20.791  0.00  0.00    +0.000 NA
ATOM     22  H   UNL     1      47.713   4.312  21.366  0.00  0.00    +0.000 HD
ATOM     23  H   UNL     1      48.882   3.176  21.384  0.00  0.00    +0.000 HD
ENDBRANCH  20  21
ENDBRANCH  19  20
ENDBRANCH  16  19
ENDBRANCH   1  13
TORSDOF 6
ENDMDL
