MODEL 1
REMARK VINA RESULT:    -8.172      0.000      0.000
REMARK INTER + INTRA:         -12.610
REMARK INTER:                 -11.755
REMARK INTRA:                  -0.855
REMARK UNBOUND:                -0.855
REMARK  Name = 
REMARK  8 active torsions:
REMARK  status: ('A' for Active; 'I' for Inactive)
REMARK    1  A    between atoms: C_2  and  C_27
REMARK    2  A    between atoms: N_3  and  CA_4
REMARK    3  A    between atoms: CA_4  and  C_5
REMARK    4  A    between atoms: CA_4  and  C_7
REMARK    5  A    between atoms: C_5  and  O_6
REMARK    6  A    between atoms: C_10  and  C_11
REMARK    7  A    between atoms: C_11  and  N_12
REMARK    8  A    between atoms: C_13  and  C_15
REMARK                            x       y       z     vdW  Elec       q    Type
REMARK                         _______ _______ _______ _____ _____    ______ ____
ROOT
ATOM      1  C   UNL     1      44.884   5.455  11.469  0.00  0.00    +0.000 A 
ATOM      2  C   UNL     1      45.982   5.000  12.223  0.00  0.00    +0.000 A 
ATOM      3  C   UNL     1      46.815   5.896  12.905  0.00  0.00    +0.000 A 
ATOM      4  C   UNL     1      46.562   7.269  12.858  0.00  0.00    +0.000 A 
ATOM      5  C   UNL     1      45.499   7.730  12.075  0.00  0.00    +0.000 A 
ATOM      6  C   UNL     1      44.673   6.837  11.385  0.00  0.00    +0.000 A 
ENDROOT
BRANCH   1   7
ATOM      7  CA  UNL     1      44.003   4.443  10.753  0.00  0.00    +0.000 C 
BRANCH   7  10
ATOM      8  O   UNL     1      45.314   4.951   8.366  0.00  0.00    +0.000 OA
ATOM      9  C   UNL     1      45.387   3.798   8.798  0.00  0.00    +0.000 C 
ATOM     10  N   UNL     1      44.772   3.462   9.985  0.00  0.00    +0.000 N 
ATOM     11  H   UNL     1      44.738   2.483  10.227  0.00  0.00    +0.000 HD
BRANCH   9  12
ATOM     12  C   UNL     1      46.104   2.744   8.095  0.00  0.00    +0.000 A 
ATOM     13  C   UNL     1      46.010   1.385   8.348  0.00  0.00    +0.000 A 
ATOM     14  C   UNL     1      46.855   0.603   7.511  0.00  0.00    +0.000 A 
ATOM     15  C   UNL     1      47.575   1.388   6.638  0.00  0.00    +0.000 A 
ATOM     16  S   UNL     1      47.209   3.051   6.820  0.00  0.00    +0.000 S 
ENDBRANCH   9  12
ENDBRANCH   7  10
BRANCH   7  17
ATOM     17  C   UNL     1      43.013   3.767  11.733  0.00  0.00    +0.000 C 
BRANCH  17  18
ATOM     18  O   UNL     1      42.998   2.342  11.630  0.00  0.00    +0.000 OA
ATOM     19  H   UNL     1      42.120   2.065  11.293  0.00  0.00    +0.000 HD
ENDBRANCH  17  18
ENDBRANCH   7  17
ENDBRANCH   1   7
BRANCH   4  20
ATOM     20  C   UNL     1      47.428   8.259  13.601  0.00  0.00    +0.000 C 
BRANCH  20  21
ATOM     21  N   UNL     1      47.718   7.800  14.935  0.00  0.00    +0.000 N 
ATOM     22  C   UNL     1      48.887   7.148  15.229  0.00  0.00    +0.000 C 
ATOM     23  O   UNL     1      49.760   6.960  14.385  0.00  0.00    +0.000 OA
ATOM     24  H   UNL     1      46.929   7.707  15.569  0.00  0.00    +0.000 HD
BRANCH  22  25
ATOM     25  C   UNL     1      49.070   6.736  16.627  0.00  0.00    +0.000 A 
ATOM     26  C   UNL     1      49.609   7.626  17.544  0.00  0.00    +0.000 A 
ATOM     27  S   UNL     1      49.695   7.003  19.132  0.00  0.00    +0.000 S 
ATOM     28  C   UNL     1      49.067   5.501  18.635  0.00  0.00    +0.000 A 
ATOM     29  N   UNL     1      48.908   4.481  19.519  0.00  0.00    +0.000 NA
ATOM     30  C   UNL     1      48.453   3.389  19.000  0.00  0.00    +0.000 A 
ATOM     31  N   UNL     1      48.134   3.229  17.676  0.00  0.00    +0.000 N 
ATOM     32  C   UNL     1      48.249   4.239  16.752  0.00  0.00    +0.000 A 
ATOM     33  O   UNL     1      47.911   4.073  15.587  0.00  0.00    +0.000 OA
ATOM     34  C   UNL     1      48.773   5.484  17.282  0.00  0.00    +0.000 A 
ATOM     35  H   UNL     1      47.769   2.352  17.334  0.00  0.00    +0.000 HD
ENDBRANCH  22  25
ENDBRANCH  20  21
ENDBRANCH   4  20
TORSDOF 8
ENDMDL
MODEL 2
REMARK VINA RESULT:    -7.791      1.498      1.970
REMARK INTER + INTRA:         -12.062
REMARK INTER:                 -11.021
REMARK INTRA:                  -1.042
REMARK UNBOUND:                -0.855
REMARK  Name = 
REMARK  8 active torsions:
REMARK  status: ('A' for Active; 'I' for Inactive)
REMARK    1  A    between atoms: C_2  and  C_27
REMARK    2  A    between atoms: N_3  and  CA_4
REMARK    3  A    between atoms: CA_4  and  C_5
REMARK    4  A    between atoms: CA_4  and  C_7
REMARK    5  A    between atoms: C_5  and  O_6
REMARK    6  A    between atoms: C_10  and  C_11
REMARK    7  A    between atoms: C_11  and  N_12
REMARK    8  A    between atoms: C_13  and  C_15
REMARK                            x       y       z     vdW  Elec       q    Type
REMARK                         _______ _______ _______ _____ _____    ______ ____
ROOT
ATOM      1  C   UNL     1      45.103   5.582  11.481  0.00  0.00    +0.000 A 
ATOM      2  C   UNL     1      45.919   4.911  12.410  0.00  0.00    +0.000 A 
ATOM      3  C   UNL     1      46.825   5.610  13.218  0.00  0.00    +0.000 A 
ATOM      4  C   UNL     1      46.927   7.000  13.123  0.00  0.00    +0.000 A 
ATOM      5  C   UNL     1      46.150   7.668  12.171  0.00  0.00    +0.000 A 
ATOM      6  C   UNL     1      45.253   6.969  11.356  0.00  0.00    +0.000 A 
ENDROOT
BRANCH   1   7
ATOM      7  CA  UNL     1      44.128   4.781  10.632  0.00  0.00    +0.000 C 
BRANCH   7  10
ATOM      8  O   UNL     1      45.654   5.123   8.346  0.00  0.00    +0.000 OA
ATOM      9  C   UNL     1      45.515   3.964   8.744  0.00  0.00    +0.000 C 
ATOM     10  N   UNL     1      44.778   3.706   9.880  0.00  0.00    +0.000 N 
ATOM     11  H   UNL     1      44.572   2.740  10.088  0.00  0.00    +0.000 HD
BRANCH   9  12
ATOM     12  C   UNL     1      46.098   2.824   8.051  0.00  0.00    +0.000 A 
ATOM     13  C   UNL     1      46.001   1.498   8.440  0.00  0.00    +0.000 A 
ATOM     14  C   UNL     1      46.701   0.612   7.573  0.00  0.00    +0.000 A 
ATOM     15  C   UNL     1      47.316   1.287   6.543  0.00  0.00    +0.000 A 
ATOM     16  S   UNL     1      47.026   2.973   6.618  0.00  0.00    +0.000 S 
ENDBRANCH   9  12
ENDBRANCH   7  10
BRANCH   7  17
ATOM     17  C   UNL     1      42.941   4.260  11.479  0.00  0.00    +0.000 C 
BRANCH  17  18
ATOM     18  O   UNL     1      42.836   2.836  11.494  0.00  0.00    +0.000 OA
ATOM     19  H   UNL     1      42.117   2.572  10.883  0.00  0.00    +0.000 HD
ENDBRANCH  17  18
ENDBRANCH   7  17
ENDBRANCH   1   7
BRANCH   4  20
ATOM     20  C   UNL     1      47.878   7.784  13.995  0.00  0.00    +0.000 C 
BRANCH  20  21
ATOM     21  N   UNL     1      48.028   7.169  15.289  0.00  0.00    +0.000 N 
ATOM     22  C   UNL     1      49.263   6.961  15.844  0.00  0.00    +0.000 C 
ATOM     23  O   UNL     1      50.298   7.326  15.289  0.00  0.00    +0.000 OA
ATOM     24  H   UNL     1      47.236   6.635  15.636  0.00  0.00    +0.000 HD
BRANCH  22  25
ATOM     25  C   UNL     1      49.285   6.333  17.170  0.00  0.00    +0.000 A 
ATOM     26  C   UNL     1      49.911   5.106  17.344  0.00  0.00    +0.000 A 
ATOM     27  S   UNL     1      49.893   4.552  18.958  0.00  0.00    +0.000 S 
ATOM     28  C   UNL     1      48.998   5.907  19.471  0.00  0.00    +0.000 A 
ATOM     29  N   UNL     1      48.612   6.042  20.768  0.00  0.00    +0.000 NA
ATOM     30  C   UNL     1      47.912   7.100  21.009  0.00  0.00    +0.000 A 
ATOM     31  N   UNL     1      47.570   8.040  20.072  0.00  0.00    +0.000 N 
ATOM     32  C   UNL     1      47.962   7.962  18.758  0.00  0.00    +0.000 A 
ATOM     33  O   UNL     1      47.676   8.844  17.958  0.00  0.00    +0.000 OA
ATOM     34  C   UNL     1      48.738   6.780  18.430  0.00  0.00    +0.000 A 
ATOM     35  H   UNL     1      47.030   8.853  20.329  0.00  0.00    +0.000 HD
ENDBRANCH  22  25
ENDBRANCH  20  21
ENDBRANCH   4  20
TORSDOF 8
ENDMDL
MODEL 3
REMARK VINA RESULT:    -7.772      3.761      5.012
REMARK INTER + INTRA:         -12.034
REMARK INTER:                 -10.788
REMARK INTRA:                  -1.246
REMARK UNBOUND:                -0.855
REMARK  Name = 
REMARK  8 active torsions:
REMARK  status: ('A' for Active; 'I' for Inactive)
REMARK    1  A    between atoms: C_2  and  C_27
REMARK    2  A    between atoms: N_3  and  CA_4
REMARK    3  A    between atoms: CA_4  and  C_5
REMARK    4  A    between atoms: CA_4  and  C_7
REMARK    5  A    between atoms: C_5  and  O_6
REMARK    6  A    between atoms: C_10  and  C_11
REMARK    7  A    between atoms: C_11  and  N_12
REMARK    8  A    between atoms: C_13  and  C_15
REMARK                            x       y       z     vdW  Elec       q    Type
REMARK                         _______ _______ _______ _____ _____    ______ ____
ROOT
ATOM      1  C   UNL     1      44.819   5.363  11.748  0.00  0.00    +0.000 A 
ATOM      2  C   UNL     1      45.902   5.176  12.626  0.00  0.00    +0.000 A 
ATOM      3  C   UNL     1      46.555   6.267  13.215  0.00  0.00    +0.000 A 
ATOM      4  C   UNL     1      46.130   7.571  12.949  0.00  0.00    +0.000 A 
ATOM      5  C   UNL     1      45.081   7.764  12.044  0.00  0.00    +0.000 A 
ATOM      6  C   UNL     1      44.437   6.677  11.446  0.00  0.00    +0.000 A 
ENDROOT
BRANCH   1   7
ATOM      7  CA  UNL     1      44.137   4.147  11.139  0.00  0.00    +0.000 C 
BRANCH   7  10
ATOM      8  O   UNL     1      44.222   4.279   8.373  0.00  0.00    +0.000 OA
ATOM      9  C   UNL     1      44.999   3.486   8.909  0.00  0.00    +0.000 C 
ATOM     10  N   UNL     1      45.029   3.365  10.282  0.00  0.00    +0.000 N 
ATOM     11  H   UNL     1      45.574   2.608  10.668  0.00  0.00    +0.000 HD
BRANCH   9  12
ATOM     12  C   UNL     1      45.906   2.642   8.143  0.00  0.00    +0.000 A 
ATOM     13  C   UNL     1      46.046   1.270   8.270  0.00  0.00    +0.000 A 
ATOM     14  C   UNL     1      47.035   0.729   7.402  0.00  0.00    +0.000 A 
ATOM     15  C   UNL     1      47.627   1.705   6.632  0.00  0.00    +0.000 A 
ATOM     16  S   UNL     1      46.970   3.255   6.947  0.00  0.00    +0.000 S 
ENDBRANCH   9  12
ENDBRANCH   7  10
BRANCH   7  17
ATOM     17  C   UNL     1      43.465   3.275  12.228  0.00  0.00    +0.000 C 
BRANCH  17  18
ATOM     18  O   UNL     1      42.946   2.042  11.727  0.00  0.00    +0.000 OA
ATOM     19  H   UNL     1      43.699   1.466  11.481  0.00  0.00    +0.000 HD
ENDBRANCH  17  18
ENDBRANCH   7  17
ENDBRANCH   1   7
BRANCH   4  20
ATOM     20  C   UNL     1      46.798   8.766  13.587  0.00  0.00    +0.000 C 
BRANCH  20  21
ATOM     21  N   UNL     1      48.073   9.039  12.974  0.00  0.00    +0.000 N 
ATOM     22  C   UNL     1      48.195   9.939  11.949  0.00  0.00    +0.000 C 
ATOM     23  O   UNL     1      47.237  10.586  11.530  0.00  0.00    +0.000 OA
ATOM     24  H   UNL     1      48.805   8.349  13.114  0.00  0.00    +0.000 HD
BRANCH  22  25
ATOM     25  C   UNL     1      49.547  10.138  11.413  0.00  0.00    +0.000 A 
ATOM     26  C   UNL     1      49.976  11.412  11.072  0.00  0.00    +0.000 A 
ATOM     27  S   UNL     1      51.591  11.467  10.523  0.00  0.00    +0.000 S 
ATOM     28  C   UNL     1      51.755   9.778  10.669  0.00  0.00    +0.000 A 
ATOM     29  N   UNL     1      52.912   9.154  10.323  0.00  0.00    +0.000 NA
ATOM     30  C   UNL     1      52.885   7.869  10.452  0.00  0.00    +0.000 A 
ATOM     31  N   UNL     1      51.808   7.153  10.905  0.00  0.00    +0.000 N 
ATOM     32  C   UNL     1      50.630   7.742  11.294  0.00  0.00    +0.000 A 
ATOM     33  O   UNL     1      49.703   7.074  11.737  0.00  0.00    +0.000 OA
ATOM     34  C   UNL     1      50.601   9.186  11.152  0.00  0.00    +0.000 A 
ATOM     35  H   UNL     1      51.856   6.148  10.996  0.00  0.00    +0.000 HD
ENDBRANCH  22  25
ENDBRANCH  20  21
ENDBRANCH   4  20
TORSDOF 8
ENDMDL
MODEL 4
REMARK VINA RESULT:    -7.184      2.434      3.225
REMARK INTER + INTRA:         -11.188
REMARK INTER:                 -10.132
REMARK INTRA:                  -1.056
REMARK UNBOUND:                -0.855
REMARK  Name = 
REMARK  8 active torsions:
REMARK  status: ('A' for Active; 'I' for Inactive)
REMARK    1  A    between atoms: C_2  and  C_27
REMARK    2  A    between atoms: N_3  and  CA_4
REMARK    3  A    between atoms: CA_4  and  C_5
REMARK    4  A    between atoms: CA_4  and  C_7
REMARK    5  A    between atoms: C_5  and  O_6
REMARK    6  A    between atoms: C_10  and  C_11
REMARK    7  A    between atoms: C_11  and  N_12
REMARK    8  A    between atoms: C_13  and  C_15
REMARK                            x       y       z     vdW  Elec       q    Type
REMARK                         _______ _______ _______ _____ _____    ______ ____
ROOT
ATOM      1  C   UNL     1      45.297   6.296  11.812  0.00  0.00    +0.000 A 
ATOM      2  C   UNL     1      46.582   5.914  12.237  0.00  0.00    +0.000 A 
ATOM      3  C   UNL     1      47.400   6.794  12.957  0.00  0.00    +0.000 A 
ATOM      4  C   UNL     1      46.944   8.075  13.281  0.00  0.00    +0.000 A 
ATOM      5  C   UNL     1      45.684   8.475  12.824  0.00  0.00    +0.000 A 
ATOM      6  C   UNL     1      44.872   7.601  12.095  0.00  0.00    +0.000 A 
ENDROOT
BRANCH   1   7
ATOM      7  CA  UNL     1      44.443   5.302  11.039  0.00  0.00    +0.000 C 
BRANCH   7  10
ATOM      8  O   UNL     1      43.808   4.383   8.505  0.00  0.00    +0.000 OA
ATOM      9  C   UNL     1      44.845   3.940   9.006  0.00  0.00    +0.000 C 
ATOM     10  N   UNL     1      45.239   4.353  10.260  0.00  0.00    +0.000 N 
ATOM     11  H   UNL     1      46.011   3.862  10.687  0.00  0.00    +0.000 HD
BRANCH   9  12
ATOM     12  C   UNL     1      45.691   2.971   8.324  0.00  0.00    +0.000 A 
ATOM     13  C   UNL     1      45.737   1.609   8.574  0.00  0.00    +0.000 A 
ATOM     14  C   UNL     1      46.685   0.926   7.763  0.00  0.00    +0.000 A 
ATOM     15  C   UNL     1      47.341   1.786   6.912  0.00  0.00    +0.000 A 
ATOM     16  S   UNL     1      46.793   3.400   7.082  0.00  0.00    +0.000 S 
ENDBRANCH   9  12
ENDBRANCH   7  10
BRANCH   7  17
ATOM     17  C   UNL     1      43.433   4.587  11.969  0.00  0.00    +0.000 C 
BRANCH  17  18
ATOM     18  O   UNL     1      42.839   3.429  11.379  0.00  0.00    +0.000 OA
ATOM     19  H   UNL     1      43.098   3.396  10.434  0.00  0.00    +0.000 HD
ENDBRANCH  17  18
ENDBRANCH   7  17
ENDBRANCH   1   7
BRANCH   4  20
ATOM     20  C   UNL     1      47.793   9.039  14.076  0.00  0.00    +0.000 C 
BRANCH  20  21
ATOM     21  N   UNL     1      47.586   8.871  15.491  0.00  0.00    +0.000 N 
ATOM     22  C   UNL     1      48.550   8.319  16.294  0.00  0.00    +0.000 C 
ATOM     23  O   UNL     1      49.648   7.981  15.858  0.00  0.00    +0.000 OA
ATOM     24  H   UNL     1      46.625   8.893  15.819  0.00  0.00    +0.000 HD
BRANCH  22  25
ATOM     25  C   UNL     1      48.224   8.208  17.721  0.00  0.00    +0.000 A 
ATOM     26  C   UNL     1      48.250   6.967  18.342  0.00  0.00    +0.000 A 
ATOM     27  S   UNL     1      47.904   7.031  20.012  0.00  0.00    +0.000 S 
ATOM     28  C   UNL     1      47.653   8.713  19.952  0.00  0.00    +0.000 A 
ATOM     29  N   UNL     1      47.290   9.408  21.063  0.00  0.00    +0.000 NA
ATOM     30  C   UNL     1      47.101  10.670  20.866  0.00  0.00    +0.000 A 
ATOM     31  N   UNL     1      47.250  11.303  19.659  0.00  0.00    +0.000 N 
ATOM     32  C   UNL     1      47.644  10.648  18.517  0.00  0.00    +0.000 A 
ATOM     33  O   UNL     1      47.811  11.254  17.465  0.00  0.00    +0.000 OA
ATOM     34  C   UNL     1      47.853   9.222  18.681  0.00  0.00    +0.000 A 
ATOM     35  H   UNL     1      47.099  12.297  19.574  0.00  0.00    +0.000 HD
ENDBRANCH  22  25
ENDBRANCH  20  21
ENDBRANCH   4  20
TORSDOF 8
ENDMDL
MODEL 5
REMARK VINA RESULT:    -7.042      5.019      9.493
REMARK INTER + INTRA:         -10.985
REMARK INTER:                  -9.976
REMARK INTRA:                  -1.009
REMARK UNBOUND:                -0.855
REMARK  Name = 
REMARK  8 active torsions:
REMARK  status: ('A' for Active; 'I' for Inactive)
REMARK    1  A    between atoms: C_2  and  C_27
REMARK    2  A    between atoms: N_3  and  CA_4
REMARK    3  A    between atoms: CA_4  and  C_5
REMARK    4  A    between atoms: CA_4  and  C_7
REMARK    5  A    between atoms: C_5  and  O_6
REMARK    6  A    between atoms: C_10  and  C_11
REMARK    7  A    between atoms: C_11  and  N_12
REMARK    8  A    between atoms: C_13  and  C_15
REMARK                            x       y       z     vdW  Elec       q    Type
REMARK                         _______ _______ _______ _____ _____    ______ ____
ROOT
ATOM      1  C   UNL     1      51.457   3.104  17.801  0.00  0.00    +0.000 A 
ATOM      2  C   UNL     1      50.711   2.058  17.228  0.00  0.00    +0.000 A 
ATOM      3  C   UNL     1      49.344   2.205  16.957  0.00  0.00    +0.000 A 
ATOM      4  C   UNL     1      48.695   3.409  17.242  0.00  0.00    +0.000 A 
ATOM      5  C   UNL     1      49.422   4.437  17.851  0.00  0.00    +0.000 A 
ATOM      6  C   UNL     1      50.783   4.287  18.132  0.00  0.00    +0.000 A 
ENDROOT
BRANCH   1   7
ATOM      7  CA  UNL     1      52.940   2.899  18.070  0.00  0.00    +0.000 C 
BRANCH   7  10
ATOM      8  O   UNL     1      54.273   0.920  19.476  0.00  0.00    +0.000 OA
ATOM      9  C   UNL     1      54.117   0.725  18.269  0.00  0.00    +0.000 C 
ATOM     10  N   UNL     1      53.456   1.655  17.496  0.00  0.00    +0.000 N 
ATOM     11  H   UNL     1      53.476   1.524  16.495  0.00  0.00    +0.000 HD
BRANCH   9  12
ATOM     12  C   UNL     1      54.618  -0.467  17.598  0.00  0.00    +0.000 A 
ATOM     13  C   UNL     1      54.882  -0.591  16.244  0.00  0.00    +0.000 A 
ATOM     14  C   UNL     1      55.336  -1.890  15.882  0.00  0.00    +0.000 A 
ATOM     15  C   UNL     1      55.407  -2.727  16.973  0.00  0.00    +0.000 A 
ATOM     16  S   UNL     1      54.949  -1.935  18.420  0.00  0.00    +0.000 S 
ENDBRANCH   9  12
ENDBRANCH   7  10
BRANCH   7  17
ATOM     17  C   UNL     1      53.767   4.130  17.624  0.00  0.00    +0.000 C 
BRANCH  17  18
ATOM     18  O   UNL     1      55.028   4.237  18.287  0.00  0.00    +0.000 OA
ATOM     19  H   UNL     1      55.739   4.145  17.618  0.00  0.00    +0.000 HD
ENDBRANCH  17  18
ENDBRANCH   7  17
ENDBRANCH   1   7
BRANCH   4  20
ATOM     20  C   UNL     1      47.228   3.607  16.940  0.00  0.00    +0.000 C 
BRANCH  20  21
ATOM     21  N   UNL     1      47.035   4.612  15.927  0.00  0.00    +0.000 N 
ATOM     22  C   UNL     1      47.104   4.306  14.593  0.00  0.00    +0.000 C 
ATOM     23  O   UNL     1      47.291   3.158  14.196  0.00  0.00    +0.000 OA
ATOM     24  H   UNL     1      47.142   5.580  16.216  0.00  0.00    +0.000 HD
BRANCH  22  25
ATOM     25  C   UNL     1      46.881   5.414  13.657  0.00  0.00    +0.000 A 
ATOM     26  C   UNL     1      47.921   6.281  13.352  0.00  0.00    +0.000 A 
ATOM     27  S   UNL     1      47.503   7.473  12.204  0.00  0.00    +0.000 S 
ATOM     28  C   UNL     1      45.900   6.905  12.117  0.00  0.00    +0.000 A 
ATOM     29  N   UNL     1      44.983   7.516  11.321  0.00  0.00    +0.000 NA
ATOM     30  C   UNL     1      43.799   7.002  11.378  0.00  0.00    +0.000 A 
ATOM     31  N   UNL     1      43.453   5.925  12.153  0.00  0.00    +0.000 N 
ATOM     32  C   UNL     1      44.352   5.258  12.949  0.00  0.00    +0.000 A 
ATOM     33  O   UNL     1      44.017   4.271  13.594  0.00  0.00    +0.000 OA
ATOM     34  C   UNL     1      45.695   5.808  12.935  0.00  0.00    +0.000 A 
ATOM     35  H   UNL     1      42.511   5.563  12.143  0.00  0.00    +0.000 HD
ENDBRANCH  22  25
ENDBRANCH  20  21
ENDBRANCH   4  20
TORSDOF 8
ENDMDL
MODEL 6
REMARK VINA RESULT:    -7.041      3.273      8.791
REMARK INTER + INTRA:         -10.983
REMARK INTER:                  -9.950
REMARK INTRA:                  -1.034
REMARK UNBOUND:                -0.855
REMARK  Name = 
REMARK  8 active torsions:
REMARK  status: ('A' for Active; 'I' for Inactive)
REMARK    1  A    between atoms: C_2  and  C_27
REMARK    2  A    between atoms: N_3  and  CA_4
REMARK    3  A    between atoms: CA_4  and  C_5
REMARK    4  A    between atoms: CA_4  and  C_7
REMARK    5  A    between atoms: C_5  and  O_6
REMARK    6  A    between atoms: C_10  and  C_11
REMARK    7  A    between atoms: C_11  and  N_12
REMARK    8  A    between atoms: C_13  and  C_15
REMARK                            x       y       z     vdW  Elec       q    Type
REMARK                         _______ _______ _______ _____ _____    ______ ____
ROOT
ATOM      1  C   UNL     1      49.075   4.573  17.336  0.00  0.00    +0.000 A 
ATOM      2  C   UNL     1      47.968   4.129  16.590  0.00  0.00    +0.000 A 
ATOM      3  C   UNL     1      47.532   4.823  15.454  0.00  0.00    +0.000 A 
ATOM      4  C   UNL     1      48.203   5.974  15.031  0.00  0.00    +0.000 A 
ATOM      5  C   UNL     1      49.277   6.444  15.794  0.00  0.00    +0.000 A 
ATOM      6  C   UNL     1      49.706   5.758  16.934  0.00  0.00    +0.000 A 
ENDROOT
BRANCH   1   7
ATOM      7  CA  UNL     1      49.515   3.781  18.558  0.00  0.00    +0.000 C 
BRANCH   7  10
ATOM      8  O   UNL     1      50.472   1.667  17.045  0.00  0.00    +0.000 OA
ATOM      9  C   UNL     1      51.305   2.285  17.713  0.00  0.00    +0.000 C 
ATOM     10  N   UNL     1      50.915   3.357  18.487  0.00  0.00    +0.000 N 
ATOM     11  H   UNL     1      51.598   3.741  19.123  0.00  0.00    +0.000 HD
BRANCH   9  12
ATOM     12  C   UNL     1      52.716   1.924  17.733  0.00  0.00    +0.000 A 
ATOM     13  C   UNL     1      53.248   0.696  17.376  0.00  0.00    +0.000 A 
ATOM     14  C   UNL     1      54.662   0.639  17.526  0.00  0.00    +0.000 A 
ATOM     15  C   UNL     1      55.174   1.828  17.995  0.00  0.00    +0.000 A 
ATOM     16  S   UNL     1      53.951   3.005  18.227  0.00  0.00    +0.000 S 
ENDBRANCH   9  12
ENDBRANCH   7  10
BRANCH   7  17
ATOM     17  C   UNL     1      49.207   4.548  19.867  0.00  0.00    +0.000 C 
BRANCH  17  18
ATOM     18  O   UNL     1      48.405   3.804  20.786  0.00  0.00    +0.000 OA
ATOM     19  H   UNL     1      48.618   2.853  20.682  0.00  0.00    +0.000 HD
ENDBRANCH  17  18
ENDBRANCH   7  17
ENDBRANCH   1   7
BRANCH   4  20
ATOM     20  C   UNL     1      47.772   6.732  13.798  0.00  0.00    +0.000 C 
BRANCH  20  21
ATOM     21  N   UNL     1      47.111   5.864  12.857  0.00  0.00    +0.000 N 
ATOM     22  C   UNL     1      46.276   6.361  11.891  0.00  0.00    +0.000 C 
ATOM     23  O   UNL     1      46.081   7.567  11.753  0.00  0.00    +0.000 OA
ATOM     24  H   UNL     1      47.046   4.882  13.108  0.00  0.00    +0.000 HD
BRANCH  22  25
ATOM     25  C   UNL     1      45.668   5.378  10.986  0.00  0.00    +0.000 A 
ATOM     26  C   UNL     1      45.807   5.523   9.613  0.00  0.00    +0.000 A 
ATOM     27  S   UNL     1      45.091   4.260   8.716  0.00  0.00    +0.000 S 
ATOM     28  C   UNL     1      44.520   3.504  10.131  0.00  0.00    +0.000 A 
ATOM     29  N   UNL     1      43.784   2.363  10.068  0.00  0.00    +0.000 NA
ATOM     30  C   UNL     1      43.390   1.918  11.214  0.00  0.00    +0.000 A 
ATOM     31  N   UNL     1      43.673   2.506  12.419  0.00  0.00    +0.000 N 
ATOM     32  C   UNL     1      44.438   3.641  12.535  0.00  0.00    +0.000 A 
ATOM     33  O   UNL     1      44.710   4.114  13.632  0.00  0.00    +0.000 OA
ATOM     34  C   UNL     1      44.892   4.193  11.272  0.00  0.00    +0.000 A 
ATOM     35  H   UNL     1      43.345   2.100  13.283  0.00  0.00    +0.000 HD
ENDBRANCH  22  25
ENDBRANCH  20  21
ENDBRANCH   4  20
TORSDOF 8
ENDMDL
MODEL 7
REMARK VINA RESULT:    -6.653      2.197      2.500
REMARK INTER + INTRA:         -10.426
REMARK INTER:                  -9.416
REMARK INTRA:                  -1.010
REMARK UNBOUND:                -0.855
REMARK  Name = 
REMARK  8 active torsions:
REMARK  status: ('A' for Active; 'I' for Inactive)
REMARK    1  A    between atoms: C_2  and  C_27
REMARK    2  A    between atoms: N_3  and  CA_4
REMARK    3  A    between atoms: CA_4  and  C_5
REMARK    4  A    between atoms: CA_4  and  C_7
REMARK    5  A    between atoms: C_5  and  O_6
REMARK    6  A    between atoms: C_10  and  C_11
REMARK    7  A    between atoms: C_11  and  N_12
REMARK    8  A    between atoms: C_13  and  C_15
REMARK                            x       y       z     vdW  Elec       q    Type
REMARK                         _______ _______ _______ _____ _____    ______ ____
ROOT
ATOM      1  C   UNL     1      45.634   6.257  12.243  0.00  0.00    +0.000 A 
ATOM      2  C   UNL     1      46.617   5.592  12.999  0.00  0.00    +0.000 A 
ATOM      3  C   UNL     1      47.532   6.303  13.786  0.00  0.00    +0.000 A 
ATOM      4  C   UNL     1      47.477   7.698  13.845  0.00  0.00    +0.000 A 
ATOM      5  C   UNL     1      46.530   8.366  13.061  0.00  0.00    +0.000 A 
ATOM      6  C   UNL     1      45.623   7.658  12.267  0.00  0.00    +0.000 A 
ENDROOT
BRANCH   1   7
ATOM      7  CA  UNL     1      44.657   5.441  11.410  0.00  0.00    +0.000 C 
BRANCH   7  10
ATOM      8  O   UNL     1      43.748   4.602   8.932  0.00  0.00    +0.000 OA
ATOM      9  C   UNL     1      44.795   4.090   9.334  0.00  0.00    +0.000 C 
ATOM     10  N   UNL     1      45.323   4.459  10.553  0.00  0.00    +0.000 N 
ATOM     11  H   UNL     1      46.098   3.916  10.905  0.00  0.00    +0.000 HD
BRANCH   9  12
ATOM     12  C   UNL     1      45.518   3.083   8.569  0.00  0.00    +0.000 A 
ATOM     13  C   UNL     1      45.524   1.720   8.817  0.00  0.00    +0.000 A 
ATOM     14  C   UNL     1      46.348   0.994   7.912  0.00  0.00    +0.000 A 
ATOM     15  C   UNL     1      46.952   1.824   6.994  0.00  0.00    +0.000 A 
ATOM     16  S   UNL     1      46.502   3.462   7.218  0.00  0.00    +0.000 S 
ENDBRANCH   9  12
ENDBRANCH   7  10
BRANCH   7  17
ATOM     17  C   UNL     1      43.566   4.794  12.297  0.00  0.00    +0.000 C 
BRANCH  17  18
ATOM     18  O   UNL     1      43.043   5.678  13.289  0.00  0.00    +0.000 OA
ATOM     19  H   UNL     1      43.757   5.886  13.927  0.00  0.00    +0.000 HD
ENDBRANCH  17  18
ENDBRANCH   7  17
ENDBRANCH   1   7
BRANCH   4  20
ATOM     20  C   UNL     1      48.434   8.491  14.701  0.00  0.00    +0.000 C 
BRANCH  20  21
ATOM     21  N   UNL     1      48.633   7.862  15.982  0.00  0.00    +0.000 N 
ATOM     22  C   UNL     1      48.275   8.486  17.148  0.00  0.00    +0.000 C 
ATOM     23  O   UNL     1      47.732   9.588  17.159  0.00  0.00    +0.000 OA
ATOM     24  H   UNL     1      49.299   7.096  16.017  0.00  0.00    +0.000 HD
BRANCH  22  25
ATOM     25  C   UNL     1      48.520   7.739  18.388  0.00  0.00    +0.000 A 
ATOM     26  C   UNL     1      47.477   7.507  19.273  0.00  0.00    +0.000 A 
ATOM     27  S   UNL     1      47.926   6.575  20.631  0.00  0.00    +0.000 S 
ATOM     28  C   UNL     1      49.545   6.497  20.110  0.00  0.00    +0.000 A 
ATOM     29  N   UNL     1      50.488   5.854  20.848  0.00  0.00    +0.000 NA
ATOM     30  C   UNL     1      51.680   5.902  20.352  0.00  0.00    +0.000 A 
ATOM     31  N   UNL     1      52.011   6.527  19.177  0.00  0.00    +0.000 N 
ATOM     32  C   UNL     1      51.087   7.162  18.383  0.00  0.00    +0.000 A 
ATOM     33  O   UNL     1      51.412   7.670  17.317  0.00  0.00    +0.000 OA
ATOM     34  C   UNL     1      49.734   7.152  18.906  0.00  0.00    +0.000 A 
ATOM     35  H   UNL     1      52.961   6.517  18.836  0.00  0.00    +0.000 HD
ENDBRANCH  22  25
ENDBRANCH  20  21
ENDBRANCH   4  20
TORSDOF 8
ENDMDL
MODEL 8
REMARK VINA RESULT:    -6.169      3.753      8.740
REMARK INTER + INTRA:          -9.729
REMARK INTER:                  -8.832
REMARK INTRA:                  -0.897
REMARK UNBOUND:                -0.855
REMARK  Name = 
REMARK  8 active torsions:
REMARK  status: ('A' for Active; 'I' for Inactive)
REMARK    1  A    between atoms: C_2  and  C_27
REMARK    2  A    between atoms: N_3  and  CA_4
REMARK    3  A    between atoms: CA_4  and  C_5
REMARK    4  A    between atoms: CA_4  and  C_7
REMARK    5  A    between atoms: C_5  and  O_6
REMARK    6  A    between atoms: C_10  and  C_11
REMARK    7  A    between atoms: C_11  and  N_12
REMARK    8  A    between atoms: C_13  and  C_15
REMARK                            x       y       z     vdW  Elec       q    Type
REMARK                         _______ _______ _______ _____ _____    ______ ____
ROOT
ATOM      1  C   UNL     1      50.328   5.265  18.036  0.00  0.00    +0.000 A 
ATOM      2  C   UNL     1      51.298   5.946  17.278  0.00  0.00    +0.000 A 
ATOM      3  C   UNL     1      50.931   6.838  16.262  0.00  0.00    +0.000 A 
ATOM      4  C   UNL     1      49.582   7.078  15.989  0.00  0.00    +0.000 A 
ATOM      5  C   UNL     1      48.614   6.371  16.709  0.00  0.00    +0.000 A 
ATOM      6  C   UNL     1      48.980   5.472  17.716  0.00  0.00    +0.000 A 
ENDROOT
BRANCH   1   7
ATOM      7  CA  UNL     1      50.776   4.312  19.134  0.00  0.00    +0.000 C 
BRANCH   7  10
ATOM      8  O   UNL     1      51.034   2.167  17.401  0.00  0.00    +0.000 OA
ATOM      9  C   UNL     1      52.068   2.559  17.948  0.00  0.00    +0.000 C 
ATOM     10  N   UNL     1      52.030   3.627  18.817  0.00  0.00    +0.000 N 
ATOM     11  H   UNL     1      52.867   3.822  19.347  0.00  0.00    +0.000 HD
BRANCH   9  12
ATOM     12  C   UNL     1      53.360   1.927  17.720  0.00  0.00    +0.000 A 
ATOM     13  C   UNL     1      54.533   2.574  17.367  0.00  0.00    +0.000 A 
ATOM     14  C   UNL     1      55.628   1.683  17.189  0.00  0.00    +0.000 A 
ATOM     15  C   UNL     1      55.261   0.374  17.410  0.00  0.00    +0.000 A 
ATOM     16  S   UNL     1      53.612   0.236  17.852  0.00  0.00    +0.000 S 
ENDBRANCH   9  12
ENDBRANCH   7  10
BRANCH   7  17
ATOM     17  C   UNL     1      50.835   5.026  20.507  0.00  0.00    +0.000 C 
BRANCH  17  18
ATOM     18  O   UNL     1      52.152   5.438  20.876  0.00  0.00    +0.000 OA
ATOM     19  H   UNL     1      52.078   6.155  21.541  0.00  0.00    +0.000 HD
ENDBRANCH  17  18
ENDBRANCH   7  17
ENDBRANCH   1   7
BRANCH   4  20
ATOM     20  C   UNL     1      49.155   8.051  14.915  0.00  0.00    +0.000 C 
BRANCH  20  21
ATOM     21  N   UNL     1      47.921   7.636  14.298  0.00  0.00    +0.000 N 
ATOM     22  C   UNL     1      47.908   6.764  13.241  0.00  0.00    +0.000 C 
ATOM     23  O   UNL     1      48.937   6.261  12.796  0.00  0.00    +0.000 OA
ATOM     24  H   UNL     1      47.107   8.221  14.464  0.00  0.00    +0.000 HD
BRANCH  22  25
ATOM     25  C   UNL     1      46.588   6.411  12.703  0.00  0.00    +0.000 A 
ATOM     26  C   UNL     1      45.776   7.397  12.162  0.00  0.00    +0.000 A 
ATOM     27  S   UNL     1      44.306   6.803  11.531  0.00  0.00    +0.000 S 
ATOM     28  C   UNL     1      44.680   5.212  12.010  0.00  0.00    +0.000 A 
ATOM     29  N   UNL     1      43.810   4.191  11.792  0.00  0.00    +0.000 NA
ATOM     30  C   UNL     1      44.207   3.045  12.236  0.00  0.00    +0.000 A 
ATOM     31  N   UNL     1      45.402   2.827  12.871  0.00  0.00    +0.000 N 
ATOM     32  C   UNL     1      46.326   3.821  13.087  0.00  0.00    +0.000 A 
ATOM     33  O   UNL     1      47.404   3.580  13.617  0.00  0.00    +0.000 OA
ATOM     34  C   UNL     1      45.919   5.134  12.621  0.00  0.00    +0.000 A 
ATOM     35  H   UNL     1      45.661   1.903  13.183  0.00  0.00    +0.000 HD
ENDBRANCH  22  25
ENDBRANCH  20  21
ENDBRANCH   4  20
TORSDOF 8
ENDMDL
MODEL 9
REMARK VINA RESULT:    -6.065      3.251      4.800
REMARK INTER + INTRA:          -9.579
REMARK INTER:                  -8.471
REMARK INTRA:                  -1.108
REMARK UNBOUND:                -0.855
REMARK  Name = 
REMARK  8 active torsions:
REMARK  status: ('A' for Active; 'I' for Inactive)
REMARK    1  A    between atoms: C_2  and  C_27
REMARK    2  A    between atoms: N_3  and  CA_4
REMARK    3  A    between atoms: CA_4  and  C_5
REMARK    4  A    between atoms: CA_4  and  C_7
REMARK    5  A    between atoms: C_5  and  O_6
REMARK    6  A    between atoms: C_10  and  C_11
REMARK    7  A    between atoms: C_11  and  N_12
REMARK    8  A    between atoms: C_13  and  C_15
REMARK                            x       y       z     vdW  Elec       q    Type
REMARK                         _______ _______ _______ _____ _____    ______ ____
ROOT
ATOM      1  C   UNL     1      47.887   7.977  13.950  0.00  0.00    +0.000 A 
ATOM      2  C   UNL     1      48.266   9.230  14.464  0.00  0.00    +0.000 A 
ATOM      3  C   UNL     1      49.084   9.333  15.597  0.00  0.00    +0.000 A 
ATOM      4  C   UNL     1      49.552   8.181  16.235  0.00  0.00    +0.000 A 
ATOM      5  C   UNL     1      49.143   6.933  15.754  0.00  0.00    +0.000 A 
ATOM      6  C   UNL     1      48.317   6.830  14.630  0.00  0.00    +0.000 A 
ENDROOT
BRANCH   1   7
ATOM      7  CA  UNL     1      47.003   7.917  12.713  0.00  0.00    +0.000 C 
BRANCH   7  10
ATOM      8  O   UNL     1      46.509   6.246  10.560  0.00  0.00    +0.000 OA
ATOM      9  C   UNL     1      45.894   5.998  11.600  0.00  0.00    +0.000 C 
ATOM     10  N   UNL     1      46.089   6.774  12.722  0.00  0.00    +0.000 N 
ATOM     11  H   UNL     1      45.465   6.625  13.501  0.00  0.00    +0.000 HD
BRANCH   9  12
ATOM     12  C   UNL     1      44.941   4.901  11.702  0.00  0.00    +0.000 A 
ATOM     13  C   UNL     1      44.633   4.194  12.853  0.00  0.00    +0.000 A 
ATOM     14  C   UNL     1      43.682   3.159  12.631  0.00  0.00    +0.000 A 
ATOM     15  C   UNL     1      43.288   3.102  11.313  0.00  0.00    +0.000 A 
ATOM     16  S   UNL     1      44.048   4.308  10.364  0.00  0.00    +0.000 S 
ENDBRANCH   9  12
ENDBRANCH   7  10
BRANCH   7  17
ATOM     17  C   UNL     1      46.258   9.256  12.490  0.00  0.00    +0.000 C 
BRANCH  17  18
ATOM     18  O   UNL     1      44.898   9.228  12.927  0.00  0.00    +0.000 OA
ATOM     19  H   UNL     1      44.805   9.840  13.687  0.00  0.00    +0.000 HD
ENDBRANCH  17  18
ENDBRANCH   7  17
ENDBRANCH   1   7
BRANCH   4  20
ATOM     20  C   UNL     1      50.454   8.258  17.444  0.00  0.00    +0.000 C 
BRANCH  20  21
ATOM     21  N   UNL     1      51.224   7.050  17.598  0.00  0.00    +0.000 N 
ATOM     22  C   UNL     1      50.957   6.156  18.602  0.00  0.00    +0.000 C 
ATOM     23  O   UNL     1      50.027   6.317  19.390  0.00  0.00    +0.000 OA
ATOM     24  H   UNL     1      52.132   7.025  17.144  0.00  0.00    +0.000 HD
BRANCH  22  25
ATOM     25  C   UNL     1      51.805   4.958  18.650  0.00  0.00    +0.000 A 
ATOM     26  C   UNL     1      53.051   5.018  19.256  0.00  0.00    +0.000 A 
ATOM     27  S   UNL     1      53.875   3.523  19.276  0.00  0.00    +0.000 S 
ATOM     28  C   UNL     1      52.616   2.757  18.424  0.00  0.00    +0.000 A 
ATOM     29  N   UNL     1      52.701   1.444  18.079  0.00  0.00    +0.000 NA
ATOM     30  C   UNL     1      51.690   1.002  17.407  0.00  0.00    +0.000 A 
ATOM     31  N   UNL     1      50.598   1.752  17.056  0.00  0.00    +0.000 N 
ATOM     32  C   UNL     1      50.455   3.073  17.407  0.00  0.00    +0.000 A 
ATOM     33  O   UNL     1      49.444   3.700  17.115  0.00  0.00    +0.000 OA
ATOM     34  C   UNL     1      51.573   3.624  18.150  0.00  0.00    +0.000 A 
ATOM     35  H   UNL     1      49.833   1.343  16.540  0.00  0.00    +0.000 HD
ENDBRANCH  22  25
ENDBRANCH  20  21
ENDBRANCH   4  20
TORSDOF 8
ENDMDL
