MODEL 1
REMARK VINA RESULT:    -7.820      0.000      0.000
REMARK INTER + INTRA:         -11.900
REMARK INTER:                 -10.563
REMARK INTRA:                  -1.337
REMARK UNBOUND:                -1.337
REMARK  Name = 
REMARK  8 active torsions:
REMARK  status: ('A' for Active; 'I' for Inactive)
REMARK    1  A    between atoms: C_1  and  C_2
REMARK    2  A    between atoms: C_2  and  N_3
REMARK    3  A    between atoms: C_2  and  C_17
REMARK    4  A    between atoms: C_4  and  C_6
REMARK    5  A    between atoms: N_12  and  C_13
REMARK    6  A    between atoms: C_20  and  C_21
REMARK    7  A    between atoms: C_21  and  O_22
REMARK    8  A    between atoms: O_22  and  C_23
REMARK                            x       y       z     vdW  Elec       q    Type
REMARK                         _______ _______ _______ _____ _____    ______ ____
ROOT
ATOM      1  C   UNL     1      47.580   8.940  12.338  0.00  0.00    +0.000 C 
ATOM      2  C   UNL     1      47.016   7.913  13.324  0.00  0.00    +0.000 C 
ENDROOT
BRANCH   2   3
ATOM      3  C   UNL     1      46.209   6.801  12.672  0.00  0.00    +0.000 A 
ATOM      4  C   UNL     1      46.425   5.476  13.084  0.00  0.00    +0.000 A 
ATOM      5  C   UNL     1      45.732   4.415  12.496  0.00  0.00    +0.000 A 
ATOM      6  C   UNL     1      44.817   4.650  11.465  0.00  0.00    +0.000 A 
ATOM      7  C   UNL     1      44.590   5.968  11.052  0.00  0.00    +0.000 A 
ATOM      8  C   UNL     1      45.287   7.029  11.638  0.00  0.00    +0.000 A 
BRANCH   6   9
ATOM      9  C   UNL     1      44.129   3.504  10.766  0.00  0.00    +0.000 C 
BRANCH   9  10
ATOM     10  O   UNL     1      43.968   3.782   9.372  0.00  0.00    +0.000 OA
BRANCH  10  11
ATOM     11  C   UNL     1      45.048   3.308   8.647  0.00  0.00    +0.000 A 
ATOM     12  C   UNL     1      45.346   1.957   8.757  0.00  0.00    +0.000 A 
ATOM     13  C   UNL     1      46.425   1.464   8.017  0.00  0.00    +0.000 A 
ATOM     14  C   UNL     1      47.154   2.327   7.206  0.00  0.00    +0.000 A 
ATOM     15  C   UNL     1      46.777   3.655   7.165  0.00  0.00    +0.000 A 
ATOM     16  N   UNL     1      45.744   4.161   7.867  0.00  0.00    +0.000 NA
ENDBRANCH  10  11
ENDBRANCH   9  10
ENDBRANCH   6   9
ENDBRANCH   2   3
BRANCH   2  17
ATOM     17  N   UNL     1      48.116   7.355  14.083  0.00  0.00    +0.000 N 
ATOM     18  C   UNL     1      48.602   7.899  15.242  0.00  0.00    +0.000 C 
ATOM     19  O   UNL     1      48.219   8.978  15.685  0.00  0.00    +0.000 OA
ATOM     20  H   UNL     1      48.308   6.377  13.898  0.00  0.00    +0.000 HD
BRANCH  18  21
ATOM     21  C   UNL     1      49.673   7.137  15.900  0.00  0.00    +0.000 A 
ATOM     22  C   UNL     1      50.956   7.659  15.974  0.00  0.00    +0.000 A 
ATOM     23  S   UNL     1      52.063   6.637  16.776  0.00  0.00    +0.000 S 
ATOM     24  C   UNL     1      50.854   5.476  17.082  0.00  0.00    +0.000 A 
ATOM     25  N   UNL     1      51.130   4.347  17.782  0.00  0.00    +0.000 NA
ATOM     26  C   UNL     1      50.113   3.566  17.961  0.00  0.00    +0.000 A 
ATOM     27  N   UNL     1      48.837   3.795  17.490  0.00  0.00    +0.000 N 
ATOM     28  C   UNL     1      47.775   2.838  17.716  0.00  0.00    +0.000 C 
ATOM     29  C   UNL     1      48.537   4.912  16.719  0.00  0.00    +0.000 A 
ATOM     30  O   UNL     1      47.440   5.065  16.189  0.00  0.00    +0.000 OA
ATOM     31  C   UNL     1      49.637   5.843  16.542  0.00  0.00    +0.000 A 
ENDBRANCH  18  21
ENDBRANCH   2  17
TORSDOF 6
ENDMDL
MODEL 2
REMARK VINA RESULT:    -7.733      2.661      3.749
REMARK INTER + INTRA:         -11.783
REMARK INTER:                 -10.705
REMARK INTRA:                  -1.078
REMARK UNBOUND:                -1.337
REMARK  Name = 
REMARK  8 active torsions:
REMARK  status: ('A' for Active; 'I' for Inactive)
REMARK    1  A    between atoms: C_1  and  C_2
REMARK    2  A    between atoms: C_2  and  N_3
REMARK    3  A    between atoms: C_2  and  C_17
REMARK    4  A    between atoms: C_4  and  C_6
REMARK    5  A    between atoms: N_12  and  C_13
REMARK    6  A    between atoms: C_20  and  C_21
REMARK    7  A    between atoms: C_21  and  O_22
REMARK    8  A    between atoms: O_22  and  C_23
REMARK                            x       y       z     vdW  Elec       q    Type
REMARK                         _______ _______ _______ _____ _____    ______ ____
ROOT
ATOM      1  C   UNL     1      47.151   4.259  15.923  0.00  0.00    +0.000 C 
ATOM      2  C   UNL     1      47.642   5.004  14.678  0.00  0.00    +0.000 C 
ENDROOT
BRANCH   2   3
ATOM      3  C   UNL     1      46.736   4.855  13.465  0.00  0.00    +0.000 A 
ATOM      4  C   UNL     1      46.102   3.623  13.240  0.00  0.00    +0.000 A 
ATOM      5  C   UNL     1      45.284   3.425  12.125  0.00  0.00    +0.000 A 
ATOM      6  C   UNL     1      45.094   4.451  11.195  0.00  0.00    +0.000 A 
ATOM      7  C   UNL     1      45.715   5.686  11.414  0.00  0.00    +0.000 A 
ATOM      8  C   UNL     1      46.538   5.881  12.528  0.00  0.00    +0.000 A 
BRANCH   6   9
ATOM      9  C   UNL     1      44.282   4.219   9.944  0.00  0.00    +0.000 C 
BRANCH   9  10
ATOM     10  O   UNL     1      44.295   2.836   9.580  0.00  0.00    +0.000 OA
BRANCH  10  11
ATOM     11  C   UNL     1      45.262   2.588   8.620  0.00  0.00    +0.000 A 
ATOM     12  C   UNL     1      45.571   3.618   7.744  0.00  0.00    +0.000 A 
ATOM     13  C   UNL     1      46.556   3.384   6.781  0.00  0.00    +0.000 A 
ATOM     14  C   UNL     1      47.186   2.145   6.730  0.00  0.00    +0.000 A 
ATOM     15  C   UNL     1      46.807   1.184   7.646  0.00  0.00    +0.000 A 
ATOM     16  N   UNL     1      45.860   1.378   8.585  0.00  0.00    +0.000 NA
ENDBRANCH  10  11
ENDBRANCH   9  10
ENDBRANCH   6   9
ENDBRANCH   2   3
BRANCH   2  17
ATOM     17  N   UNL     1      47.803   6.403  15.015  0.00  0.00    +0.000 N 
ATOM     18  C   UNL     1      48.966   6.949  15.489  0.00  0.00    +0.000 C 
ATOM     19  O   UNL     1      49.951   6.276  15.776  0.00  0.00    +0.000 OA
ATOM     20  H   UNL     1      47.121   7.023  14.594  0.00  0.00    +0.000 HD
BRANCH  18  21
ATOM     21  C   UNL     1      48.944   8.404  15.699  0.00  0.00    +0.000 A 
ATOM     22  C   UNL     1      49.356   9.261  14.688  0.00  0.00    +0.000 A 
ATOM     23  S   UNL     1      49.256  10.911  15.112  0.00  0.00    +0.000 S 
ATOM     24  C   UNL     1      48.625  10.536  16.650  0.00  0.00    +0.000 A 
ATOM     25  N   UNL     1      48.275  11.516  17.519  0.00  0.00    +0.000 NA
ATOM     26  C   UNL     1      47.786  11.088  18.639  0.00  0.00    +0.000 A 
ATOM     27  N   UNL     1      47.628   9.763  18.988  0.00  0.00    +0.000 N 
ATOM     28  C   UNL     1      47.103   9.389  20.284  0.00  0.00    +0.000 C 
ATOM     29  C   UNL     1      48.034   8.736  18.143  0.00  0.00    +0.000 A 
ATOM     30  O   UNL     1      48.014   7.558  18.489  0.00  0.00    +0.000 OA
ATOM     31  C   UNL     1      48.534   9.172  16.852  0.00  0.00    +0.000 A 
ENDBRANCH  18  21
ENDBRANCH   2  17
TORSDOF 6
ENDMDL
MODEL 3
REMARK VINA RESULT:    -7.725      1.766      2.083
REMARK INTER + INTRA:         -11.771
REMARK INTER:                 -10.739
REMARK INTRA:                  -1.032
REMARK UNBOUND:                -1.337
REMARK  Name = 
REMARK  8 active torsions:
REMARK  status: ('A' for Active; 'I' for Inactive)
REMARK    1  A    between atoms: C_1  and  C_2
REMARK    2  A    between atoms: C_2  and  N_3
REMARK    3  A    between atoms: C_2  and  C_17
REMARK    4  A    between atoms: C_4  and  C_6
REMARK    5  A    between atoms: N_12  and  C_13
REMARK    6  A    between atoms: C_20  and  C_21
REMARK    7  A    between atoms: C_21  and  O_22
REMARK    8  A    between atoms: O_22  and  C_23
REMARK                            x       y       z     vdW  Elec       q    Type
REMARK                         _______ _______ _______ _____ _____    ______ ____
ROOT
ATOM      1  C   UNL     1      49.513   7.407  12.944  0.00  0.00    +0.000 C 
ATOM      2  C   UNL     1      48.082   7.570  13.464  0.00  0.00    +0.000 C 
ENDROOT
BRANCH   2   3
ATOM      3  C   UNL     1      47.072   6.637  12.812  0.00  0.00    +0.000 A 
ATOM      4  C   UNL     1      46.307   7.114  11.735  0.00  0.00    +0.000 A 
ATOM      5  C   UNL     1      45.346   6.308  11.120  0.00  0.00    +0.000 A 
ATOM      6  C   UNL     1      45.110   5.009  11.580  0.00  0.00    +0.000 A 
ATOM      7  C   UNL     1      45.872   4.522  12.649  0.00  0.00    +0.000 A 
ATOM      8  C   UNL     1      46.832   5.331  13.266  0.00  0.00    +0.000 A 
BRANCH   6   9
ATOM      9  C   UNL     1      44.015   4.163  10.979  0.00  0.00    +0.000 C 
BRANCH   9  10
ATOM     10  O   UNL     1      43.899   4.406   9.575  0.00  0.00    +0.000 OA
BRANCH  10  11
ATOM     11  C   UNL     1      44.862   3.701   8.871  0.00  0.00    +0.000 A 
ATOM     12  C   UNL     1      44.953   2.337   9.106  0.00  0.00    +0.000 A 
ATOM     13  C   UNL     1      45.911   1.613   8.390  0.00  0.00    +0.000 A 
ATOM     14  C   UNL     1      46.730   2.271   7.479  0.00  0.00    +0.000 A 
ATOM     15  C   UNL     1      46.561   3.632   7.317  0.00  0.00    +0.000 A 
ATOM     16  N   UNL     1      45.649   4.358   7.993  0.00  0.00    +0.000 NA
ENDBRANCH  10  11
ENDBRANCH   9  10
ENDBRANCH   6   9
ENDBRANCH   2   3
BRANCH   2  17
ATOM     17  N   UNL     1      48.090   7.373  14.899  0.00  0.00    +0.000 N 
ATOM     18  C   UNL     1      48.593   8.281  15.794  0.00  0.00    +0.000 C 
ATOM     19  O   UNL     1      49.185   9.299  15.451  0.00  0.00    +0.000 OA
ATOM     20  H   UNL     1      47.430   6.684  15.238  0.00  0.00    +0.000 HD
BRANCH  18  21
ATOM     21  C   UNL     1      48.438   7.924  17.212  0.00  0.00    +0.000 A 
ATOM     22  C   UNL     1      48.022   8.879  18.129  0.00  0.00    +0.000 A 
ATOM     23  S   UNL     1      47.895   8.281  19.723  0.00  0.00    +0.000 S 
ATOM     24  C   UNL     1      48.359   6.716  19.233  0.00  0.00    +0.000 A 
ATOM     25  N   UNL     1      48.414   5.693  20.122  0.00  0.00    +0.000 NA
ATOM     26  C   UNL     1      48.756   4.555  19.608  0.00  0.00    +0.000 A 
ATOM     27  N   UNL     1      49.071   4.339  18.282  0.00  0.00    +0.000 N 
ATOM     28  C   UNL     1      49.477   3.031  17.815  0.00  0.00    +0.000 C 
ATOM     29  C   UNL     1      49.082   5.380  17.360  0.00  0.00    +0.000 A 
ATOM     30  O   UNL     1      49.479   5.228  16.208  0.00  0.00    +0.000 OA
ATOM     31  C   UNL     1      48.649   6.662  17.884  0.00  0.00    +0.000 A 
ENDBRANCH  18  21
ENDBRANCH   2  17
TORSDOF 6
ENDMDL
MODEL 4
REMARK VINA RESULT:    -7.160      2.027      4.144
REMARK INTER + INTRA:         -11.009
REMARK INTER:                  -9.825
REMARK INTRA:                  -1.183
REMARK UNBOUND:                -1.337
REMARK  Name = 
REMARK  8 active torsions:
REMARK  status: ('A' for Active; 'I' for Inactive)
REMARK    1  A    between atoms: C_1  and  C_2
REMARK    2  A    between atoms: C_2  and  N_3
REMARK    3  A    between atoms: C_2  and  C_17
REMARK    4  A    between atoms: C_4  and  C_6
REMARK    5  A    between atoms: N_12  and  C_13
REMARK    6  A    between atoms: C_20  and  C_21
REMARK    7  A    between atoms: C_21  and  O_22
REMARK    8  A    between atoms: O_22  and  C_23
REMARK                            x       y       z     vdW  Elec       q    Type
REMARK                         _______ _______ _______ _____ _____    ______ ____
ROOT
ATOM      1  C   UNL     1      47.134   3.881  16.232  0.00  0.00    +0.000 C 
ATOM      2  C   UNL     1      47.591   4.627  14.975  0.00  0.00    +0.000 C 
ENDROOT
BRANCH   2   3
ATOM      3  C   UNL     1      46.639   4.502  13.796  0.00  0.00    +0.000 A 
ATOM      4  C   UNL     1      46.321   3.222  13.314  0.00  0.00    +0.000 A 
ATOM      5  C   UNL     1      45.475   3.054  12.215  0.00  0.00    +0.000 A 
ATOM      6  C   UNL     1      44.941   4.164  11.555  0.00  0.00    +0.000 A 
ATOM      7  C   UNL     1      45.246   5.445  12.032  0.00  0.00    +0.000 A 
ATOM      8  C   UNL     1      46.096   5.612  13.130  0.00  0.00    +0.000 A 
BRANCH   6   9
ATOM      9  C   UNL     1      44.097   3.995  10.316  0.00  0.00    +0.000 C 
BRANCH   9  10
ATOM     10  O   UNL     1      44.723   4.612   9.188  0.00  0.00    +0.000 OA
BRANCH  10  11
ATOM     11  C   UNL     1      45.487   3.697   8.485  0.00  0.00    +0.000 A 
ATOM     12  C   UNL     1      45.313   2.354   8.788  0.00  0.00    +0.000 A 
ATOM     13  C   UNL     1      46.069   1.419   8.075  0.00  0.00    +0.000 A 
ATOM     14  C   UNL     1      46.958   1.856   7.098  0.00  0.00    +0.000 A 
ATOM     15  C   UNL     1      47.059   3.215   6.871  0.00  0.00    +0.000 A 
ATOM     16  N   UNL     1      46.346   4.140   7.543  0.00  0.00    +0.000 NA
ENDBRANCH  10  11
ENDBRANCH   9  10
ENDBRANCH   6   9
ENDBRANCH   2   3
BRANCH   2  17
ATOM     17  N   UNL     1      47.786   6.021  15.316  0.00  0.00    +0.000 N 
ATOM     18  C   UNL     1      48.938   6.523  15.862  0.00  0.00    +0.000 C 
ATOM     19  O   UNL     1      49.874   5.812  16.217  0.00  0.00    +0.000 OA
ATOM     20  H   UNL     1      47.160   6.665  14.848  0.00  0.00    +0.000 HD
BRANCH  18  21
ATOM     21  C   UNL     1      48.961   7.979  16.064  0.00  0.00    +0.000 A 
ATOM     22  C   UNL     1      49.022   8.504  17.347  0.00  0.00    +0.000 A 
ATOM     23  S   UNL     1      49.046  10.211  17.383  0.00  0.00    +0.000 S 
ATOM     24  C   UNL     1      49.012  10.303  15.682  0.00  0.00    +0.000 A 
ATOM     25  N   UNL     1      49.055  11.501  15.046  0.00  0.00    +0.000 NA
ATOM     26  C   UNL     1      49.047  11.421  13.754  0.00  0.00    +0.000 A 
ATOM     27  N   UNL     1      48.981  10.251  13.025  0.00  0.00    +0.000 N 
ATOM     28  C   UNL     1      48.943  10.274  11.578  0.00  0.00    +0.000 C 
ATOM     29  C   UNL     1      48.875   9.013  13.648  0.00  0.00    +0.000 A 
ATOM     30  O   UNL     1      48.691   7.977  13.016  0.00  0.00    +0.000 OA
ATOM     31  C   UNL     1      48.938   9.053  15.098  0.00  0.00    +0.000 A 
ENDBRANCH  18  21
ENDBRANCH   2  17
TORSDOF 6
ENDMDL
MODEL 5
REMARK VINA RESULT:    -7.085      1.811      2.766
REMARK INTER + INTRA:         -10.907
REMARK INTER:                  -9.535
REMARK INTRA:                  -1.372
REMARK UNBOUND:                -1.337
REMARK  Name = 
REMARK  8 active torsions:
REMARK  status: ('A' for Active; 'I' for Inactive)
REMARK    1  A    between atoms: C_1  and  C_2
REMARK    2  A    between atoms: C_2  and  N_3
REMARK    3  A    between atoms: C_2  and  C_17
REMARK    4  A    between atoms: C_4  and  C_6
REMARK    5  A    between atoms: N_12  and  C_13
REMARK    6  A    between atoms: C_20  and  C_21
REMARK    7  A    between atoms: C_21  and  O_22
REMARK    8  A    between atoms: O_22  and  C_23
REMARK                            x       y       z     vdW  Elec       q    Type
REMARK                         _______ _______ _______ _____ _____    ______ ____
ROOT
ATOM      1  C   UNL     1      49.456   7.688  12.897  0.00  0.00    +0.000 C 
ATOM      2  C   UNL     1      48.292   7.354  13.835  0.00  0.00    +0.000 C 
ENDROOT
BRANCH   2   3
ATOM      3  C   UNL     1      47.181   6.543  13.184  0.00  0.00    +0.000 A 
ATOM      4  C   UNL     1      46.259   7.201  12.354  0.00  0.00    +0.000 A 
ATOM      5  C   UNL     1      45.203   6.509  11.757  0.00  0.00    +0.000 A 
ATOM      6  C   UNL     1      45.031   5.141  11.989  0.00  0.00    +0.000 A 
ATOM      7  C   UNL     1      45.948   4.474  12.809  0.00  0.00    +0.000 A 
ATOM      8  C   UNL     1      47.003   5.169  13.410  0.00  0.00    +0.000 A 
BRANCH   6   9
ATOM      9  C   UNL     1      43.845   4.404  11.418  0.00  0.00    +0.000 C 
BRANCH   9  10
ATOM     10  O   UNL     1      43.721   4.651  10.015  0.00  0.00    +0.000 OA
BRANCH  10  11
ATOM     11  C   UNL     1      44.550   3.810   9.292  0.00  0.00    +0.000 A 
ATOM     12  C   UNL     1      45.424   4.398   8.388  0.00  0.00    +0.000 A 
ATOM     13  C   UNL     1      46.276   3.561   7.662  0.00  0.00    +0.000 A 
ATOM     14  C   UNL     1      46.225   2.186   7.866  0.00  0.00    +0.000 A 
ATOM     15  C   UNL     1      45.320   1.698   8.789  0.00  0.00    +0.000 A 
ATOM     16  N   UNL     1      44.484   2.478   9.501  0.00  0.00    +0.000 NA
ENDBRANCH  10  11
ENDBRANCH   9  10
ENDBRANCH   6   9
ENDBRANCH   2   3
BRANCH   2  17
ATOM     17  N   UNL     1      48.818   6.648  14.985  0.00  0.00    +0.000 N 
ATOM     18  C   UNL     1      48.820   7.153  16.259  0.00  0.00    +0.000 C 
ATOM     19  O   UNL     1      48.473   8.300  16.523  0.00  0.00    +0.000 OA
ATOM     20  H   UNL     1      48.899   5.645  14.869  0.00  0.00    +0.000 HD
BRANCH  18  21
ATOM     21  C   UNL     1      49.331   6.247  17.298  0.00  0.00    +0.000 A 
ATOM     22  C   UNL     1      48.469   5.719  18.248  0.00  0.00    +0.000 A 
ATOM     23  S   UNL     1      49.240   4.687  19.368  0.00  0.00    +0.000 S 
ATOM     24  C   UNL     1      50.747   4.886  18.598  0.00  0.00    +0.000 A 
ATOM     25  N   UNL     1      51.849   4.228  19.039  0.00  0.00    +0.000 NA
ATOM     26  C   UNL     1      52.919   4.453  18.346  0.00  0.00    +0.000 A 
ATOM     27  N   UNL     1      53.003   5.292  17.254  0.00  0.00    +0.000 N 
ATOM     28  C   UNL     1      54.260   5.501  16.568  0.00  0.00    +0.000 C 
ATOM     29  C   UNL     1      51.906   6.025  16.816  0.00  0.00    +0.000 A 
ATOM     30  O   UNL     1      51.996   6.867  15.927  0.00  0.00    +0.000 OA
ATOM     31  C   UNL     1      50.671   5.760  17.531  0.00  0.00    +0.000 A 
ENDBRANCH  18  21
ENDBRANCH   2  17
TORSDOF 6
ENDMDL
MODEL 6
REMARK VINA RESULT:    -7.071      1.974      3.042
REMARK INTER + INTRA:         -10.888
REMARK INTER:                 -10.747
REMARK INTRA:                  -0.141
REMARK UNBOUND:                -1.337
REMARK  Name = 
REMARK  8 active torsions:
REMARK  status: ('A' for Active; 'I' for Inactive)
REMARK    1  A    between atoms: C_1  and  C_2
REMARK    2  A    between atoms: C_2  and  N_3
REMARK    3  A    between atoms: C_2  and  C_17
REMARK    4  A    between atoms: C_4  and  C_6
REMARK    5  A    between atoms: N_12  and  C_13
REMARK    6  A    between atoms: C_20  and  C_21
REMARK    7  A    between atoms: C_21  and  O_22
REMARK    8  A    between atoms: O_22  and  C_23
REMARK                            x       y       z     vdW  Elec       q    Type
REMARK                         _______ _______ _______ _____ _____    ______ ____
ROOT
ATOM      1  C   UNL     1      46.084   7.570  12.435  0.00  0.00    +0.000 C 
ATOM      2  C   UNL     1      45.261   6.363  12.895  0.00  0.00    +0.000 C 
ENDROOT
BRANCH   2   3
ATOM      3  C   UNL     1      45.032   5.318  11.813  0.00  0.00    +0.000 A 
ATOM      4  C   UNL     1      44.480   4.079  12.175  0.00  0.00    +0.000 A 
ATOM      5  C   UNL     1      44.277   3.074  11.226  0.00  0.00    +0.000 A 
ATOM      6  C   UNL     1      44.639   3.277   9.891  0.00  0.00    +0.000 A 
ATOM      7  C   UNL     1      45.184   4.511   9.518  0.00  0.00    +0.000 A 
ATOM      8  C   UNL     1      45.391   5.515  10.471  0.00  0.00    +0.000 A 
BRANCH   6   9
ATOM      9  C   UNL     1      44.504   2.168   8.877  0.00  0.00    +0.000 C 
BRANCH   9  10
ATOM     10  O   UNL     1      45.727   1.437   8.758  0.00  0.00    +0.000 OA
BRANCH  10  11
ATOM     11  C   UNL     1      46.424   1.821   7.625  0.00  0.00    +0.000 A 
ATOM     12  C   UNL     1      45.896   2.861   6.873  0.00  0.00    +0.000 A 
ATOM     13  C   UNL     1      46.598   3.268   5.735  0.00  0.00    +0.000 A 
ATOM     14  C   UNL     1      47.786   2.629   5.396  0.00  0.00    +0.000 A 
ATOM     15  C   UNL     1      48.228   1.603   6.209  0.00  0.00    +0.000 A 
ATOM     16  N   UNL     1      47.574   1.187   7.311  0.00  0.00    +0.000 NA
ENDBRANCH  10  11
ENDBRANCH   9  10
ENDBRANCH   6   9
ENDBRANCH   2   3
BRANCH   2  17
ATOM     17  N   UNL     1      45.922   5.765  14.037  0.00  0.00    +0.000 N 
ATOM     18  C   UNL     1      47.252   5.440  14.069  0.00  0.00    +0.000 C 
ATOM     19  O   UNL     1      47.984   5.525  13.087  0.00  0.00    +0.000 OA
ATOM     20  H   UNL     1      45.438   5.884  14.919  0.00  0.00    +0.000 HD
BRANCH  18  21
ATOM     21  C   UNL     1      47.744   4.912  15.349  0.00  0.00    +0.000 A 
ATOM     22  C   UNL     1      47.451   3.609  15.726  0.00  0.00    +0.000 A 
ATOM     23  S   UNL     1      48.111   3.173  17.238  0.00  0.00    +0.000 S 
ATOM     24  C   UNL     1      48.839   4.702  17.425  0.00  0.00    +0.000 A 
ATOM     25  N   UNL     1      49.604   4.984  18.509  0.00  0.00    +0.000 NA
ATOM     26  C   UNL     1      50.115   6.173  18.509  0.00  0.00    +0.000 A 
ATOM     27  N   UNL     1      49.921   7.127  17.531  0.00  0.00    +0.000 N 
ATOM     28  C   UNL     1      50.512   8.443  17.643  0.00  0.00    +0.000 C 
ATOM     29  C   UNL     1      49.095   6.888  16.438  0.00  0.00    +0.000 A 
ATOM     30  O   UNL     1      48.815   7.766  15.627  0.00  0.00    +0.000 OA
ATOM     31  C   UNL     1      48.547   5.545  16.371  0.00  0.00    +0.000 A 
ENDBRANCH  18  21
ENDBRANCH   2  17
TORSDOF 6
ENDMDL
MODEL 7
REMARK VINA RESULT:    -6.879      3.813      9.046
REMARK INTER + INTRA:         -10.628
REMARK INTER:                 -10.479
REMARK INTRA:                  -0.149
REMARK UNBOUND:                -1.337
REMARK  Name = 
REMARK  8 active torsions:
REMARK  status: ('A' for Active; 'I' for Inactive)
REMARK    1  A    between atoms: C_1  and  C_2
REMARK    2  A    between atoms: C_2  and  N_3
REMARK    3  A    between atoms: C_2  and  C_17
REMARK    4  A    between atoms: C_4  and  C_6
REMARK    5  A    between atoms: N_12  and  C_13
REMARK    6  A    between atoms: C_20  and  C_21
REMARK    7  A    between atoms: C_21  and  O_22
REMARK    8  A    between atoms: O_22  and  C_23
REMARK                            x       y       z     vdW  Elec       q    Type
REMARK                         _______ _______ _______ _____ _____    ______ ____
ROOT
ATOM      1  C   UNL     1      46.778   3.060  17.447  0.00  0.00    +0.000 C 
ATOM      2  C   UNL     1      47.773   4.220  17.350  0.00  0.00    +0.000 C 
ENDROOT
BRANCH   2   3
ATOM      3  C   UNL     1      49.232   3.796  17.417  0.00  0.00    +0.000 A 
ATOM      4  C   UNL     1      49.549   2.435  17.285  0.00  0.00    +0.000 A 
ATOM      5  C   UNL     1      50.870   1.989  17.369  0.00  0.00    +0.000 A 
ATOM      6  C   UNL     1      51.909   2.894  17.607  0.00  0.00    +0.000 A 
ATOM      7  C   UNL     1      51.605   4.254  17.733  0.00  0.00    +0.000 A 
ATOM      8  C   UNL     1      50.281   4.698  17.653  0.00  0.00    +0.000 A 
BRANCH   6   9
ATOM      9  C   UNL     1      53.328   2.412  17.786  0.00  0.00    +0.000 C 
BRANCH   9  10
ATOM     10  O   UNL     1      53.388   1.357  18.749  0.00  0.00    +0.000 OA
BRANCH  10  11
ATOM     11  C   UNL     1      53.935   0.212  18.194  0.00  0.00    +0.000 A 
ATOM     12  C   UNL     1      54.333   0.275  16.867  0.00  0.00    +0.000 A 
ATOM     13  C   UNL     1      54.900  -0.871  16.299  0.00  0.00    +0.000 A 
ATOM     14  C   UNL     1      55.045  -2.019  17.071  0.00  0.00    +0.000 A 
ATOM     15  C   UNL     1      54.617  -1.980  18.384  0.00  0.00    +0.000 A 
ATOM     16  N   UNL     1      54.065  -0.893  18.958  0.00  0.00    +0.000 NA
ENDBRANCH  10  11
ENDBRANCH   9  10
ENDBRANCH   6   9
ENDBRANCH   2   3
BRANCH   2  17
ATOM     17  N   UNL     1      47.517   4.942  16.120  0.00  0.00    +0.000 N 
ATOM     18  C   UNL     1      47.353   4.342  14.900  0.00  0.00    +0.000 C 
ATOM     19  O   UNL     1      47.518   3.140  14.719  0.00  0.00    +0.000 OA
ATOM     20  H   UNL     1      47.153   5.879  16.244  0.00  0.00    +0.000 HD
BRANCH  18  21
ATOM     21  C   UNL     1      47.026   5.247  13.788  0.00  0.00    +0.000 A 
ATOM     22  C   UNL     1      47.588   6.515  13.733  0.00  0.00    +0.000 A 
ATOM     23  S   UNL     1      47.098   7.418  12.370  0.00  0.00    +0.000 S 
ATOM     24  C   UNL     1      46.144   6.130  11.790  0.00  0.00    +0.000 A 
ATOM     25  N   UNL     1      45.472   6.232  10.616  0.00  0.00    +0.000 NA
ATOM     26  C   UNL     1      44.809   5.170  10.285  0.00  0.00    +0.000 A 
ATOM     27  N   UNL     1      44.734   4.010  11.028  0.00  0.00    +0.000 N 
ATOM     28  C   UNL     1      43.934   2.889  10.584  0.00  0.00    +0.000 C 
ATOM     29  C   UNL     1      45.363   3.898  12.263  0.00  0.00    +0.000 A 
ATOM     30  O   UNL     1      45.205   2.921  12.990  0.00  0.00    +0.000 OA
ATOM     31  C   UNL     1      46.165   5.046  12.645  0.00  0.00    +0.000 A 
ENDBRANCH  18  21
ENDBRANCH   2  17
TORSDOF 6
ENDMDL
MODEL 8
REMARK VINA RESULT:    -6.807      2.009      2.202
REMARK INTER + INTRA:         -10.532
REMARK INTER:                  -9.790
REMARK INTRA:                  -0.741
REMARK UNBOUND:                -1.337
REMARK  Name = 
REMARK  8 active torsions:
REMARK  status: ('A' for Active; 'I' for Inactive)
REMARK    1  A    between atoms: C_1  and  C_2
REMARK    2  A    between atoms: C_2  and  N_3
REMARK    3  A    between atoms: C_2  and  C_17
REMARK    4  A    between atoms: C_4  and  C_6
REMARK    5  A    between atoms: N_12  and  C_13
REMARK    6  A    between atoms: C_20  and  C_21
REMARK    7  A    between atoms: C_21  and  O_22
REMARK    8  A    between atoms: O_22  and  C_23
REMARK                            x       y       z     vdW  Elec       q    Type
REMARK                         _______ _______ _______ _____ _____    ______ ____
ROOT
ATOM      1  C   UNL     1      48.196   8.905  12.733  0.00  0.00    +0.000 C 
ATOM      2  C   UNL     1      47.226   8.140  13.639  0.00  0.00    +0.000 C 
ENDROOT
BRANCH   2   3
ATOM      3  C   UNL     1      46.364   7.122  12.909  0.00  0.00    +0.000 A 
ATOM      4  C   UNL     1      46.367   5.789  13.352  0.00  0.00    +0.000 A 
ATOM      5  C   UNL     1      45.617   4.809  12.698  0.00  0.00    +0.000 A 
ATOM      6  C   UNL     1      44.857   5.133  11.571  0.00  0.00    +0.000 A 
ATOM      7  C   UNL     1      44.841   6.460  11.125  0.00  0.00    +0.000 A 
ATOM      8  C   UNL     1      45.596   7.440  11.778  0.00  0.00    +0.000 A 
BRANCH   6   9
ATOM      9  C   UNL     1      44.112   4.066  10.808  0.00  0.00    +0.000 C 
BRANCH   9  10
ATOM     10  O   UNL     1      44.065   4.377   9.413  0.00  0.00    +0.000 OA
BRANCH  10  11
ATOM     11  C   UNL     1      45.034   3.675   8.717  0.00  0.00    +0.000 A 
ATOM     12  C   UNL     1      45.112   2.307   8.937  0.00  0.00    +0.000 A 
ATOM     13  C   UNL     1      46.077   1.585   8.229  0.00  0.00    +0.000 A 
ATOM     14  C   UNL     1      46.916   2.248   7.340  0.00  0.00    +0.000 A 
ATOM     15  C   UNL     1      46.760   3.613   7.192  0.00  0.00    +0.000 A 
ATOM     16  N   UNL     1      45.841   4.337   7.861  0.00  0.00    +0.000 NA
ENDBRANCH  10  11
ENDBRANCH   9  10
ENDBRANCH   6   9
ENDBRANCH   2   3
BRANCH   2  17
ATOM     17  N   UNL     1      47.991   7.491  14.684  0.00  0.00    +0.000 N 
ATOM     18  C   UNL     1      48.748   8.161  15.608  0.00  0.00    +0.000 C 
ATOM     19  O   UNL     1      48.936   9.373  15.566  0.00  0.00    +0.000 OA
ATOM     20  H   UNL     1      47.698   6.546  14.902  0.00  0.00    +0.000 HD
BRANCH  18  21
ATOM     21  C   UNL     1      49.387   7.322  16.632  0.00  0.00    +0.000 A 
ATOM     22  C   UNL     1      50.395   6.437  16.279  0.00  0.00    +0.000 A 
ATOM     23  S   UNL     1      51.020   5.553  17.598  0.00  0.00    +0.000 S 
ATOM     24  C   UNL     1      49.985   6.350  18.694  0.00  0.00    +0.000 A 
ATOM     25  N   UNL     1      50.037   6.085  20.023  0.00  0.00    +0.000 NA
ATOM     26  C   UNL     1      49.213   6.781  20.740  0.00  0.00    +0.000 A 
ATOM     27  N   UNL     1      48.320   7.712  20.253  0.00  0.00    +0.000 N 
ATOM     28  C   UNL     1      47.415   8.413  21.139  0.00  0.00    +0.000 C 
ATOM     29  C   UNL     1      48.201   7.961  18.890  0.00  0.00    +0.000 A 
ATOM     30  O   UNL     1      47.328   8.693  18.433  0.00  0.00    +0.000 OA
ATOM     31  C   UNL     1      49.147   7.243  18.055  0.00  0.00    +0.000 A 
ENDBRANCH  18  21
ENDBRANCH   2  17
TORSDOF 6
ENDMDL
MODEL 9
REMARK VINA RESULT:    -6.032      2.888      5.292
REMARK INTER + INTRA:          -9.485
REMARK INTER:                  -8.478
REMARK INTRA:                  -1.007
REMARK UNBOUND:                -1.337
REMARK  Name = 
REMARK  8 active torsions:
REMARK  status: ('A' for Active; 'I' for Inactive)
REMARK    1  A    between atoms: C_1  and  C_2
REMARK    2  A    between atoms: C_2  and  N_3
REMARK    3  A    between atoms: C_2  and  C_17
REMARK    4  A    between atoms: C_4  and  C_6
REMARK    5  A    between atoms: N_12  and  C_13
REMARK    6  A    between atoms: C_20  and  C_21
REMARK    7  A    between atoms: C_21  and  O_22
REMARK    8  A    between atoms: O_22  and  C_23
REMARK                            x       y       z     vdW  Elec       q    Type
REMARK                         _______ _______ _______ _____ _____    ______ ____
ROOT
ATOM      1  C   UNL     1      48.044   4.930  19.325  0.00  0.00    +0.000 C 
ATOM      2  C   UNL     1      48.347   4.039  18.117  0.00  0.00    +0.000 C 
ENDROOT
BRANCH   2   3
ATOM      3  C   UNL     1      48.061   4.693  16.774  0.00  0.00    +0.000 A 
ATOM      4  C   UNL     1      47.137   4.087  15.908  0.00  0.00    +0.000 A 
ATOM      5  C   UNL     1      46.861   4.630  14.650  0.00  0.00    +0.000 A 
ATOM      6  C   UNL     1      47.518   5.786  14.219  0.00  0.00    +0.000 A 
ATOM      7  C   UNL     1      48.435   6.403  15.077  0.00  0.00    +0.000 A 
ATOM      8  C   UNL     1      48.714   5.855  16.334  0.00  0.00    +0.000 A 
BRANCH   6   9
ATOM      9  C   UNL     1      47.290   6.331  12.830  0.00  0.00    +0.000 C 
BRANCH   9  10
ATOM     10  O   UNL     1      45.958   6.834  12.694  0.00  0.00    +0.000 OA
BRANCH  10  11
ATOM     11  C   UNL     1      45.240   6.086  11.776  0.00  0.00    +0.000 A 
ATOM     12  C   UNL     1      45.910   5.657  10.640  0.00  0.00    +0.000 A 
ATOM     13  C   UNL     1      45.200   4.888   9.713  0.00  0.00    +0.000 A 
ATOM     14  C   UNL     1      43.865   4.582   9.955  0.00  0.00    +0.000 A 
ATOM     15  C   UNL     1      43.288   5.057  11.117  0.00  0.00    +0.000 A 
ATOM     16  N   UNL     1      43.945   5.800  12.028  0.00  0.00    +0.000 NA
ENDBRANCH  10  11
ENDBRANCH   9  10
ENDBRANCH   6   9
ENDBRANCH   2   3
BRANCH   2  17
ATOM     17  N   UNL     1      49.734   3.627  18.188  0.00  0.00    +0.000 N 
ATOM     18  C   UNL     1      50.294   2.677  17.376  0.00  0.00    +0.000 C 
ATOM     19  O   UNL     1      49.640   2.006  16.583  0.00  0.00    +0.000 OA
ATOM     20  H   UNL     1      50.351   4.287  18.646  0.00  0.00    +0.000 HD
BRANCH  18  21
ATOM     21  C   UNL     1      51.736   2.457  17.558  0.00  0.00    +0.000 A 
ATOM     22  C   UNL     1      52.233   1.170  17.701  0.00  0.00    +0.000 A 
ATOM     23  S   UNL     1      53.928   1.112  17.896  0.00  0.00    +0.000 S 
ATOM     24  C   UNL     1      54.057   2.806  17.762  0.00  0.00    +0.000 A 
ATOM     25  N   UNL     1      55.266   3.420  17.804  0.00  0.00    +0.000 NA
ATOM     26  C   UNL     1      55.218   4.706  17.664  0.00  0.00    +0.000 A 
ATOM     27  N   UNL     1      54.068   5.451  17.505  0.00  0.00    +0.000 N 
ATOM     28  C   UNL     1      54.122   6.893  17.392  0.00  0.00    +0.000 C 
ATOM     29  C   UNL     1      52.811   4.857  17.518  0.00  0.00    +0.000 A 
ATOM     30  O   UNL     1      51.776   5.517  17.502  0.00  0.00    +0.000 OA
ATOM     31  C   UNL     1      52.823   3.408  17.615  0.00  0.00    +0.000 A 
ENDBRANCH  18  21
ENDBRANCH   2  17
TORSDOF 6
ENDMDL
