MODEL 1
REMARK VINA RESULT:    -8.149      0.000      0.000
REMARK INTER + INTRA:         -11.730
REMARK INTER:                 -10.770
REMARK INTRA:                  -0.960
REMARK UNBOUND:                -0.960
REMARK  Name = 
REMARK  6 active torsions:
REMARK  status: ('A' for Active; 'I' for Inactive)
REMARK    1  A    between atoms: N_1  and  C_2
REMARK    2  A    between atoms: C_5  and  O_6
REMARK    3  A    between atoms: O_6  and  C_7
REMARK    4  A    between atoms: C_10  and  C_11
REMARK    5  A    between atoms: C_11  and  N_12
REMARK    6  A    between atoms: C_13  and  C_15
REMARK                            x       y       z     vdW  Elec       q    Type
REMARK                         _______ _______ _______ _____ _____    ______ ____
ROOT
ATOM      1  C   UNL     1      44.537   3.168  10.374  0.00  0.00    +0.000 A 
ATOM      2  C   UNL     1      43.681   4.237  10.107  0.00  0.00    +0.000 A 
ATOM      3  C   UNL     1      43.601   5.311  10.997  0.00  0.00    +0.000 A 
ATOM      4  C   UNL     1      44.336   5.303  12.189  0.00  0.00    +0.000 A 
ATOM      5  C   UNL     1      45.092   4.167  12.509  0.00  0.00    +0.000 A 
ATOM      6  C   UNL     1      45.198   3.109  11.603  0.00  0.00    +0.000 A 
ENDROOT
BRANCH   1   7
ATOM      7  O   UNL     1      44.743   2.108   9.522  0.00  0.00    +0.000 OA
BRANCH   7  11
ATOM      8  C   UNL     1      47.376   2.257   6.322  0.00  0.00    +0.000 A 
ATOM      9  C   UNL     1      46.666   3.407   6.646  0.00  0.00    +0.000 A 
ATOM     10  C   UNL     1      45.785   3.407   7.730  0.00  0.00    +0.000 A 
ATOM     11  C   UNL     1      45.610   2.234   8.457  0.00  0.00    +0.000 A 
ATOM     12  N   UNL     1      46.344   1.126   8.219  0.00  0.00    +0.000 NA
ATOM     13  C   UNL     1      47.224   1.178   7.190  0.00  0.00    +0.000 A 
BRANCH   8  14
ATOM     14  N   UNL     1      48.368   2.288   5.336  0.00  0.00    +0.000 N 
ATOM     15  H   UNL     1      48.503   1.401   4.860  0.00  0.00    +0.000 HD
ATOM     16  H   UNL     1      49.246   2.698   5.639  0.00  0.00    +0.000 HD
ENDBRANCH   8  14
ENDBRANCH   7  11
ENDBRANCH   1   7
BRANCH   4  17
ATOM     17  C   UNL     1      44.263   6.465  13.144  0.00  0.00    +0.000 C 
BRANCH  17  18
ATOM     18  N   UNL     1      45.440   7.277  13.035  0.00  0.00    +0.000 N 
ATOM     19  C   UNL     1      45.515   8.332  12.161  0.00  0.00    +0.000 C 
ATOM     20  O   UNL     1      44.564   8.670  11.462  0.00  0.00    +0.000 OA
ATOM     21  H   UNL     1      46.297   6.882  13.410  0.00  0.00    +0.000 HD
BRANCH  19  22
ATOM     22  C   UNL     1      46.779   9.075  12.167  0.00  0.00    +0.000 A 
ATOM     23  C   UNL     1      46.771  10.454  12.008  0.00  0.00    +0.000 A 
ATOM     24  S   UNL     1      48.316  11.166  12.142  0.00  0.00    +0.000 S 
ATOM     25  C   UNL     1      49.058   9.650  12.360  0.00  0.00    +0.000 A 
ATOM     26  N   UNL     1      50.403   9.546  12.535  0.00  0.00    +0.000 NA
ATOM     27  C   UNL     1      50.833   8.335  12.657  0.00  0.00    +0.000 A 
ATOM     28  N   UNL     1      50.041   7.217  12.617  0.00  0.00    +0.000 N 
ATOM     29  C   UNL     1      48.678   7.275  12.460  0.00  0.00    +0.000 A 
ATOM     30  O   UNL     1      47.996   6.254  12.448  0.00  0.00    +0.000 OA
ATOM     31  C   UNL     1      48.140   8.616  12.328  0.00  0.00    +0.000 A 
ATOM     32  H   UNL     1      50.440   6.295  12.717  0.00  0.00    +0.000 HD
ENDBRANCH  19  22
ENDBRANCH  17  18
ENDBRANCH   4  17
TORSDOF 6
ENDMDL
MODEL 2
REMARK VINA RESULT:    -7.877      3.762      4.793
REMARK INTER + INTRA:         -11.370
REMARK INTER:                 -10.586
REMARK INTRA:                  -0.784
REMARK UNBOUND:                -0.960
REMARK  Name = 
REMARK  6 active torsions:
REMARK  status: ('A' for Active; 'I' for Inactive)
REMARK    1  A    between atoms: N_1  and  C_2
REMARK    2  A    between atoms: C_5  and  O_6
REMARK    3  A    between atoms: O_6  and  C_7
REMARK    4  A    between atoms: C_10  and  C_11
REMARK    5  A    between atoms: C_11  and  N_12
REMARK    6  A    between atoms: C_13  and  C_15
REMARK                            x       y       z     vdW  Elec       q    Type
REMARK                         _______ _______ _______ _____ _____    ______ ____
ROOT
ATOM      1  C   UNL     1      44.818   5.702  10.986  0.00  0.00    +0.000 A 
ATOM      2  C   UNL     1      44.380   6.975  11.354  0.00  0.00    +0.000 A 
ATOM      3  C   UNL     1      45.171   7.777  12.180  0.00  0.00    +0.000 A 
ATOM      4  C   UNL     1      46.383   7.294  12.691  0.00  0.00    +0.000 A 
ATOM      5  C   UNL     1      46.751   5.969  12.421  0.00  0.00    +0.000 A 
ATOM      6  C   UNL     1      45.976   5.181  11.566  0.00  0.00    +0.000 A 
ENDROOT
BRANCH   1   7
ATOM      7  O   UNL     1      44.150   4.874  10.115  0.00  0.00    +0.000 OA
BRANCH   7  11
ATOM      8  C   UNL     1      46.367   2.339   7.697  0.00  0.00    +0.000 A 
ATOM      9  C   UNL     1      45.584   1.777   8.699  0.00  0.00    +0.000 A 
ATOM     10  C   UNL     1      44.805   2.593   9.522  0.00  0.00    +0.000 A 
ATOM     11  C   UNL     1      44.849   3.972   9.341  0.00  0.00    +0.000 A 
ATOM     12  N   UNL     1      45.534   4.541   8.327  0.00  0.00    +0.000 NA
ATOM     13  C   UNL     1      46.241   3.714   7.518  0.00  0.00    +0.000 A 
BRANCH   8  14
ATOM     14  N   UNL     1      47.033   1.523   6.776  0.00  0.00    +0.000 N 
ATOM     15  H   UNL     1      46.649   0.586   6.703  0.00  0.00    +0.000 HD
ATOM     16  H   UNL     1      48.043   1.516   6.877  0.00  0.00    +0.000 HD
ENDBRANCH   8  14
ENDBRANCH   7  11
ENDBRANCH   1   7
BRANCH   4  17
ATOM     17  C   UNL     1      47.244   8.161  13.571  0.00  0.00    +0.000 C 
BRANCH  17  18
ATOM     18  N   UNL     1      47.650   7.441  14.742  0.00  0.00    +0.000 N 
ATOM     19  C   UNL     1      48.909   6.909  14.867  0.00  0.00    +0.000 C 
ATOM     20  O   UNL     1      49.772   7.065  14.008  0.00  0.00    +0.000 OA
ATOM     21  H   UNL     1      46.906   7.097  15.341  0.00  0.00    +0.000 HD
BRANCH  19  22
ATOM     22  C   UNL     1      49.182   6.205  16.124  0.00  0.00    +0.000 A 
ATOM     23  C   UNL     1      50.192   6.655  16.963  0.00  0.00    +0.000 A 
ATOM     24  S   UNL     1      50.304   5.783  18.426  0.00  0.00    +0.000 S 
ATOM     25  C   UNL     1      49.042   4.738  17.965  0.00  0.00    +0.000 A 
ATOM     26  N   UNL     1      48.629   3.734  18.784  0.00  0.00    +0.000 NA
ATOM     27  C   UNL     1      47.686   3.000  18.295  0.00  0.00    +0.000 A 
ATOM     28  N   UNL     1      47.121   3.176  17.058  0.00  0.00    +0.000 N 
ATOM     29  C   UNL     1      47.494   4.186  16.205  0.00  0.00    +0.000 A 
ATOM     30  O   UNL     1      46.954   4.326  15.112  0.00  0.00    +0.000 OA
ATOM     31  C   UNL     1      48.546   5.048  16.712  0.00  0.00    +0.000 A 
ATOM     32  H   UNL     1      46.386   2.565  16.732  0.00  0.00    +0.000 HD
ENDBRANCH  19  22
ENDBRANCH  17  18
ENDBRANCH   4  17
TORSDOF 6
ENDMDL
MODEL 3
REMARK VINA RESULT:    -7.064      4.560      8.177
REMARK INTER + INTRA:         -10.295
REMARK INTER:                  -9.676
REMARK INTRA:                  -0.619
REMARK UNBOUND:                -0.960
REMARK  Name = 
REMARK  6 active torsions:
REMARK  status: ('A' for Active; 'I' for Inactive)
REMARK    1  A    between atoms: N_1  and  C_2
REMARK    2  A    between atoms: C_5  and  O_6
REMARK    3  A    between atoms: O_6  and  C_7
REMARK    4  A    between atoms: C_10  and  C_11
REMARK    5  A    between atoms: C_11  and  N_12
REMARK    6  A    between atoms: C_13  and  C_15
REMARK                            x       y       z     vdW  Elec       q    Type
REMARK                         _______ _______ _______ _____ _____    ______ ____
ROOT
ATOM      1  C   UNL     1      49.864   6.477  16.176  0.00  0.00    +0.000 A 
ATOM      2  C   UNL     1      48.531   6.262  15.825  0.00  0.00    +0.000 A 
ATOM      3  C   UNL     1      48.058   6.677  14.578  0.00  0.00    +0.000 A 
ATOM      4  C   UNL     1      48.899   7.359  13.690  0.00  0.00    +0.000 A 
ATOM      5  C   UNL     1      50.198   7.684  14.104  0.00  0.00    +0.000 A 
ATOM      6  C   UNL     1      50.680   7.238  15.337  0.00  0.00    +0.000 A 
ENDROOT
BRANCH   1   7
ATOM      7  O   UNL     1      50.439   6.034  17.344  0.00  0.00    +0.000 OA
BRANCH   7  11
ATOM      8  C   UNL     1      51.325   1.995  17.647  0.00  0.00    +0.000 A 
ATOM      9  C   UNL     1      52.315   2.914  17.979  0.00  0.00    +0.000 A 
ATOM     10  C   UNL     1      52.051   4.284  17.912  0.00  0.00    +0.000 A 
ATOM     11  C   UNL     1      50.799   4.710  17.481  0.00  0.00    +0.000 A 
ATOM     12  N   UNL     1      49.794   3.845  17.232  0.00  0.00    +0.000 NA
ATOM     13  C   UNL     1      50.071   2.523  17.353  0.00  0.00    +0.000 A 
BRANCH   8  14
ATOM     14  N   UNL     1      51.530   0.626  17.853  0.00  0.00    +0.000 N 
ATOM     15  H   UNL     1      50.816   0.036  17.436  0.00  0.00    +0.000 HD
ATOM     16  H   UNL     1      51.720   0.373  18.817  0.00  0.00    +0.000 HD
ENDBRANCH   8  14
ENDBRANCH   7  11
ENDBRANCH   1   7
BRANCH   4  17
ATOM     17  C   UNL     1      48.396   7.795  12.339  0.00  0.00    +0.000 C 
BRANCH  17  18
ATOM     18  N   UNL     1      47.631   6.748  11.727  0.00  0.00    +0.000 N 
ATOM     19  C   UNL     1      46.295   6.894  11.448  0.00  0.00    +0.000 C 
ATOM     20  O   UNL     1      45.695   7.944  11.659  0.00  0.00    +0.000 OA
ATOM     21  H   UNL     1      48.030   5.816  11.767  0.00  0.00    +0.000 HD
BRANCH  19  22
ATOM     22  C   UNL     1      45.647   5.741  10.815  0.00  0.00    +0.000 A 
ATOM     23  C   UNL     1      45.792   5.530   9.451  0.00  0.00    +0.000 A 
ATOM     24  S   UNL     1      45.059   4.090   8.901  0.00  0.00    +0.000 S 
ATOM     25  C   UNL     1      44.474   3.727  10.457  0.00  0.00    +0.000 A 
ATOM     26  N   UNL     1      43.743   2.604  10.687  0.00  0.00    +0.000 NA
ATOM     27  C   UNL     1      43.337   2.470  11.906  0.00  0.00    +0.000 A 
ATOM     28  N   UNL     1      43.593   3.362  12.915  0.00  0.00    +0.000 N 
ATOM     29  C   UNL     1      44.340   4.500  12.734  0.00  0.00    +0.000 A 
ATOM     30  O   UNL     1      44.565   5.267  13.665  0.00  0.00    +0.000 OA
ATOM     31  C   UNL     1      44.830   4.693  11.381  0.00  0.00    +0.000 A 
ATOM     32  H   UNL     1      43.245   3.201  13.850  0.00  0.00    +0.000 HD
ENDBRANCH  19  22
ENDBRANCH  17  18
ENDBRANCH   4  17
TORSDOF 6
ENDMDL
MODEL 4
REMARK VINA RESULT:    -6.935      4.708      5.587
REMARK INTER + INTRA:         -10.125
REMARK INTER:                  -9.159
REMARK INTRA:                  -0.966
REMARK UNBOUND:                -0.960
REMARK  Name = 
REMARK  6 active torsions:
REMARK  status: ('A' for Active; 'I' for Inactive)
REMARK    1  A    between atoms: N_1  and  C_2
REMARK    2  A    between atoms: C_5  and  O_6
REMARK    3  A    between atoms: O_6  and  C_7
REMARK    4  A    between atoms: C_10  and  C_11
REMARK    5  A    between atoms: C_11  and  N_12
REMARK    6  A    between atoms: C_13  and  C_15
REMARK                            x       y       z     vdW  Elec       q    Type
REMARK                         _______ _______ _______ _____ _____    ______ ____
ROOT
ATOM      1  C   UNL     1      45.543   5.498  11.272  0.00  0.00    +0.000 A 
ATOM      2  C   UNL     1      46.117   4.837  12.359  0.00  0.00    +0.000 A 
ATOM      3  C   UNL     1      46.888   5.546  13.283  0.00  0.00    +0.000 A 
ATOM      4  C   UNL     1      47.138   6.912  13.101  0.00  0.00    +0.000 A 
ATOM      5  C   UNL     1      46.665   7.538  11.939  0.00  0.00    +0.000 A 
ATOM      6  C   UNL     1      45.865   6.835  11.034  0.00  0.00    +0.000 A 
ENDROOT
BRANCH   1   7
ATOM      7  O   UNL     1      44.706   4.903  10.357  0.00  0.00    +0.000 OA
BRANCH   7  11
ATOM      8  C   UNL     1      46.328   2.343   7.528  0.00  0.00    +0.000 A 
ATOM      9  C   UNL     1      45.629   1.789   8.594  0.00  0.00    +0.000 A 
ATOM     10  C   UNL     1      45.048   2.616   9.558  0.00  0.00    +0.000 A 
ATOM     11  C   UNL     1      45.205   3.994   9.448  0.00  0.00    +0.000 A 
ATOM     12  N   UNL     1      45.806   4.565   8.383  0.00  0.00    +0.000 NA
ATOM     13  C   UNL     1      46.317   3.733   7.442  0.00  0.00    +0.000 A 
BRANCH   8  14
ATOM     14  N   UNL     1      46.784   1.534   6.481  0.00  0.00    +0.000 N 
ATOM     15  H   UNL     1      47.794   1.533   6.372  0.00  0.00    +0.000 HD
ATOM     16  H   UNL     1      46.304   1.682   5.599  0.00  0.00    +0.000 HD
ENDBRANCH   8  14
ENDBRANCH   7  11
ENDBRANCH   1   7
BRANCH   4  17
ATOM     17  C   UNL     1      47.957   7.683  14.103  0.00  0.00    +0.000 C 
BRANCH  17  18
ATOM     18  N   UNL     1      47.897   7.052  15.389  0.00  0.00    +0.000 N 
ATOM     19  C   UNL     1      49.015   6.536  15.996  0.00  0.00    +0.000 C 
ATOM     20  O   UNL     1      50.132   6.631  15.496  0.00  0.00    +0.000 OA
ATOM     21  H   UNL     1      46.980   6.751  15.703  0.00  0.00    +0.000 HD
BRANCH  19  22
ATOM     22  C   UNL     1      48.801   5.928  17.314  0.00  0.00    +0.000 A 
ATOM     23  C   UNL     1      49.063   4.578  17.502  0.00  0.00    +0.000 A 
ATOM     24  S   UNL     1      48.858   4.062  19.115  0.00  0.00    +0.000 S 
ATOM     25  C   UNL     1      48.358   5.612  19.608  0.00  0.00    +0.000 A 
ATOM     26  N   UNL     1      48.021   5.863  20.902  0.00  0.00    +0.000 NA
ATOM     27  C   UNL     1      47.631   7.073  21.127  0.00  0.00    +0.000 A 
ATOM     28  N   UNL     1      47.543   8.055  20.175  0.00  0.00    +0.000 N 
ATOM     29  C   UNL     1      47.888   7.853  18.861  0.00  0.00    +0.000 A 
ATOM     30  O   UNL     1      47.815   8.760  18.038  0.00  0.00    +0.000 OA
ATOM     31  C   UNL     1      48.344   6.509  18.555  0.00  0.00    +0.000 A 
ATOM     32  H   UNL     1      47.227   8.983  20.416  0.00  0.00    +0.000 HD
ENDBRANCH  19  22
ENDBRANCH  17  18
ENDBRANCH   4  17
TORSDOF 6
ENDMDL
MODEL 5
REMARK VINA RESULT:    -6.711      5.324      8.424
REMARK INTER + INTRA:          -9.828
REMARK INTER:                  -8.797
REMARK INTRA:                  -1.031
REMARK UNBOUND:                -0.960
REMARK  Name = 
REMARK  6 active torsions:
REMARK  status: ('A' for Active; 'I' for Inactive)
REMARK    1  A    between atoms: N_1  and  C_2
REMARK    2  A    between atoms: C_5  and  O_6
REMARK    3  A    between atoms: O_6  and  C_7
REMARK    4  A    between atoms: C_10  and  C_11
REMARK    5  A    between atoms: C_11  and  N_12
REMARK    6  A    between atoms: C_13  and  C_15
REMARK                            x       y       z     vdW  Elec       q    Type
REMARK                         _______ _______ _______ _____ _____    ______ ____
ROOT
ATOM      1  C   UNL     1      50.440   5.283  17.940  0.00  0.00    +0.000 A 
ATOM      2  C   UNL     1      49.090   5.607  17.807  0.00  0.00    +0.000 A 
ATOM      3  C   UNL     1      48.679   6.518  16.831  0.00  0.00    +0.000 A 
ATOM      4  C   UNL     1      49.621   7.155  16.012  0.00  0.00    +0.000 A 
ATOM      5  C   UNL     1      50.984   6.920  16.240  0.00  0.00    +0.000 A 
ATOM      6  C   UNL     1      51.390   5.983  17.193  0.00  0.00    +0.000 A 
ENDROOT
BRANCH   1   7
ATOM      7  O   UNL     1      50.929   4.341  18.814  0.00  0.00    +0.000 OA
BRANCH   7  11
ATOM      8  C   UNL     1      52.894   0.926  17.521  0.00  0.00    +0.000 A 
ATOM      9  C   UNL     1      51.586   1.134  17.100  0.00  0.00    +0.000 A 
ATOM     10  C   UNL     1      50.895   2.282  17.494  0.00  0.00    +0.000 A 
ATOM     11  C   UNL     1      51.525   3.193  18.335  0.00  0.00    +0.000 A 
ATOM     12  N   UNL     1      52.819   3.062  18.694  0.00  0.00    +0.000 NA
ATOM     13  C   UNL     1      53.474   1.959  18.254  0.00  0.00    +0.000 A 
BRANCH   8  14
ATOM     14  N   UNL     1      53.643  -0.141  17.014  0.00  0.00    +0.000 N 
ATOM     15  H   UNL     1      53.079  -0.893  16.628  0.00  0.00    +0.000 HD
ATOM     16  H   UNL     1      54.360  -0.486  17.644  0.00  0.00    +0.000 HD
ENDBRANCH   8  14
ENDBRANCH   7  11
ENDBRANCH   1   7
BRANCH   4  17
ATOM     17  C   UNL     1      49.182   8.127  14.949  0.00  0.00    +0.000 C 
BRANCH  17  18
ATOM     18  N   UNL     1      47.970   7.676  14.328  0.00  0.00    +0.000 N 
ATOM     19  C   UNL     1      47.980   6.822  13.254  0.00  0.00    +0.000 C 
ATOM     20  O   UNL     1      49.021   6.358  12.798  0.00  0.00    +0.000 OA
ATOM     21  H   UNL     1      47.135   8.219  14.522  0.00  0.00    +0.000 HD
BRANCH  19  22
ATOM     22  C   UNL     1      46.664   6.442  12.730  0.00  0.00    +0.000 A 
ATOM     23  C   UNL     1      45.834   7.410  12.181  0.00  0.00    +0.000 A 
ATOM     24  S   UNL     1      44.389   6.779  11.529  0.00  0.00    +0.000 S 
ATOM     25  C   UNL     1      44.796   5.197  12.008  0.00  0.00    +0.000 A 
ATOM     26  N   UNL     1      43.967   4.151  11.751  0.00  0.00    +0.000 NA
ATOM     27  C   UNL     1      44.386   3.014  12.198  0.00  0.00    +0.000 A 
ATOM     28  N   UNL     1      45.560   2.830  12.883  0.00  0.00    +0.000 N 
ATOM     29  C   UNL     1      46.436   3.853  13.150  0.00  0.00    +0.000 A 
ATOM     30  O   UNL     1      47.487   3.649  13.749  0.00  0.00    +0.000 OA
ATOM     31  C   UNL     1      46.016   5.153  12.659  0.00  0.00    +0.000 A 
ATOM     32  H   UNL     1      45.831   1.913  13.209  0.00  0.00    +0.000 HD
ENDBRANCH  19  22
ENDBRANCH  17  18
ENDBRANCH   4  17
TORSDOF 6
ENDMDL
MODEL 6
REMARK VINA RESULT:    -6.697      4.355      8.734
REMARK INTER + INTRA:          -9.810
REMARK INTER:                  -8.767
REMARK INTRA:                  -1.043
REMARK UNBOUND:                -0.960
REMARK  Name = 
REMARK  6 active torsions:
REMARK  status: ('A' for Active; 'I' for Inactive)
REMARK    1  A    between atoms: N_1  and  C_2
REMARK    2  A    between atoms: C_5  and  O_6
REMARK    3  A    between atoms: O_6  and  C_7
REMARK    4  A    between atoms: C_10  and  C_11
REMARK    5  A    between atoms: C_11  and  N_12
REMARK    6  A    between atoms: C_13  and  C_15
REMARK                            x       y       z     vdW  Elec       q    Type
REMARK                         _______ _______ _______ _____ _____    ______ ____
ROOT
ATOM      1  C   UNL     1      49.410   8.024  15.749  0.00  0.00    +0.000 A 
ATOM      2  C   UNL     1      48.241   8.734  15.476  0.00  0.00    +0.000 A 
ATOM      3  C   UNL     1      47.665   8.676  14.204  0.00  0.00    +0.000 A 
ATOM      4  C   UNL     1      48.282   7.951  13.177  0.00  0.00    +0.000 A 
ATOM      5  C   UNL     1      49.523   7.348  13.426  0.00  0.00    +0.000 A 
ATOM      6  C   UNL     1      50.079   7.378  14.707  0.00  0.00    +0.000 A 
ENDROOT
BRANCH   1   7
ATOM      7  O   UNL     1      50.004   7.955  16.987  0.00  0.00    +0.000 OA
BRANCH   7  11
ATOM      8  C   UNL     1      48.988   5.032  19.747  0.00  0.00    +0.000 A 
ATOM      9  C   UNL     1      48.042   6.001  19.435  0.00  0.00    +0.000 A 
ATOM     10  C   UNL     1      48.335   6.991  18.494  0.00  0.00    +0.000 A 
ATOM     11  C   UNL     1      49.594   7.007  17.901  0.00  0.00    +0.000 A 
ATOM     12  N   UNL     1      50.503   6.034  18.122  0.00  0.00    +0.000 NA
ATOM     13  C   UNL     1      50.166   5.063  19.005  0.00  0.00    +0.000 A 
BRANCH   8  14
ATOM     14  N   UNL     1      48.654   3.954  20.573  0.00  0.00    +0.000 N 
ATOM     15  H   UNL     1      49.452   3.519  21.027  0.00  0.00    +0.000 HD
ATOM     16  H   UNL     1      48.042   3.270  20.139  0.00  0.00    +0.000 HD
ENDBRANCH   8  14
ENDBRANCH   7  11
ENDBRANCH   1   7
BRANCH   4  17
ATOM     17  C   UNL     1      47.658   7.874  11.809  0.00  0.00    +0.000 C 
BRANCH  17  18
ATOM     18  N   UNL     1      46.968   6.628  11.642  0.00  0.00    +0.000 N 
ATOM     19  C   UNL     1      45.613   6.519  11.829  0.00  0.00    +0.000 C 
ATOM     20  O   UNL     1      44.910   7.489  12.099  0.00  0.00    +0.000 OA
ATOM     21  H   UNL     1      47.539   5.790  11.660  0.00  0.00    +0.000 HD
BRANCH  19  22
ATOM     22  C   UNL     1      45.046   5.183  11.616  0.00  0.00    +0.000 A 
ATOM     23  C   UNL     1      44.413   4.526  12.662  0.00  0.00    +0.000 A 
ATOM     24  S   UNL     1      43.725   3.031  12.212  0.00  0.00    +0.000 S 
ATOM     25  C   UNL     1      44.296   3.183  10.616  0.00  0.00    +0.000 A 
ATOM     26  N   UNL     1      44.050   2.220   9.689  0.00  0.00    +0.000 NA
ATOM     27  C   UNL     1      44.570   2.450   8.529  0.00  0.00    +0.000 A 
ATOM     28  N   UNL     1      45.316   3.556   8.214  0.00  0.00    +0.000 N 
ATOM     29  C   UNL     1      45.576   4.561   9.113  0.00  0.00    +0.000 A 
ATOM     30  O   UNL     1      46.233   5.547   8.792  0.00  0.00    +0.000 OA
ATOM     31  C   UNL     1      45.005   4.356  10.432  0.00  0.00    +0.000 A 
ATOM     32  H   UNL     1      45.697   3.677   7.287  0.00  0.00    +0.000 HD
ENDBRANCH  19  22
ENDBRANCH  17  18
ENDBRANCH   4  17
TORSDOF 6
ENDMDL
MODEL 7
REMARK VINA RESULT:    -6.634      5.302      8.638
REMARK INTER + INTRA:          -9.727
REMARK INTER:                  -8.687
REMARK INTRA:                  -1.040
REMARK UNBOUND:                -0.960
REMARK  Name = 
REMARK  6 active torsions:
REMARK  status: ('A' for Active; 'I' for Inactive)
REMARK    1  A    between atoms: N_1  and  C_2
REMARK    2  A    between atoms: C_5  and  O_6
REMARK    3  A    between atoms: O_6  and  C_7
REMARK    4  A    between atoms: C_10  and  C_11
REMARK    5  A    between atoms: C_11  and  N_12
REMARK    6  A    between atoms: C_13  and  C_15
REMARK                            x       y       z     vdW  Elec       q    Type
REMARK                         _______ _______ _______ _____ _____    ______ ____
ROOT
ATOM      1  C   UNL     1      50.660   5.579  17.735  0.00  0.00    +0.000 A 
ATOM      2  C   UNL     1      49.271   5.696  17.816  0.00  0.00    +0.000 A 
ATOM      3  C   UNL     1      48.570   6.410  16.842  0.00  0.00    +0.000 A 
ATOM      4  C   UNL     1      49.254   7.060  15.806  0.00  0.00    +0.000 A 
ATOM      5  C   UNL     1      50.655   7.045  15.807  0.00  0.00    +0.000 A 
ATOM      6  C   UNL     1      51.353   6.301  16.762  0.00  0.00    +0.000 A 
ENDROOT
BRANCH   1   7
ATOM      7  O   UNL     1      51.426   4.831  18.598  0.00  0.00    +0.000 OA
BRANCH   7  11
ATOM      8  C   UNL     1      52.750   1.004  17.710  0.00  0.00    +0.000 A 
ATOM      9  C   UNL     1      51.479   1.376  17.287  0.00  0.00    +0.000 A 
ATOM     10  C   UNL     1      51.003   2.664  17.547  0.00  0.00    +0.000 A 
ATOM     11  C   UNL     1      51.806   3.551  18.257  0.00  0.00    +0.000 A 
ATOM     12  N   UNL     1      53.073   3.247  18.608  0.00  0.00    +0.000 NA
ATOM     13  C   UNL     1      53.519   2.005  18.299  0.00  0.00    +0.000 A 
BRANCH   8  14
ATOM     14  N   UNL     1      53.293  -0.228  17.328  0.00  0.00    +0.000 N 
ATOM     15  H   UNL     1      53.748  -0.213  16.419  0.00  0.00    +0.000 HD
ATOM     16  H   UNL     1      52.656  -1.012  17.423  0.00  0.00    +0.000 HD
ENDBRANCH   8  14
ENDBRANCH   7  11
ENDBRANCH   1   7
BRANCH   4  17
ATOM     17  C   UNL     1      48.500   7.819  14.747  0.00  0.00    +0.000 C 
BRANCH  17  18
ATOM     18  N   UNL     1      47.415   7.029  14.241  0.00  0.00    +0.000 N 
ATOM     19  C   UNL     1      47.605   6.066  13.282  0.00  0.00    +0.000 C 
ATOM     20  O   UNL     1      48.718   5.794  12.841  0.00  0.00    +0.000 OA
ATOM     21  H   UNL     1      46.480   7.390  14.402  0.00  0.00    +0.000 HD
BRANCH  19  22
ATOM     22  C   UNL     1      46.404   5.334  12.867  0.00  0.00    +0.000 A 
ATOM     23  C   UNL     1      46.335   3.960  13.051  0.00  0.00    +0.000 A 
ATOM     24  S   UNL     1      44.830   3.287  12.609  0.00  0.00    +0.000 S 
ATOM     25  C   UNL     1      44.238   4.800  12.103  0.00  0.00    +0.000 A 
ATOM     26  N   UNL     1      42.981   4.929  11.601  0.00  0.00    +0.000 NA
ATOM     27  C   UNL     1      42.675   6.127  11.227  0.00  0.00    +0.000 A 
ATOM     28  N   UNL     1      43.515   7.207  11.307  0.00  0.00    +0.000 N 
ATOM     29  C   UNL     1      44.785   7.128  11.821  0.00  0.00    +0.000 A 
ATOM     30  O   UNL     1      45.504   8.120  11.894  0.00  0.00    +0.000 OA
ATOM     31  C   UNL     1      45.177   5.803  12.266  0.00  0.00    +0.000 A 
ATOM     32  H   UNL     1      43.215   8.120  10.995  0.00  0.00    +0.000 HD
ENDBRANCH  19  22
ENDBRANCH  17  18
ENDBRANCH   4  17
TORSDOF 6
ENDMDL
MODEL 8
REMARK VINA RESULT:    -6.537      4.812      8.748
REMARK INTER + INTRA:          -9.600
REMARK INTER:                  -8.885
REMARK INTRA:                  -0.715
REMARK UNBOUND:                -0.960
REMARK  Name = 
REMARK  6 active torsions:
REMARK  status: ('A' for Active; 'I' for Inactive)
REMARK    1  A    between atoms: N_1  and  C_2
REMARK    2  A    between atoms: C_5  and  O_6
REMARK    3  A    between atoms: O_6  and  C_7
REMARK    4  A    between atoms: C_10  and  C_11
REMARK    5  A    between atoms: C_11  and  N_12
REMARK    6  A    between atoms: C_13  and  C_15
REMARK                            x       y       z     vdW  Elec       q    Type
REMARK                         _______ _______ _______ _____ _____    ______ ____
ROOT
ATOM      1  C   UNL     1      51.231   4.628  17.946  0.00  0.00    +0.000 A 
ATOM      2  C   UNL     1      50.941   3.281  17.723  0.00  0.00    +0.000 A 
ATOM      3  C   UNL     1      49.662   2.897  17.315  0.00  0.00    +0.000 A 
ATOM      4  C   UNL     1      48.643   3.849  17.177  0.00  0.00    +0.000 A 
ATOM      5  C   UNL     1      48.910   5.180  17.527  0.00  0.00    +0.000 A 
ATOM      6  C   UNL     1      50.199   5.567  17.902  0.00  0.00    +0.000 A 
ENDROOT
BRANCH   1   7
ATOM      7  O   UNL     1      52.477   5.109  18.270  0.00  0.00    +0.000 OA
BRANCH   7  11
ATOM      8  C   UNL     1      55.018   6.382  15.250  0.00  0.00    +0.000 A 
ATOM      9  C   UNL     1      55.394   5.277  16.006  0.00  0.00    +0.000 A 
ATOM     10  C   UNL     1      54.557   4.802  17.019  0.00  0.00    +0.000 A 
ATOM     11  C   UNL     1      53.362   5.468  17.275  0.00  0.00    +0.000 A 
ATOM     12  N   UNL     1      52.932   6.490  16.507  0.00  0.00    +0.000 NA
ATOM     13  C   UNL     1      53.748   6.895  15.502  0.00  0.00    +0.000 A 
BRANCH   8  14
ATOM     14  N   UNL     1      55.775   6.773  14.141  0.00  0.00    +0.000 N 
ATOM     15  H   UNL     1      55.592   6.227  13.304  0.00  0.00    +0.000 HD
ATOM     16  H   UNL     1      56.769   6.867  14.326  0.00  0.00    +0.000 HD
ENDBRANCH   8  14
ENDBRANCH   7  11
ENDBRANCH   1   7
BRANCH   4  17
ATOM     17  C   UNL     1      47.267   3.440  16.723  0.00  0.00    +0.000 C 
BRANCH  17  18
ATOM     18  N   UNL     1      46.753   4.382  15.773  0.00  0.00    +0.000 N 
ATOM     19  C   UNL     1      46.783   4.140  14.422  0.00  0.00    +0.000 C 
ATOM     20  O   UNL     1      47.205   3.085  13.957  0.00  0.00    +0.000 OA
ATOM     21  H   UNL     1      46.628   5.334  16.102  0.00  0.00    +0.000 HD
BRANCH  19  22
ATOM     22  C   UNL     1      46.214   5.192  13.573  0.00  0.00    +0.000 A 
ATOM     23  C   UNL     1      46.949   6.339  13.309  0.00  0.00    +0.000 A 
ATOM     24  S   UNL     1      46.179   7.408  12.224  0.00  0.00    +0.000 S 
ATOM     25  C   UNL     1      44.811   6.401  12.114  0.00  0.00    +0.000 A 
ATOM     26  N   UNL     1      43.752   6.741  11.332  0.00  0.00    +0.000 NA
ATOM     27  C   UNL     1      42.771   5.901  11.367  0.00  0.00    +0.000 A 
ATOM     28  N   UNL     1      42.752   4.754  12.117  0.00  0.00    +0.000 N 
ATOM     29  C   UNL     1      43.805   4.363  12.908  0.00  0.00    +0.000 A 
ATOM     30  O   UNL     1      43.762   3.320  13.553  0.00  0.00    +0.000 OA
ATOM     31  C   UNL     1      44.940   5.268  12.896  0.00  0.00    +0.000 A 
ATOM     32  H   UNL     1      41.952   4.139  12.103  0.00  0.00    +0.000 HD
ENDBRANCH  19  22
ENDBRANCH  17  18
ENDBRANCH   4  17
TORSDOF 6
ENDMDL
MODEL 9
REMARK VINA RESULT:    -6.537      4.295      5.685
REMARK INTER + INTRA:          -9.599
REMARK INTER:                  -8.601
REMARK INTRA:                  -0.999
REMARK UNBOUND:                -0.960
REMARK  Name = 
REMARK  6 active torsions:
REMARK  status: ('A' for Active; 'I' for Inactive)
REMARK    1  A    between atoms: N_1  and  C_2
REMARK    2  A    between atoms: C_5  and  O_6
REMARK    3  A    between atoms: O_6  and  C_7
REMARK    4  A    between atoms: C_10  and  C_11
REMARK    5  A    between atoms: C_11  and  N_12
REMARK    6  A    between atoms: C_13  and  C_15
REMARK                            x       y       z     vdW  Elec       q    Type
REMARK                         _______ _______ _______ _____ _____    ______ ____
ROOT
ATOM      1  C   UNL     1      45.747   7.043  11.913  0.00  0.00    +0.000 A 
ATOM      2  C   UNL     1      47.006   6.441  11.906  0.00  0.00    +0.000 A 
ATOM      3  C   UNL     1      48.046   6.981  12.666  0.00  0.00    +0.000 A 
ATOM      4  C   UNL     1      47.854   8.159  13.399  0.00  0.00    +0.000 A 
ATOM      5  C   UNL     1      46.625   8.826  13.297  0.00  0.00    +0.000 A 
ATOM      6  C   UNL     1      45.575   8.266  12.564  0.00  0.00    +0.000 A 
ENDROOT
BRANCH   1   7
ATOM      7  O   UNL     1      44.644   6.540  11.263  0.00  0.00    +0.000 OA
BRANCH   7  11
ATOM      8  C   UNL     1      44.698   2.788   9.500  0.00  0.00    +0.000 A 
ATOM      9  C   UNL     1      45.303   3.842   8.825  0.00  0.00    +0.000 A 
ATOM     10  C   UNL     1      45.327   5.118   9.394  0.00  0.00    +0.000 A 
ATOM     11  C   UNL     1      44.712   5.320  10.626  0.00  0.00    +0.000 A 
ATOM     12  N   UNL     1      44.190   4.302  11.341  0.00  0.00    +0.000 NA
ATOM     13  C   UNL     1      44.227   3.068  10.780  0.00  0.00    +0.000 A 
BRANCH   8  14
ATOM     14  N   UNL     1      44.799   1.481   9.011  0.00  0.00    +0.000 N 
ATOM     15  H   UNL     1      44.064   1.228   8.357  0.00  0.00    +0.000 HD
ATOM     16  H   UNL     1      44.931   0.775   9.729  0.00  0.00    +0.000 HD
ENDBRANCH   8  14
ENDBRANCH   7  11
ENDBRANCH   1   7
BRANCH   4  17
ATOM     17  C   UNL     1      48.968   8.737  14.231  0.00  0.00    +0.000 C 
BRANCH  17  18
ATOM     18  N   UNL     1      49.153   7.965  15.425  0.00  0.00    +0.000 N 
ATOM     19  C   UNL     1      48.584   8.330  16.620  0.00  0.00    +0.000 C 
ATOM     20  O   UNL     1      47.846   9.306  16.720  0.00  0.00    +0.000 OA
ATOM     21  H   UNL     1      49.931   7.314  15.427  0.00  0.00    +0.000 HD
BRANCH  19  22
ATOM     22  C   UNL     1      48.855   7.440  17.753  0.00  0.00    +0.000 A 
ATOM     23  C   UNL     1      49.317   7.968  18.951  0.00  0.00    +0.000 A 
ATOM     24  S   UNL     1      49.481   6.807  20.191  0.00  0.00    +0.000 S 
ATOM     25  C   UNL     1      48.994   5.548  19.153  0.00  0.00    +0.000 A 
ATOM     26  N   UNL     1      48.919   4.264  19.596  0.00  0.00    +0.000 NA
ATOM     27  C   UNL     1      48.567   3.409  18.695  0.00  0.00    +0.000 A 
ATOM     28  N   UNL     1      48.287   3.720  17.390  0.00  0.00    +0.000 N 
ATOM     29  C   UNL     1      48.333   5.004  16.904  0.00  0.00    +0.000 A 
ATOM     30  O   UNL     1      48.057   5.249  15.733  0.00  0.00    +0.000 OA
ATOM     31  C   UNL     1      48.714   6.008  17.879  0.00  0.00    +0.000 A 
ATOM     32  H   UNL     1      48.018   3.003  16.732  0.00  0.00    +0.000 HD
ENDBRANCH  19  22
ENDBRANCH  17  18
ENDBRANCH   4  17
TORSDOF 6
ENDMDL
