MODEL 1
REMARK VINA RESULT:    -7.152      0.000      0.000
REMARK INTER + INTRA:         -11.375
REMARK INTER:                 -10.079
REMARK INTRA:                  -1.296
REMARK UNBOUND:                -1.296
REMARK  Name = 
REMARK  9 active torsions:
REMARK  status: ('A' for Active; 'I' for Inactive)
REMARK    1  A    between atoms: C_1  and  O_2
REMARK    2  A    between atoms: O_2  and  C_3
REMARK    3  A    between atoms: C_10  and  C_11
REMARK    4  A    between atoms: N_13  and  C_14
REMARK    5  A    between atoms: C_14  and  C_15
REMARK    6  A    between atoms: C_18  and  N_19
REMARK    7  A    between atoms: N_19  and  C_20
REMARK    8  A    between atoms: C_20  and  C_21
REMARK    9  A    between atoms: N_24  and  C_25
REMARK                            x       y       z     vdW  Elec       q    Type
REMARK                         _______ _______ _______ _____ _____    ______ ____
ROOT
ATOM      1  C   UNL     1      48.950   7.301  13.627  0.00  0.00    +0.000 C 
ENDROOT
BRANCH   1   2
ATOM      2  C   UNL     1      47.772   6.559  13.046  0.00  0.00    +0.000 A 
ATOM      3  C   UNL     1      47.253   6.927  11.805  0.00  0.00    +0.000 A 
ATOM      4  C   UNL     1      46.181   6.222  11.244  0.00  0.00    +0.000 A 
ATOM      5  C   UNL     1      45.556   5.157  11.912  0.00  0.00    +0.000 A 
ATOM      6  C   UNL     1      46.065   4.815  13.171  0.00  0.00    +0.000 A 
ATOM      7  C   UNL     1      47.155   5.507  13.734  0.00  0.00    +0.000 A 
BRANCH   5   8
ATOM      8  N   UNL     1      44.536   4.363  11.337  0.00  0.00    +0.000 N 
ATOM      9  H   UNL     1      43.886   4.921  10.786  0.00  0.00    +0.000 HD
BRANCH   8  10
ATOM     10  C   UNL     1      44.946   3.098  10.740  0.00  0.00    +0.000 C 
BRANCH  10  11
ATOM     11  C   UNL     1      44.328   2.783   9.367  0.00  0.00    +0.000 C 
ATOM     12  C   UNL     1      44.763   1.459   8.723  0.00  0.00    +0.000 C 
ATOM     13  C   UNL     1      46.201   1.472   8.187  0.00  0.00    +0.000 C 
ATOM     14  N   UNL     1      46.461   2.626   7.312  0.00  0.00    +0.000 NA
ATOM     15  C   UNL     1      47.845   2.608   6.834  0.00  0.00    +0.000 C 
ATOM     16  C   UNL     1      46.164   3.892   7.985  0.00  0.00    +0.000 C 
ATOM     17  C   UNL     1      44.690   3.934   8.403  0.00  0.00    +0.000 C 
ENDBRANCH  10  11
ENDBRANCH   8  10
ENDBRANCH   5   8
ENDBRANCH   1   2
BRANCH   1  20
ATOM     18  C   UNL     1      50.171   7.210  15.764  0.00  0.00    +0.000 C 
ATOM     19  O   UNL     1      51.248   7.387  15.199  0.00  0.00    +0.000 OA
ATOM     20  N   UNL     1      49.000   7.151  15.059  0.00  0.00    +0.000 N 
ATOM     21  H   UNL     1      48.134   6.946  15.533  0.00  0.00    +0.000 HD
BRANCH  18  29
ATOM     22  C   UNL     1      48.880   4.756  17.804  0.00  0.00    +0.000 A 
ATOM     23  N   UNL     1      48.457   3.972  18.813  0.00  0.00    +0.000 NA
ATOM     24  C   UNL     1      48.663   4.395  20.065  0.00  0.00    +0.000 A 
ATOM     25  N   UNL     1      49.253   5.529  20.444  0.00  0.00    +0.000 NA
ATOM     26  C   UNL     1      49.661   6.277  19.406  0.00  0.00    +0.000 A 
ATOM     27  S   UNL     1      50.435   7.759  19.698  0.00  0.00    +0.000 S 
ATOM     28  C   UNL     1      50.609   8.055  18.033  0.00  0.00    +0.000 A 
ATOM     29  C   UNL     1      50.090   7.048  17.226  0.00  0.00    +0.000 A 
ATOM     30  C   UNL     1      49.527   5.981  18.052  0.00  0.00    +0.000 A 
BRANCH  22  32
ATOM     31  C   UNL     1      48.272   2.949  16.444  0.00  0.00    +0.000 C 
ATOM     32  O   UNL     1      48.710   4.304  16.514  0.00  0.00    +0.000 OA
ENDBRANCH  22  32
ENDBRANCH  18  29
ENDBRANCH   1  20
TORSDOF 7
ENDMDL
MODEL 2
REMARK VINA RESULT:    -6.758      4.550      9.560
REMARK INTER + INTRA:         -10.820
REMARK INTER:                  -9.778
REMARK INTRA:                  -1.041
REMARK UNBOUND:                -1.296
REMARK  Name = 
REMARK  9 active torsions:
REMARK  status: ('A' for Active; 'I' for Inactive)
REMARK    1  A    between atoms: C_1  and  O_2
REMARK    2  A    between atoms: O_2  and  C_3
REMARK    3  A    between atoms: C_10  and  C_11
REMARK    4  A    between atoms: N_13  and  C_14
REMARK    5  A    between atoms: C_14  and  C_15
REMARK    6  A    between atoms: C_18  and  N_19
REMARK    7  A    between atoms: N_19  and  C_20
REMARK    8  A    between atoms: C_20  and  C_21
REMARK    9  A    between atoms: N_24  and  C_25
REMARK                            x       y       z     vdW  Elec       q    Type
REMARK                         _______ _______ _______ _____ _____    ______ ____
ROOT
ATOM      1  C   UNL     1      47.183   3.367  16.757  0.00  0.00    +0.000 C 
ENDROOT
BRANCH   1   2
ATOM      2  C   UNL     1      48.650   3.451  17.097  0.00  0.00    +0.000 A 
ATOM      3  C   UNL     1      49.445   2.305  17.068  0.00  0.00    +0.000 A 
ATOM      4  C   UNL     1      50.815   2.381  17.350  0.00  0.00    +0.000 A 
ATOM      5  C   UNL     1      51.436   3.585  17.717  0.00  0.00    +0.000 A 
ATOM      6  C   UNL     1      50.623   4.724  17.773  0.00  0.00    +0.000 A 
ATOM      7  C   UNL     1      49.249   4.660  17.472  0.00  0.00    +0.000 A 
BRANCH   5   8
ATOM      8  N   UNL     1      52.831   3.717  17.915  0.00  0.00    +0.000 N 
ATOM      9  H   UNL     1      53.082   4.652  18.231  0.00  0.00    +0.000 HD
BRANCH   8  10
ATOM     10  C   UNL     1      53.504   2.618  18.595  0.00  0.00    +0.000 C 
BRANCH  10  11
ATOM     11  C   UNL     1      54.512   1.830  17.741  0.00  0.00    +0.000 C 
ATOM     12  C   UNL     1      54.022   0.479  17.200  0.00  0.00    +0.000 C 
ATOM     13  C   UNL     1      53.914  -0.616  18.269  0.00  0.00    +0.000 C 
ATOM     14  N   UNL     1      55.149  -0.751  19.058  0.00  0.00    +0.000 NA
ATOM     15  C   UNL     1      54.999  -1.795  20.073  0.00  0.00    +0.000 C 
ATOM     16  C   UNL     1      55.535   0.518  19.677  0.00  0.00    +0.000 C 
ATOM     17  C   UNL     1      55.773   1.581  18.598  0.00  0.00    +0.000 C 
ENDBRANCH  10  11
ENDBRANCH   8  10
ENDBRANCH   5   8
ENDBRANCH   1   2
BRANCH   1  20
ATOM     18  C   UNL     1      46.853   4.219  14.470  0.00  0.00    +0.000 C 
ATOM     19  O   UNL     1      47.227   3.155  13.980  0.00  0.00    +0.000 OA
ATOM     20  N   UNL     1      46.808   4.400  15.825  0.00  0.00    +0.000 N 
ATOM     21  H   UNL     1      46.556   5.298  16.207  0.00  0.00    +0.000 HD
BRANCH  18  29
ATOM     22  C   UNL     1      44.021   4.880  12.629  0.00  0.00    +0.000 A 
ATOM     23  N   UNL     1      43.054   5.377  11.836  0.00  0.00    +0.000 NA
ATOM     24  C   UNL     1      43.265   6.565  11.258  0.00  0.00    +0.000 A 
ATOM     25  N   UNL     1      44.346   7.336  11.376  0.00  0.00    +0.000 NA
ATOM     26  C   UNL     1      45.282   6.803  12.179  0.00  0.00    +0.000 A 
ATOM     27  S   UNL     1      46.730   7.646  12.447  0.00  0.00    +0.000 S 
ATOM     28  C   UNL     1      47.317   6.417  13.465  0.00  0.00    +0.000 A 
ATOM     29  C   UNL     1      46.438   5.350  13.622  0.00  0.00    +0.000 A 
ATOM     30  C   UNL     1      45.217   5.587  12.854  0.00  0.00    +0.000 A 
BRANCH  22  32
ATOM     31  C   UNL     1      43.678   2.578  12.362  0.00  0.00    +0.000 C 
ATOM     32  O   UNL     1      43.789   3.679  13.261  0.00  0.00    +0.000 OA
ENDBRANCH  22  32
ENDBRANCH  18  29
ENDBRANCH   1  20
TORSDOF 7
ENDMDL
MODEL 3
REMARK VINA RESULT:    -6.721      1.567      2.373
REMARK INTER + INTRA:         -10.768
REMARK INTER:                  -9.541
REMARK INTRA:                  -1.227
REMARK UNBOUND:                -1.296
REMARK  Name = 
REMARK  9 active torsions:
REMARK  status: ('A' for Active; 'I' for Inactive)
REMARK    1  A    between atoms: C_1  and  O_2
REMARK    2  A    between atoms: O_2  and  C_3
REMARK    3  A    between atoms: C_10  and  C_11
REMARK    4  A    between atoms: N_13  and  C_14
REMARK    5  A    between atoms: C_14  and  C_15
REMARK    6  A    between atoms: C_18  and  N_19
REMARK    7  A    between atoms: N_19  and  C_20
REMARK    8  A    between atoms: C_20  and  C_21
REMARK    9  A    between atoms: N_24  and  C_25
REMARK                            x       y       z     vdW  Elec       q    Type
REMARK                         _______ _______ _______ _____ _____    ______ ____
ROOT
ATOM      1  C   UNL     1      47.850   7.876  14.038  0.00  0.00    +0.000 C 
ENDROOT
BRANCH   1   2
ATOM      2  C   UNL     1      47.011   6.969  13.172  0.00  0.00    +0.000 A 
ATOM      3  C   UNL     1      46.785   5.646  13.553  0.00  0.00    +0.000 A 
ATOM      4  C   UNL     1      45.980   4.808  12.771  0.00  0.00    +0.000 A 
ATOM      5  C   UNL     1      45.409   5.236  11.562  0.00  0.00    +0.000 A 
ATOM      6  C   UNL     1      45.668   6.556  11.173  0.00  0.00    +0.000 A 
ATOM      7  C   UNL     1      46.460   7.411  11.963  0.00  0.00    +0.000 A 
BRANCH   5   8
ATOM      8  N   UNL     1      44.516   4.449  10.797  0.00  0.00    +0.000 N 
ATOM      9  H   UNL     1      44.057   4.996  10.070  0.00  0.00    +0.000 HD
BRANCH   8  10
ATOM     10  C   UNL     1      44.982   3.129  10.395  0.00  0.00    +0.000 C 
BRANCH  10  11
ATOM     11  C   UNL     1      44.428   2.609   9.057  0.00  0.00    +0.000 C 
ATOM     12  C   UNL     1      44.979   1.258   8.581  0.00  0.00    +0.000 C 
ATOM     13  C   UNL     1      46.426   1.320   8.074  0.00  0.00    +0.000 C 
ATOM     14  N   UNL     1      46.623   2.382   7.075  0.00  0.00    +0.000 NA
ATOM     15  C   UNL     1      48.017   2.415   6.629  0.00  0.00    +0.000 C 
ATOM     16  C   UNL     1      46.214   3.690   7.589  0.00  0.00    +0.000 C 
ATOM     17  C   UNL     1      44.729   3.666   7.971  0.00  0.00    +0.000 C 
ENDBRANCH  10  11
ENDBRANCH   8  10
ENDBRANCH   5   8
ENDBRANCH   1   2
BRANCH   1  20
ATOM     18  C   UNL     1      49.309   6.939  15.788  0.00  0.00    +0.000 C 
ATOM     19  O   UNL     1      50.309   7.097  15.090  0.00  0.00    +0.000 OA
ATOM     20  N   UNL     1      48.066   7.294  15.338  0.00  0.00    +0.000 N 
ATOM     21  H   UNL     1      47.252   7.103  15.900  0.00  0.00    +0.000 HD
BRANCH  18  29
ATOM     22  C   UNL     1      48.152   7.937  18.871  0.00  0.00    +0.000 A 
ATOM     23  N   UNL     1      47.833   8.091  20.170  0.00  0.00    +0.000 NA
ATOM     24  C   UNL     1      48.245   7.156  21.033  0.00  0.00    +0.000 A 
ATOM     25  N   UNL     1      48.952   6.060  20.755  0.00  0.00    +0.000 NA
ATOM     26  C   UNL     1      49.244   5.946  19.448  0.00  0.00    +0.000 A 
ATOM     27  S   UNL     1      50.140   4.611  18.907  0.00  0.00    +0.000 S 
ATOM     28  C   UNL     1      50.090   5.162  17.300  0.00  0.00    +0.000 A 
ATOM     29  C   UNL     1      49.400   6.359  17.139  0.00  0.00    +0.000 A 
ATOM     30  C   UNL     1      48.890   6.824  18.427  0.00  0.00    +0.000 A 
BRANCH  22  32
ATOM     31  C   UNL     1      48.550  10.004  17.845  0.00  0.00    +0.000 C 
ATOM     32  O   UNL     1      47.691   8.875  17.974  0.00  0.00    +0.000 OA
ENDBRANCH  22  32
ENDBRANCH  18  29
ENDBRANCH   1  20
TORSDOF 7
ENDMDL
MODEL 4
REMARK VINA RESULT:    -6.408      2.771      3.808
REMARK INTER + INTRA:         -10.327
REMARK INTER:                  -9.338
REMARK INTRA:                  -0.989
REMARK UNBOUND:                -1.296
REMARK  Name = 
REMARK  9 active torsions:
REMARK  status: ('A' for Active; 'I' for Inactive)
REMARK    1  A    between atoms: C_1  and  O_2
REMARK    2  A    between atoms: O_2  and  C_3
REMARK    3  A    between atoms: C_10  and  C_11
REMARK    4  A    between atoms: N_13  and  C_14
REMARK    5  A    between atoms: C_14  and  C_15
REMARK    6  A    between atoms: C_18  and  N_19
REMARK    7  A    between atoms: N_19  and  C_20
REMARK    8  A    between atoms: C_20  and  C_21
REMARK    9  A    between atoms: N_24  and  C_25
REMARK                            x       y       z     vdW  Elec       q    Type
REMARK                         _______ _______ _______ _____ _____    ______ ____
ROOT
ATOM      1  C   UNL     1      50.090   7.281  16.321  0.00  0.00    +0.000 C 
ENDROOT
BRANCH   1   2
ATOM      2  C   UNL     1      49.158   6.882  15.204  0.00  0.00    +0.000 A 
ATOM      3  C   UNL     1      48.210   5.878  15.406  0.00  0.00    +0.000 A 
ATOM      4  C   UNL     1      47.319   5.525  14.384  0.00  0.00    +0.000 A 
ATOM      5  C   UNL     1      47.366   6.120  13.114  0.00  0.00    +0.000 A 
ATOM      6  C   UNL     1      48.341   7.105  12.912  0.00  0.00    +0.000 A 
ATOM      7  C   UNL     1      49.228   7.480  13.940  0.00  0.00    +0.000 A 
BRANCH   5   8
ATOM      8  N   UNL     1      46.423   5.857  12.091  0.00  0.00    +0.000 N 
ATOM      9  H   UNL     1      46.400   4.870  11.842  0.00  0.00    +0.000 HD
BRANCH   8  10
ATOM     10  C   UNL     1      45.127   6.511  12.209  0.00  0.00    +0.000 C 
BRANCH  10  11
ATOM     11  C   UNL     1      43.940   5.578  12.507  0.00  0.00    +0.000 C 
ATOM     12  C   UNL     1      44.301   4.152  12.946  0.00  0.00    +0.000 C 
ATOM     13  C   UNL     1      44.842   3.271  11.813  0.00  0.00    +0.000 C 
ATOM     14  N   UNL     1      43.967   3.281  10.630  0.00  0.00    +0.000 NA
ATOM     15  C   UNL     1      44.526   2.441   9.570  0.00  0.00    +0.000 C 
ATOM     16  C   UNL     1      43.736   4.642  10.142  0.00  0.00    +0.000 C 
ATOM     17  C   UNL     1      43.071   5.488  11.233  0.00  0.00    +0.000 C 
ENDBRANCH  10  11
ENDBRANCH   8  10
ENDBRANCH   5   8
ENDBRANCH   1   2
BRANCH   1  20
ATOM     18  C   UNL     1      51.221   5.918  18.032  0.00  0.00    +0.000 C 
ATOM     19  O   UNL     1      50.797   6.634  18.937  0.00  0.00    +0.000 OA
ATOM     20  N   UNL     1      50.920   6.174  16.723  0.00  0.00    +0.000 N 
ATOM     21  H   UNL     1      51.325   5.611  15.991  0.00  0.00    +0.000 HD
BRANCH  18  29
ATOM     22  C   UNL     1      50.923   2.554  17.370  0.00  0.00    +0.000 A 
ATOM     23  N   UNL     1      51.055   1.219  17.252  0.00  0.00    +0.000 NA
ATOM     24  C   UNL     1      52.147   0.648  17.773  0.00  0.00    +0.000 A 
ATOM     25  N   UNL     1      53.147   1.257  18.410  0.00  0.00    +0.000 NA
ATOM     26  C   UNL     1      52.975   2.587  18.500  0.00  0.00    +0.000 A 
ATOM     27  S   UNL     1      54.150   3.529  19.281  0.00  0.00    +0.000 S 
ATOM     28  C   UNL     1      53.269   4.955  18.999  0.00  0.00    +0.000 A 
ATOM     29  C   UNL     1      52.075   4.751  18.315  0.00  0.00    +0.000 A 
ATOM     30  C   UNL     1      51.904   3.331  18.012  0.00  0.00    +0.000 A 
BRANCH  22  32
ATOM     31  C   UNL     1      48.609   2.895  17.500  0.00  0.00    +0.000 C 
ATOM     32  O   UNL     1      49.822   3.150  16.796  0.00  0.00    +0.000 OA
ENDBRANCH  22  32
ENDBRANCH  18  29
ENDBRANCH   1  20
TORSDOF 7
ENDMDL
MODEL 5
REMARK VINA RESULT:    -6.392      3.522      5.394
REMARK INTER + INTRA:         -10.303
REMARK INTER:                  -9.064
REMARK INTRA:                  -1.239
REMARK UNBOUND:                -1.296
REMARK  Name = 
REMARK  9 active torsions:
REMARK  status: ('A' for Active; 'I' for Inactive)
REMARK    1  A    between atoms: C_1  and  O_2
REMARK    2  A    between atoms: O_2  and  C_3
REMARK    3  A    between atoms: C_10  and  C_11
REMARK    4  A    between atoms: N_13  and  C_14
REMARK    5  A    between atoms: C_14  and  C_15
REMARK    6  A    between atoms: C_18  and  N_19
REMARK    7  A    between atoms: N_19  and  C_20
REMARK    8  A    between atoms: C_20  and  C_21
REMARK    9  A    between atoms: N_24  and  C_25
REMARK                            x       y       z     vdW  Elec       q    Type
REMARK                         _______ _______ _______ _____ _____    ______ ____
ROOT
ATOM      1  C   UNL     1      48.458   3.285  18.133  0.00  0.00    +0.000 C 
ENDROOT
BRANCH   1   2
ATOM      2  C   UNL     1      48.207   4.198  16.959  0.00  0.00    +0.000 A 
ATOM      3  C   UNL     1      48.798   5.461  16.912  0.00  0.00    +0.000 A 
ATOM      4  C   UNL     1      48.597   6.301  15.810  0.00  0.00    +0.000 A 
ATOM      5  C   UNL     1      47.767   5.940  14.737  0.00  0.00    +0.000 A 
ATOM      6  C   UNL     1      47.154   4.682  14.808  0.00  0.00    +0.000 A 
ATOM      7  C   UNL     1      47.366   3.824  15.904  0.00  0.00    +0.000 A 
BRANCH   5   8
ATOM      8  N   UNL     1      47.616   6.720  13.566  0.00  0.00    +0.000 N 
ATOM      9  H   UNL     1      48.408   7.344  13.422  0.00  0.00    +0.000 HD
BRANCH   8  10
ATOM     10  C   UNL     1      47.128   6.033  12.378  0.00  0.00    +0.000 C 
BRANCH  10  11
ATOM     11  C   UNL     1      45.800   6.561  11.807  0.00  0.00    +0.000 C 
ATOM     12  C   UNL     1      44.575   6.429  12.723  0.00  0.00    +0.000 C 
ATOM     13  C   UNL     1      44.060   4.991  12.869  0.00  0.00    +0.000 C 
ATOM     14  N   UNL     1      43.851   4.338  11.567  0.00  0.00    +0.000 NA
ATOM     15  C   UNL     1      43.373   2.967  11.751  0.00  0.00    +0.000 C 
ATOM     16  C   UNL     1      45.067   4.356  10.752  0.00  0.00    +0.000 C 
ATOM     17  C   UNL     1      45.508   5.801  10.494  0.00  0.00    +0.000 C 
ENDBRANCH  10  11
ENDBRANCH   8  10
ENDBRANCH   5   8
ENDBRANCH   1   2
BRANCH   1  20
ATOM     18  C   UNL     1      50.547   2.211  17.393  0.00  0.00    +0.000 C 
ATOM     19  O   UNL     1      49.985   1.696  16.430  0.00  0.00    +0.000 OA
ATOM     20  N   UNL     1      49.863   3.001  18.276  0.00  0.00    +0.000 N 
ATOM     21  H   UNL     1      50.328   3.366  19.093  0.00  0.00    +0.000 HD
BRANCH  18  29
ATOM     22  C   UNL     1      53.208   4.349  17.832  0.00  0.00    +0.000 A 
ATOM     23  N   UNL     1      54.401   4.944  18.022  0.00  0.00    +0.000 NA
ATOM     24  C   UNL     1      55.471   4.161  18.197  0.00  0.00    +0.000 A 
ATOM     25  N   UNL     1      55.500   2.828  18.208  0.00  0.00    +0.000 NA
ATOM     26  C   UNL     1      54.289   2.279  18.018  0.00  0.00    +0.000 A 
ATOM     27  S   UNL     1      54.132   0.589  18.000  0.00  0.00    +0.000 S 
ATOM     28  C   UNL     1      52.457   0.696  17.729  0.00  0.00    +0.000 A 
ATOM     29  C   UNL     1      51.984   2.001  17.645  0.00  0.00    +0.000 A 
ATOM     30  C   UNL     1      53.083   2.948  17.824  0.00  0.00    +0.000 A 
BRANCH  22  32
ATOM     31  C   UNL     1      52.267   6.194  16.737  0.00  0.00    +0.000 C 
ATOM     32  O   UNL     1      52.098   5.152  17.695  0.00  0.00    +0.000 OA
ENDBRANCH  22  32
ENDBRANCH  18  29
ENDBRANCH   1  20
TORSDOF 7
ENDMDL
MODEL 6
REMARK VINA RESULT:    -6.318      3.561      8.865
REMARK INTER + INTRA:         -10.199
REMARK INTER:                  -8.979
REMARK INTRA:                  -1.220
REMARK UNBOUND:                -1.296
REMARK  Name = 
REMARK  9 active torsions:
REMARK  status: ('A' for Active; 'I' for Inactive)
REMARK    1  A    between atoms: C_1  and  O_2
REMARK    2  A    between atoms: O_2  and  C_3
REMARK    3  A    between atoms: C_10  and  C_11
REMARK    4  A    between atoms: N_13  and  C_14
REMARK    5  A    between atoms: C_14  and  C_15
REMARK    6  A    between atoms: C_18  and  N_19
REMARK    7  A    between atoms: N_19  and  C_20
REMARK    8  A    between atoms: C_20  and  C_21
REMARK    9  A    between atoms: N_24  and  C_25
REMARK                            x       y       z     vdW  Elec       q    Type
REMARK                         _______ _______ _______ _____ _____    ______ ____
ROOT
ATOM      1  C   UNL     1      47.291   3.284  16.796  0.00  0.00    +0.000 C 
ENDROOT
BRANCH   1   2
ATOM      2  C   UNL     1      48.725   3.423  17.245  0.00  0.00    +0.000 A 
ATOM      3  C   UNL     1      49.632   2.386  17.026  0.00  0.00    +0.000 A 
ATOM      4  C   UNL     1      50.972   2.519  17.410  0.00  0.00    +0.000 A 
ATOM      5  C   UNL     1      51.451   3.666  18.064  0.00  0.00    +0.000 A 
ATOM      6  C   UNL     1      50.525   4.688  18.307  0.00  0.00    +0.000 A 
ATOM      7  C   UNL     1      49.180   4.569  17.907  0.00  0.00    +0.000 A 
BRANCH   5   8
ATOM      8  N   UNL     1      52.814   3.875  18.380  0.00  0.00    +0.000 N 
ATOM      9  H   UNL     1      53.209   3.090  18.893  0.00  0.00    +0.000 HD
BRANCH   8  10
ATOM     10  C   UNL     1      53.655   4.428  17.326  0.00  0.00    +0.000 C 
BRANCH  10  11
ATOM     11  C   UNL     1      54.266   5.808  17.622  0.00  0.00    +0.000 C 
ATOM     12  C   UNL     1      53.265   6.944  17.881  0.00  0.00    +0.000 C 
ATOM     13  C   UNL     1      52.532   7.425  16.622  0.00  0.00    +0.000 C 
ATOM     14  N   UNL     1      53.457   7.741  15.522  0.00  0.00    +0.000 NA
ATOM     15  C   UNL     1      52.717   8.182  14.339  0.00  0.00    +0.000 C 
ATOM     16  C   UNL     1      54.319   6.604  15.198  0.00  0.00    +0.000 C 
ATOM     17  C   UNL     1      55.152   6.207  16.422  0.00  0.00    +0.000 C 
ENDBRANCH  10  11
ENDBRANCH   8  10
ENDBRANCH   5   8
ENDBRANCH   1   2
BRANCH   1  20
ATOM     18  C   UNL     1      46.952   4.195  14.533  0.00  0.00    +0.000 C 
ATOM     19  O   UNL     1      47.297   3.135  14.015  0.00  0.00    +0.000 OA
ATOM     20  N   UNL     1      46.927   4.346  15.893  0.00  0.00    +0.000 N 
ATOM     21  H   UNL     1      46.699   5.240  16.298  0.00  0.00    +0.000 HD
BRANCH  18  29
ATOM     22  C   UNL     1      44.183   4.887  12.611  0.00  0.00    +0.000 A 
ATOM     23  N   UNL     1      43.239   5.402  11.800  0.00  0.00    +0.000 NA
ATOM     24  C   UNL     1      43.452   6.616  11.280  0.00  0.00    +0.000 A 
ATOM     25  N   UNL     1      44.514   7.398  11.472  0.00  0.00    +0.000 NA
ATOM     26  C   UNL     1      45.427   6.846  12.289  0.00  0.00    +0.000 A 
ATOM     27  S   UNL     1      46.849   7.700  12.649  0.00  0.00    +0.000 S 
ATOM     28  C   UNL     1      47.417   6.439  13.638  0.00  0.00    +0.000 A 
ATOM     29  C   UNL     1      46.551   5.354  13.716  0.00  0.00    +0.000 A 
ATOM     30  C   UNL     1      45.357   5.603  12.911  0.00  0.00    +0.000 A 
BRANCH  22  32
ATOM     31  C   UNL     1      43.504   2.675  12.251  0.00  0.00    +0.000 C 
ATOM     32  O   UNL     1      43.946   3.657  13.183  0.00  0.00    +0.000 OA
ENDBRANCH  22  32
ENDBRANCH  18  29
ENDBRANCH   1  20
TORSDOF 7
ENDMDL
MODEL 7
REMARK VINA RESULT:    -6.317      5.078      7.745
REMARK INTER + INTRA:         -10.198
REMARK INTER:                  -9.214
REMARK INTRA:                  -0.984
REMARK UNBOUND:                -1.296
REMARK  Name = 
REMARK  9 active torsions:
REMARK  status: ('A' for Active; 'I' for Inactive)
REMARK    1  A    between atoms: C_1  and  O_2
REMARK    2  A    between atoms: O_2  and  C_3
REMARK    3  A    between atoms: C_10  and  C_11
REMARK    4  A    between atoms: N_13  and  C_14
REMARK    5  A    between atoms: C_14  and  C_15
REMARK    6  A    between atoms: C_18  and  N_19
REMARK    7  A    between atoms: N_19  and  C_20
REMARK    8  A    between atoms: C_20  and  C_21
REMARK    9  A    between atoms: N_24  and  C_25
REMARK                            x       y       z     vdW  Elec       q    Type
REMARK                         _______ _______ _______ _____ _____    ______ ____
ROOT
ATOM      1  C   UNL     1      51.019   8.392  11.566  0.00  0.00    +0.000 C 
ENDROOT
BRANCH   1   2
ATOM      2  C   UNL     1      49.783   7.793  12.191  0.00  0.00    +0.000 A 
ATOM      3  C   UNL     1      48.631   7.604  11.427  0.00  0.00    +0.000 A 
ATOM      4  C   UNL     1      47.491   7.018  11.992  0.00  0.00    +0.000 A 
ATOM      5  C   UNL     1      47.436   6.641  13.343  0.00  0.00    +0.000 A 
ATOM      6  C   UNL     1      48.588   6.863  14.108  0.00  0.00    +0.000 A 
ATOM      7  C   UNL     1      49.745   7.434  13.543  0.00  0.00    +0.000 A 
BRANCH   5   8
ATOM      8  N   UNL     1      46.338   5.961  13.922  0.00  0.00    +0.000 N 
ATOM      9  H   UNL     1      45.615   6.606  14.235  0.00  0.00    +0.000 HD
BRANCH   8  10
ATOM     10  C   UNL     1      45.866   4.769  13.230  0.00  0.00    +0.000 C 
BRANCH  10  11
ATOM     11  C   UNL     1      44.374   4.770  12.854  0.00  0.00    +0.000 C 
ATOM     12  C   UNL     1      43.786   3.415  12.436  0.00  0.00    +0.000 C 
ATOM     13  C   UNL     1      44.241   2.941  11.049  0.00  0.00    +0.000 C 
ATOM     14  N   UNL     1      44.049   3.971  10.016  0.00  0.00    +0.000 NA
ATOM     15  C   UNL     1      44.507   3.484   8.714  0.00  0.00    +0.000 C 
ATOM     16  C   UNL     1      44.725   5.221  10.367  0.00  0.00    +0.000 C 
ATOM     17  C   UNL     1      44.175   5.765  11.690  0.00  0.00    +0.000 C 
ENDBRANCH  10  11
ENDBRANCH   8  10
ENDBRANCH   5   8
ENDBRANCH   1   2
BRANCH   1  20
ATOM     18  C   UNL     1      52.900   7.635  10.169  0.00  0.00    +0.000 C 
ATOM     19  O   UNL     1      53.120   8.779   9.779  0.00  0.00    +0.000 OA
ATOM     20  N   UNL     1      51.883   7.365  11.043  0.00  0.00    +0.000 N 
ATOM     21  H   UNL     1      51.681   6.413  11.305  0.00  0.00    +0.000 HD
BRANCH  18  29
ATOM     22  C   UNL     1      53.059   5.873   7.217  0.00  0.00    +0.000 A 
ATOM     23  N   UNL     1      53.319   5.028   6.201  0.00  0.00    +0.000 NA
ATOM     24  C   UNL     1      54.250   4.087   6.389  0.00  0.00    +0.000 A 
ATOM     25  N   UNL     1      54.973   3.880   7.490  0.00  0.00    +0.000 NA
ATOM     26  C   UNL     1      54.684   4.746   8.475  0.00  0.00    +0.000 A 
ATOM     27  S   UNL     1      55.507   4.633   9.954  0.00  0.00    +0.000 S 
ATOM     28  C   UNL     1      54.642   5.949  10.595  0.00  0.00    +0.000 A 
ATOM     29  C   UNL     1      53.719   6.498   9.711  0.00  0.00    +0.000 A 
ATOM     30  C   UNL     1      53.750   5.778   8.440  0.00  0.00    +0.000 A 
BRANCH  22  32
ATOM     31  C   UNL     1      52.683   8.038   6.407  0.00  0.00    +0.000 C 
ATOM     32  O   UNL     1      52.133   6.870   7.011  0.00  0.00    +0.000 OA
ENDBRANCH  22  32
ENDBRANCH  18  29
ENDBRANCH   1  20
TORSDOF 7
ENDMDL
MODEL 8
REMARK VINA RESULT:    -6.271      4.790      9.142
REMARK INTER + INTRA:         -10.133
REMARK INTER:                  -8.970
REMARK INTRA:                  -1.163
REMARK UNBOUND:                -1.296
REMARK  Name = 
REMARK  9 active torsions:
REMARK  status: ('A' for Active; 'I' for Inactive)
REMARK    1  A    between atoms: C_1  and  O_2
REMARK    2  A    between atoms: O_2  and  C_3
REMARK    3  A    between atoms: C_10  and  C_11
REMARK    4  A    between atoms: N_13  and  C_14
REMARK    5  A    between atoms: C_14  and  C_15
REMARK    6  A    between atoms: C_18  and  N_19
REMARK    7  A    between atoms: N_19  and  C_20
REMARK    8  A    between atoms: C_20  and  C_21
REMARK    9  A    between atoms: N_24  and  C_25
REMARK                            x       y       z     vdW  Elec       q    Type
REMARK                         _______ _______ _______ _____ _____    ______ ____
ROOT
ATOM      1  C   UNL     1      47.367   3.914  17.013  0.00  0.00    +0.000 C 
ENDROOT
BRANCH   1   2
ATOM      2  C   UNL     1      48.798   3.509  17.267  0.00  0.00    +0.000 A 
ATOM      3  C   UNL     1      49.221   2.209  16.985  0.00  0.00    +0.000 A 
ATOM      4  C   UNL     1      50.556   1.836  17.187  0.00  0.00    +0.000 A 
ATOM      5  C   UNL     1      51.507   2.721  17.718  0.00  0.00    +0.000 A 
ATOM      6  C   UNL     1      51.065   4.014  18.026  0.00  0.00    +0.000 A 
ATOM      7  C   UNL     1      49.730   4.404  17.808  0.00  0.00    +0.000 A 
BRANCH   5   8
ATOM      8  N   UNL     1      52.882   2.409  17.845  0.00  0.00    +0.000 N 
ATOM      9  H   UNL     1      53.255   2.703  18.746  0.00  0.00    +0.000 HD
BRANCH   8  10
ATOM     10  C   UNL     1      53.301   1.091  17.387  0.00  0.00    +0.000 C 
BRANCH  10  11
ATOM     11  C   UNL     1      54.806   0.797  17.504  0.00  0.00    +0.000 C 
ATOM     12  C   UNL     1      55.445   0.078  16.307  0.00  0.00    +0.000 C 
ATOM     13  C   UNL     1      55.061  -1.403  16.193  0.00  0.00    +0.000 C 
ATOM     14  N   UNL     1      55.269  -2.133  17.453  0.00  0.00    +0.000 NA
ATOM     15  C   UNL     1      54.878  -3.536  17.305  0.00  0.00    +0.000 C 
ATOM     16  C   UNL     1      54.547  -1.510  18.564  0.00  0.00    +0.000 C 
ATOM     17  C   UNL     1      55.028  -0.069  18.764  0.00  0.00    +0.000 C 
ENDBRANCH  10  11
ENDBRANCH   8  10
ENDBRANCH   5   8
ENDBRANCH   1   2
BRANCH   1  20
ATOM     18  C   UNL     1      47.198   4.339  14.594  0.00  0.00    +0.000 C 
ATOM     19  O   UNL     1      47.215   3.136  14.343  0.00  0.00    +0.000 OA
ATOM     20  N   UNL     1      47.273   4.798  15.880  0.00  0.00    +0.000 N 
ATOM     21  H   UNL     1      47.318   5.789  16.062  0.00  0.00    +0.000 HD
BRANCH  18  29
ATOM     22  C   UNL     1      49.034   7.140  13.801  0.00  0.00    +0.000 A 
ATOM     23  N   UNL     1      49.560   8.264  13.280  0.00  0.00    +0.000 NA
ATOM     24  C   UNL     1      48.974   8.789  12.198  0.00  0.00    +0.000 A 
ATOM     25  N   UNL     1      47.905   8.319  11.555  0.00  0.00    +0.000 NA
ATOM     26  C   UNL     1      47.416   7.195  12.107  0.00  0.00    +0.000 A 
ATOM     27  S   UNL     1      46.053   6.454  11.421  0.00  0.00    +0.000 S 
ATOM     28  C   UNL     1      46.070   5.222  12.592  0.00  0.00    +0.000 A 
ATOM     29  C   UNL     1      47.099   5.344  13.521  0.00  0.00    +0.000 A 
ATOM     30  C   UNL     1      47.907   6.525  13.224  0.00  0.00    +0.000 A 
BRANCH  22  32
ATOM     31  C   UNL     1      50.591   7.446  15.524  0.00  0.00    +0.000 C 
ATOM     32  O   UNL     1      49.661   6.573  14.888  0.00  0.00    +0.000 OA
ENDBRANCH  22  32
ENDBRANCH  18  29
ENDBRANCH   1  20
TORSDOF 7
ENDMDL
MODEL 9
REMARK VINA RESULT:    -6.111      5.290      7.915
REMARK INTER + INTRA:          -9.907
REMARK INTER:                  -8.826
REMARK INTRA:                  -1.081
REMARK UNBOUND:                -1.296
REMARK  Name = 
REMARK  9 active torsions:
REMARK  status: ('A' for Active; 'I' for Inactive)
REMARK    1  A    between atoms: C_1  and  O_2
REMARK    2  A    between atoms: O_2  and  C_3
REMARK    3  A    between atoms: C_10  and  C_11
REMARK    4  A    between atoms: N_13  and  C_14
REMARK    5  A    between atoms: C_14  and  C_15
REMARK    6  A    between atoms: C_18  and  N_19
REMARK    7  A    between atoms: N_19  and  C_20
REMARK    8  A    between atoms: C_20  and  C_21
REMARK    9  A    between atoms: N_24  and  C_25
REMARK                            x       y       z     vdW  Elec       q    Type
REMARK                         _______ _______ _______ _____ _____    ______ ____
ROOT
ATOM      1  C   UNL     1      51.302   8.536  11.988  0.00  0.00    +0.000 C 
ENDROOT
BRANCH   1   2
ATOM      2  C   UNL     1      49.975   7.932  12.375  0.00  0.00    +0.000 A 
ATOM      3  C   UNL     1      49.749   7.518  13.688  0.00  0.00    +0.000 A 
ATOM      4  C   UNL     1      48.509   6.986  14.064  0.00  0.00    +0.000 A 
ATOM      5  C   UNL     1      47.466   6.803  13.142  0.00  0.00    +0.000 A 
ATOM      6  C   UNL     1      47.714   7.193  11.820  0.00  0.00    +0.000 A 
ATOM      7  C   UNL     1      48.951   7.747  11.439  0.00  0.00    +0.000 A 
BRANCH   5   8
ATOM      8  N   UNL     1      46.171   6.359  13.504  0.00  0.00    +0.000 N 
ATOM      9  H   UNL     1      45.914   6.665  14.440  0.00  0.00    +0.000 HD
BRANCH   8  10
ATOM     10  C   UNL     1      45.130   6.478  12.492  0.00  0.00    +0.000 C 
BRANCH  10  11
ATOM     11  C   UNL     1      43.903   5.573  12.695  0.00  0.00    +0.000 C 
ATOM     12  C   UNL     1      44.200   4.112  13.063  0.00  0.00    +0.000 C 
ATOM     13  C   UNL     1      44.750   3.277  11.899  0.00  0.00    +0.000 C 
ATOM     14  N   UNL     1      43.918   3.386  10.691  0.00  0.00    +0.000 NA
ATOM     15  C   UNL     1      44.485   2.587   9.603  0.00  0.00    +0.000 C 
ATOM     16  C   UNL     1      43.750   4.779  10.274  0.00  0.00    +0.000 C 
ATOM     17  C   UNL     1      43.076   5.586  11.391  0.00  0.00    +0.000 C 
ENDBRANCH  10  11
ENDBRANCH   8  10
ENDBRANCH   5   8
ENDBRANCH   1   2
BRANCH   1  20
ATOM     18  C   UNL     1      52.680   8.803   9.964  0.00  0.00    +0.000 C 
ATOM     19  O   UNL     1      53.372   9.663  10.503  0.00  0.00    +0.000 OA
ATOM     20  N   UNL     1      51.643   8.207  10.627  0.00  0.00    +0.000 N 
ATOM     21  H   UNL     1      51.049   7.547  10.149  0.00  0.00    +0.000 HD
BRANCH  18  29
ATOM     22  C   UNL     1      53.564   5.797   8.540  0.00  0.00    +0.000 A 
ATOM     23  N   UNL     1      53.910   4.771   7.740  0.00  0.00    +0.000 NA
ATOM     24  C   UNL     1      54.011   5.007   6.427  0.00  0.00    +0.000 A 
ATOM     25  N   UNL     1      53.805   6.164   5.799  0.00  0.00    +0.000 NA
ATOM     26  C   UNL     1      53.459   7.157   6.636  0.00  0.00    +0.000 A 
ATOM     27  S   UNL     1      53.158   8.706   6.013  0.00  0.00    +0.000 S 
ATOM     28  C   UNL     1      52.823   9.320   7.562  0.00  0.00    +0.000 A 
ATOM     29  C   UNL     1      52.931   8.375   8.577  0.00  0.00    +0.000 A 
ATOM     30  C   UNL     1      53.308   7.078   8.017  0.00  0.00    +0.000 A 
BRANCH  22  32
ATOM     31  C   UNL     1      54.627   5.157  10.527  0.00  0.00    +0.000 C 
ATOM     32  O   UNL     1      53.415   5.548   9.887  0.00  0.00    +0.000 OA
ENDBRANCH  22  32
ENDBRANCH  18  29
ENDBRANCH   1  20
TORSDOF 7
ENDMDL
