MODEL 1
REMARK VINA RESULT:    -8.856      0.000      0.000
REMARK INTER + INTRA:         -12.711
REMARK INTER:                 -11.962
REMARK INTRA:                  -0.749
REMARK UNBOUND:                -0.749
REMARK  Name = 
REMARK  6 active torsions:
REMARK  status: ('A' for Active; 'I' for Inactive)
REMARK    1  A    between atoms: C_2  and  C_4
REMARK    2  A    between atoms: N_8  and  C_9
REMARK    3  A    between atoms: C_9  and  C_10
REMARK    4  A    between atoms: C_10  and  C_11
REMARK    5  A    between atoms: C_15  and  O_16
REMARK    6  A    between atoms: O_16  and  C_17
REMARK                            x       y       z     vdW  Elec       q    Type
REMARK                         _______ _______ _______ _____ _____    ______ ____
ROOT
ATOM      1  C   UNL     1      46.476   2.497   7.708  0.00  0.00    +0.000 A 
ATOM      2  C   UNL     1      45.649   1.868   8.632  0.00  0.00    +0.000 A 
ATOM      3  C   UNL     1      44.739   2.635   9.360  0.00  0.00    +0.000 A 
ATOM      4  C   UNL     1      44.685   4.012   9.170  0.00  0.00    +0.000 A 
ATOM      5  N   UNL     1      43.746   4.826   9.782  0.00  0.00    +0.000 N 
ATOM      6  N   UNL     1      45.510   4.636   8.305  0.00  0.00    +0.000 NA
ATOM      7  C   UNL     1      46.389   3.875   7.599  0.00  0.00    +0.000 A 
ATOM      8  H   UNL     1      44.016   5.787   9.582  0.00  0.00    +0.000 HD
ENDROOT
BRANCH   1  10
ATOM      9  N   UNL     1      48.542   2.428   6.438  0.00  0.00    +0.000 N 
ATOM     10  C   UNL     1      47.419   1.757   6.846  0.00  0.00    +0.000 C 
ATOM     11  O   UNL     1      47.230   0.588   6.543  0.00  0.00    +0.000 OA
ATOM     12  H   UNL     1      49.240   1.879   5.949  0.00  0.00    +0.000 HD
ATOM     13  H   UNL     1      48.849   3.283   6.875  0.00  0.00    +0.000 HD
ENDBRANCH   1  10
BRANCH   5  14
ATOM     14  C   UNL     1      43.347   4.543  11.154  0.00  0.00    +0.000 C 
BRANCH  14  15
ATOM     15  C   UNL     1      43.666   5.741  12.055  0.00  0.00    +0.000 C 
BRANCH  15  16
ATOM     16  C   UNL     1      45.134   5.824  12.396  0.00  0.00    +0.000 A 
ATOM     17  C   UNL     1      45.952   6.799  11.813  0.00  0.00    +0.000 A 
ATOM     18  C   UNL     1      47.306   6.874  12.147  0.00  0.00    +0.000 A 
ATOM     19  C   UNL     1      47.864   5.973  13.058  0.00  0.00    +0.000 A 
ATOM     20  C   UNL     1      47.064   4.984  13.627  0.00  0.00    +0.000 A 
ATOM     21  C   UNL     1      45.706   4.915  13.298  0.00  0.00    +0.000 A 
BRANCH  20  22
ATOM     22  O   UNL     1      47.486   4.057  14.544  0.00  0.00    +0.000 OA
BRANCH  22  23
ATOM     23  C   UNL     1      47.267   4.307  15.950  0.00  0.00    +0.000 C 
ATOM     24  C   UNL     1      48.339   5.088  16.723  0.00  0.00    +0.000 C 
ATOM     25  O   UNL     1      48.526   4.007  17.665  0.00  0.00    +0.000 OA
ATOM     26  C   UNL     1      47.664   3.151  16.881  0.00  0.00    +0.000 C 
ENDBRANCH  22  23
ENDBRANCH  20  22
ENDBRANCH  15  16
ENDBRANCH  14  15
ENDBRANCH   5  14
TORSDOF 6
ENDMDL
MODEL 2
REMARK VINA RESULT:    -8.086      2.169      3.367
REMARK INTER + INTRA:         -11.671
REMARK INTER:                 -10.911
REMARK INTRA:                  -0.760
REMARK UNBOUND:                -0.749
REMARK  Name = 
REMARK  6 active torsions:
REMARK  status: ('A' for Active; 'I' for Inactive)
REMARK    1  A    between atoms: C_2  and  C_4
REMARK    2  A    between atoms: N_8  and  C_9
REMARK    3  A    between atoms: C_9  and  C_10
REMARK    4  A    between atoms: C_10  and  C_11
REMARK    5  A    between atoms: C_15  and  O_16
REMARK    6  A    between atoms: O_16  and  C_17
REMARK                            x       y       z     vdW  Elec       q    Type
REMARK                         _______ _______ _______ _____ _____    ______ ____
ROOT
ATOM      1  C   UNL     1      46.435   2.332   7.742  0.00  0.00    +0.000 A 
ATOM      2  C   UNL     1      45.574   1.813   8.702  0.00  0.00    +0.000 A 
ATOM      3  C   UNL     1      44.690   2.673   9.355  0.00  0.00    +0.000 A 
ATOM      4  C   UNL     1      44.697   4.031   9.055  0.00  0.00    +0.000 A 
ATOM      5  N   UNL     1      43.787   4.929   9.589  0.00  0.00    +0.000 N 
ATOM      6  N   UNL     1      45.555   4.550   8.154  0.00  0.00    +0.000 NA
ATOM      7  C   UNL     1      46.408   3.699   7.523  0.00  0.00    +0.000 A 
ATOM      8  H   UNL     1      44.100   5.859   9.318  0.00  0.00    +0.000 HD
ENDROOT
BRANCH   1  10
ATOM      9  N   UNL     1      48.537   2.057   6.560  0.00  0.00    +0.000 N 
ATOM     10  C   UNL     1      47.355   1.486   6.953  0.00  0.00    +0.000 C 
ATOM     11  O   UNL     1      47.094   0.320   6.696  0.00  0.00    +0.000 OA
ATOM     12  H   UNL     1      49.211   1.437   6.125  0.00  0.00    +0.000 HD
ATOM     13  H   UNL     1      48.888   2.908   6.970  0.00  0.00    +0.000 HD
ENDBRANCH   1  10
BRANCH   5  14
ATOM     14  C   UNL     1      43.364   4.773  10.975  0.00  0.00    +0.000 C 
BRANCH  14  15
ATOM     15  C   UNL     1      43.694   6.038  11.774  0.00  0.00    +0.000 C 
BRANCH  15  16
ATOM     16  C   UNL     1      45.116   6.036  12.282  0.00  0.00    +0.000 A 
ATOM     17  C   UNL     1      45.529   5.113  13.251  0.00  0.00    +0.000 A 
ATOM     18  C   UNL     1      46.851   5.112  13.704  0.00  0.00    +0.000 A 
ATOM     19  C   UNL     1      47.774   6.035  13.204  0.00  0.00    +0.000 A 
ATOM     20  C   UNL     1      47.367   6.972  12.256  0.00  0.00    +0.000 A 
ATOM     21  C   UNL     1      46.046   6.967  11.798  0.00  0.00    +0.000 A 
BRANCH  20  22
ATOM     22  O   UNL     1      48.179   7.912  11.677  0.00  0.00    +0.000 OA
BRANCH  22  23
ATOM     23  C   UNL     1      49.524   8.084  12.174  0.00  0.00    +0.000 C 
ATOM     24  C   UNL     1      50.130   9.494  12.152  0.00  0.00    +0.000 C 
ATOM     25  O   UNL     1      51.242   9.063  11.332  0.00  0.00    +0.000 OA
ATOM     26  C   UNL     1      50.633   7.763  11.160  0.00  0.00    +0.000 C 
ENDBRANCH  22  23
ENDBRANCH  20  22
ENDBRANCH  15  16
ENDBRANCH  14  15
ENDBRANCH   5  14
TORSDOF 6
ENDMDL
MODEL 3
REMARK VINA RESULT:    -7.504      2.770      4.294
REMARK INTER + INTRA:         -10.885
REMARK INTER:                 -10.211
REMARK INTRA:                  -0.674
REMARK UNBOUND:                -0.749
REMARK  Name = 
REMARK  6 active torsions:
REMARK  status: ('A' for Active; 'I' for Inactive)
REMARK    1  A    between atoms: C_2  and  C_4
REMARK    2  A    between atoms: N_8  and  C_9
REMARK    3  A    between atoms: C_9  and  C_10
REMARK    4  A    between atoms: C_10  and  C_11
REMARK    5  A    between atoms: C_15  and  O_16
REMARK    6  A    between atoms: O_16  and  C_17
REMARK                            x       y       z     vdW  Elec       q    Type
REMARK                         _______ _______ _______ _____ _____    ______ ____
ROOT
ATOM      1  C   UNL     1      46.473   2.836   7.380  0.00  0.00    +0.000 A 
ATOM      2  C   UNL     1      46.057   4.033   7.951  0.00  0.00    +0.000 A 
ATOM      3  C   UNL     1      45.315   3.999   9.133  0.00  0.00    +0.000 A 
ATOM      4  C   UNL     1      44.984   2.776   9.707  0.00  0.00    +0.000 A 
ATOM      5  N   UNL     1      44.335   2.662  10.926  0.00  0.00    +0.000 N 
ATOM      6  N   UNL     1      45.349   1.609   9.139  0.00  0.00    +0.000 NA
ATOM      7  C   UNL     1      46.076   1.658   7.990  0.00  0.00    +0.000 A 
ATOM      8  H   UNL     1      44.096   1.679  11.040  0.00  0.00    +0.000 HD
ENDROOT
BRANCH   1  10
ATOM      9  N   UNL     1      48.647   2.497   6.356  0.00  0.00    +0.000 N 
ATOM     10  C   UNL     1      47.319   2.779   6.170  0.00  0.00    +0.000 C 
ATOM     11  O   UNL     1      46.852   2.935   5.051  0.00  0.00    +0.000 OA
ATOM     12  H   UNL     1      49.195   2.341   5.518  0.00  0.00    +0.000 HD
ATOM     13  H   UNL     1      49.002   2.112   7.218  0.00  0.00    +0.000 HD
ENDBRANCH   1  10
BRANCH   5  14
ATOM     14  C   UNL     1      43.292   3.620  11.267  0.00  0.00    +0.000 C 
BRANCH  14  15
ATOM     15  C   UNL     1      43.470   4.104  12.710  0.00  0.00    +0.000 C 
BRANCH  15  16
ATOM     16  C   UNL     1      44.634   5.054  12.853  0.00  0.00    +0.000 A 
ATOM     17  C   UNL     1      45.935   4.572  13.041  0.00  0.00    +0.000 A 
ATOM     18  C   UNL     1      47.006   5.461  13.158  0.00  0.00    +0.000 A 
ATOM     19  C   UNL     1      46.793   6.841  13.100  0.00  0.00    +0.000 A 
ATOM     20  C   UNL     1      45.499   7.332  12.936  0.00  0.00    +0.000 A 
ATOM     21  C   UNL     1      44.429   6.441  12.810  0.00  0.00    +0.000 A 
BRANCH  20  22
ATOM     22  O   UNL     1      45.164   8.658  12.843  0.00  0.00    +0.000 OA
BRANCH  22  23
ATOM     23  C   UNL     1      45.196   9.304  11.552  0.00  0.00    +0.000 C 
ATOM     24  C   UNL     1      45.379  10.828  11.508  0.00  0.00    +0.000 C 
ATOM     25  O   UNL     1      44.140  11.012  10.785  0.00  0.00    +0.000 OA
ATOM     26  C   UNL     1      43.816   9.613  10.950  0.00  0.00    +0.000 C 
ENDBRANCH  22  23
ENDBRANCH  20  22
ENDBRANCH  15  16
ENDBRANCH  14  15
ENDBRANCH   5  14
TORSDOF 6
ENDMDL
MODEL 4
REMARK VINA RESULT:    -7.196      3.024      8.048
REMARK INTER + INTRA:         -10.470
REMARK INTER:                  -9.938
REMARK INTRA:                  -0.531
REMARK UNBOUND:                -0.749
REMARK  Name = 
REMARK  6 active torsions:
REMARK  status: ('A' for Active; 'I' for Inactive)
REMARK    1  A    between atoms: C_2  and  C_4
REMARK    2  A    between atoms: N_8  and  C_9
REMARK    3  A    between atoms: C_9  and  C_10
REMARK    4  A    between atoms: C_10  and  C_11
REMARK    5  A    between atoms: C_15  and  O_16
REMARK    6  A    between atoms: O_16  and  C_17
REMARK                            x       y       z     vdW  Elec       q    Type
REMARK                         _______ _______ _______ _____ _____    ______ ____
ROOT
ATOM      1  C   UNL     1      48.302   4.644  16.621  0.00  0.00    +0.000 A 
ATOM      2  C   UNL     1      47.248   4.008  15.975  0.00  0.00    +0.000 A 
ATOM      3  C   UNL     1      46.804   4.505  14.749  0.00  0.00    +0.000 A 
ATOM      4  C   UNL     1      47.403   5.636  14.203  0.00  0.00    +0.000 A 
ATOM      5  N   UNL     1      47.084   6.132  12.950  0.00  0.00    +0.000 N 
ATOM      6  N   UNL     1      48.399   6.283  14.841  0.00  0.00    +0.000 NA
ATOM      7  C   UNL     1      48.824   5.784  16.033  0.00  0.00    +0.000 A 
ATOM      8  H   UNL     1      47.559   7.028  12.859  0.00  0.00    +0.000 HD
ENDROOT
BRANCH   1  10
ATOM      9  N   UNL     1      48.000   3.772  18.865  0.00  0.00    +0.000 N 
ATOM     10  C   UNL     1      48.881   4.147  17.885  0.00  0.00    +0.000 C 
ATOM     11  O   UNL     1      50.089   4.035  18.038  0.00  0.00    +0.000 OA
ATOM     12  H   UNL     1      48.400   3.321  19.680  0.00  0.00    +0.000 HD
ATOM     13  H   UNL     1      47.023   3.607  18.678  0.00  0.00    +0.000 HD
ENDBRANCH   1  10
BRANCH   5  14
ATOM     14  C   UNL     1      45.698   6.092  12.501  0.00  0.00    +0.000 C 
BRANCH  14  15
ATOM     15  C   UNL     1      45.631   6.255  10.979  0.00  0.00    +0.000 C 
BRANCH  15  16
ATOM     16  C   UNL     1      45.258   4.968  10.284  0.00  0.00    +0.000 A 
ATOM     17  C   UNL     1      44.512   3.985  10.946  0.00  0.00    +0.000 A 
ATOM     18  C   UNL     1      44.161   2.804  10.288  0.00  0.00    +0.000 A 
ATOM     19  C   UNL     1      44.558   2.583   8.966  0.00  0.00    +0.000 A 
ATOM     20  C   UNL     1      45.321   3.544   8.305  0.00  0.00    +0.000 A 
ATOM     21  C   UNL     1      45.664   4.730   8.963  0.00  0.00    +0.000 A 
BRANCH  20  22
ATOM     22  O   UNL     1      45.753   3.455   7.007  0.00  0.00    +0.000 OA
BRANCH  22  23
ATOM     23  C   UNL     1      47.142   3.155   6.747  0.00  0.00    +0.000 C 
ATOM     24  C   UNL     1      47.517   2.597   5.367  0.00  0.00    +0.000 C 
ATOM     25  O   UNL     1      48.099   1.406   5.947  0.00  0.00    +0.000 OA
ATOM     26  C   UNL     1      47.613   1.784   7.255  0.00  0.00    +0.000 C 
ENDBRANCH  22  23
ENDBRANCH  20  22
ENDBRANCH  15  16
ENDBRANCH  14  15
ENDBRANCH   5  14
TORSDOF 6
ENDMDL
MODEL 5
REMARK VINA RESULT:    -6.622      3.093      7.198
REMARK INTER + INTRA:          -9.694
REMARK INTER:                  -9.039
REMARK INTRA:                  -0.655
REMARK UNBOUND:                -0.749
REMARK  Name = 
REMARK  6 active torsions:
REMARK  status: ('A' for Active; 'I' for Inactive)
REMARK    1  A    between atoms: C_2  and  C_4
REMARK    2  A    between atoms: N_8  and  C_9
REMARK    3  A    between atoms: C_9  and  C_10
REMARK    4  A    between atoms: C_10  and  C_11
REMARK    5  A    between atoms: C_15  and  O_16
REMARK    6  A    between atoms: O_16  and  C_17
REMARK                            x       y       z     vdW  Elec       q    Type
REMARK                         _______ _______ _______ _____ _____    ______ ____
ROOT
ATOM      1  C   UNL     1      47.574   4.258  15.906  0.00  0.00    +0.000 A 
ATOM      2  C   UNL     1      47.105   3.855  14.661  0.00  0.00    +0.000 A 
ATOM      3  C   UNL     1      47.281   4.699  13.564  0.00  0.00    +0.000 A 
ATOM      4  C   UNL     1      47.898   5.934  13.733  0.00  0.00    +0.000 A 
ATOM      5  N   UNL     1      48.194   6.784  12.679  0.00  0.00    +0.000 N 
ATOM      6  N   UNL     1      48.320   6.351  14.943  0.00  0.00    +0.000 NA
ATOM      7  C   UNL     1      48.147   5.515  16.002  0.00  0.00    +0.000 A 
ATOM      8  H   UNL     1      48.509   7.661  13.089  0.00  0.00    +0.000 HD
ENDROOT
BRANCH   1  10
ATOM      9  N   UNL     1      48.663   3.173  17.783  0.00  0.00    +0.000 N 
ATOM     10  C   UNL     1      47.494   3.401  17.107  0.00  0.00    +0.000 C 
ATOM     11  O   UNL     1      46.429   2.950  17.503  0.00  0.00    +0.000 OA
ATOM     12  H   UNL     1      48.581   2.686  18.669  0.00  0.00    +0.000 HD
ATOM     13  H   UNL     1      49.490   3.731  17.637  0.00  0.00    +0.000 HD
ENDBRANCH   1  10
BRANCH   5  14
ATOM     14  C   UNL     1      47.254   6.895  11.571  0.00  0.00    +0.000 C 
BRANCH  14  15
ATOM     15  C   UNL     1      45.862   7.264  12.092  0.00  0.00    +0.000 C 
BRANCH  15  16
ATOM     16  C   UNL     1      44.863   6.150  11.891  0.00  0.00    +0.000 A 
ATOM     17  C   UNL     1      43.844   5.923  12.823  0.00  0.00    +0.000 A 
ATOM     18  C   UNL     1      42.917   4.898  12.619  0.00  0.00    +0.000 A 
ATOM     19  C   UNL     1      43.001   4.080  11.488  0.00  0.00    +0.000 A 
ATOM     20  C   UNL     1      44.025   4.283  10.565  0.00  0.00    +0.000 A 
ATOM     21  C   UNL     1      44.947   5.315  10.767  0.00  0.00    +0.000 A 
BRANCH  20  22
ATOM     22  O   UNL     1      44.202   3.564   9.412  0.00  0.00    +0.000 OA
BRANCH  22  23
ATOM     23  C   UNL     1      45.542   3.217   8.997  0.00  0.00    +0.000 C 
ATOM     24  C   UNL     1      45.961   3.540   7.556  0.00  0.00    +0.000 C 
ATOM     25  O   UNL     1      46.273   2.155   7.278  0.00  0.00    +0.000 OA
ATOM     26  C   UNL     1      45.723   1.758   8.554  0.00  0.00    +0.000 C 
ENDBRANCH  22  23
ENDBRANCH  20  22
ENDBRANCH  15  16
ENDBRANCH  14  15
ENDBRANCH   5  14
TORSDOF 6
ENDMDL
MODEL 6
REMARK VINA RESULT:    -6.560      3.687      8.515
REMARK INTER + INTRA:          -9.609
REMARK INTER:                  -9.186
REMARK INTRA:                  -0.423
REMARK UNBOUND:                -0.749
REMARK  Name = 
REMARK  6 active torsions:
REMARK  status: ('A' for Active; 'I' for Inactive)
REMARK    1  A    between atoms: C_2  and  C_4
REMARK    2  A    between atoms: N_8  and  C_9
REMARK    3  A    between atoms: C_9  and  C_10
REMARK    4  A    between atoms: C_10  and  C_11
REMARK    5  A    between atoms: C_15  and  O_16
REMARK    6  A    between atoms: O_16  and  C_17
REMARK                            x       y       z     vdW  Elec       q    Type
REMARK                         _______ _______ _______ _____ _____    ______ ____
ROOT
ATOM      1  C   UNL     1      48.782   4.472  18.442  0.00  0.00    +0.000 A 
ATOM      2  C   UNL     1      48.902   5.539  17.558  0.00  0.00    +0.000 A 
ATOM      3  C   UNL     1      48.240   5.480  16.331  0.00  0.00    +0.000 A 
ATOM      4  C   UNL     1      47.492   4.354  16.001  0.00  0.00    +0.000 A 
ATOM      5  N   UNL     1      46.731   4.261  14.847  0.00  0.00    +0.000 N 
ATOM      6  N   UNL     1      47.403   3.298  16.835  0.00  0.00    +0.000 NA
ATOM      7  C   UNL     1      48.050   3.372  18.029  0.00  0.00    +0.000 A 
ATOM      8  H   UNL     1      46.406   3.299  14.786  0.00  0.00    +0.000 HD
ENDROOT
BRANCH   1  10
ATOM      9  N   UNL     1      48.602   4.054  20.825  0.00  0.00    +0.000 N 
ATOM     10  C   UNL     1      49.390   4.478  19.788  0.00  0.00    +0.000 C 
ATOM     11  O   UNL     1      50.555   4.806  19.965  0.00  0.00    +0.000 OA
ATOM     12  H   UNL     1      49.061   3.947  21.723  0.00  0.00    +0.000 HD
ATOM     13  H   UNL     1      47.747   3.540  20.679  0.00  0.00    +0.000 HD
ENDBRANCH   1  10
BRANCH   5  14
ATOM     14  C   UNL     1      47.238   4.846  13.612  0.00  0.00    +0.000 C 
BRANCH  14  15
ATOM     15  C   UNL     1      46.314   5.977  13.145  0.00  0.00    +0.000 C 
BRANCH  15  16
ATOM     16  C   UNL     1      45.302   5.503  12.130  0.00  0.00    +0.000 A 
ATOM     17  C   UNL     1      43.959   5.325  12.486  0.00  0.00    +0.000 A 
ATOM     18  C   UNL     1      43.029   4.899  11.535  0.00  0.00    +0.000 A 
ATOM     19  C   UNL     1      43.427   4.636  10.221  0.00  0.00    +0.000 A 
ATOM     20  C   UNL     1      44.765   4.788   9.862  0.00  0.00    +0.000 A 
ATOM     21  C   UNL     1      45.693   5.222  10.814  0.00  0.00    +0.000 A 
BRANCH  20  22
ATOM     22  O   UNL     1      45.274   4.581   8.606  0.00  0.00    +0.000 OA
BRANCH  22  23
ATOM     23  C   UNL     1      45.171   3.268   8.012  0.00  0.00    +0.000 C 
ATOM     24  C   UNL     1      45.259   2.046   8.936  0.00  0.00    +0.000 C 
ATOM     25  O   UNL     1      46.392   1.512   8.213  0.00  0.00    +0.000 OA
ATOM     26  C   UNL     1      46.481   2.721   7.425  0.00  0.00    +0.000 C 
ENDBRANCH  22  23
ENDBRANCH  20  22
ENDBRANCH  15  16
ENDBRANCH  14  15
ENDBRANCH   5  14
TORSDOF 6
ENDMDL
MODEL 7
REMARK VINA RESULT:    -6.329      2.931      4.336
REMARK INTER + INTRA:          -9.298
REMARK INTER:                  -8.653
REMARK INTRA:                  -0.645
REMARK UNBOUND:                -0.749
REMARK  Name = 
REMARK  6 active torsions:
REMARK  status: ('A' for Active; 'I' for Inactive)
REMARK    1  A    between atoms: C_2  and  C_4
REMARK    2  A    between atoms: N_8  and  C_9
REMARK    3  A    between atoms: C_9  and  C_10
REMARK    4  A    between atoms: C_10  and  C_11
REMARK    5  A    between atoms: C_15  and  O_16
REMARK    6  A    between atoms: O_16  and  C_17
REMARK                            x       y       z     vdW  Elec       q    Type
REMARK                         _______ _______ _______ _____ _____    ______ ____
ROOT
ATOM      1  C   UNL     1      44.434   4.206  11.375  0.00  0.00    +0.000 A 
ATOM      2  C   UNL     1      44.270   4.771  12.634  0.00  0.00    +0.000 A 
ATOM      3  C   UNL     1      44.738   6.066  12.862  0.00  0.00    +0.000 A 
ATOM      4  C   UNL     1      45.377   6.761  11.840  0.00  0.00    +0.000 A 
ATOM      5  N   UNL     1      45.781   8.081  11.959  0.00  0.00    +0.000 N 
ATOM      6  N   UNL     1      45.575   6.207  10.627  0.00  0.00    +0.000 NA
ATOM      7  C   UNL     1      45.110   4.945  10.419  0.00  0.00    +0.000 A 
ATOM      8  H   UNL     1      46.335   8.294  11.132  0.00  0.00    +0.000 HD
ENDROOT
BRANCH   1  10
ATOM      9  N   UNL     1      44.539   2.206  10.004  0.00  0.00    +0.000 N 
ATOM     10  C   UNL     1      43.910   2.870  11.024  0.00  0.00    +0.000 C 
ATOM     11  O   UNL     1      42.985   2.361  11.641  0.00  0.00    +0.000 OA
ATOM     12  H   UNL     1      44.253   1.246   9.850  0.00  0.00    +0.000 HD
ATOM     13  H   UNL     1      45.447   2.479   9.661  0.00  0.00    +0.000 HD
ENDBRANCH   1  10
BRANCH   5  14
ATOM     14  C   UNL     1      46.321   8.547  13.230  0.00  0.00    +0.000 C 
BRANCH  14  15
ATOM     15  C   UNL     1      47.820   8.242  13.311  0.00  0.00    +0.000 C 
BRANCH  15  16
ATOM     16  C   UNL     1      48.260   7.915  14.718  0.00  0.00    +0.000 A 
ATOM     17  C   UNL     1      48.298   8.907  15.706  0.00  0.00    +0.000 A 
ATOM     18  C   UNL     1      48.693   8.590  17.007  0.00  0.00    +0.000 A 
ATOM     19  C   UNL     1      49.064   7.283  17.338  0.00  0.00    +0.000 A 
ATOM     20  C   UNL     1      49.052   6.294  16.358  0.00  0.00    +0.000 A 
ATOM     21  C   UNL     1      48.648   6.611  15.057  0.00  0.00    +0.000 A 
BRANCH  20  22
ATOM     22  O   UNL     1      49.373   4.977  16.560  0.00  0.00    +0.000 OA
BRANCH  22  23
ATOM     23  C   UNL     1      48.602   4.200  17.503  0.00  0.00    +0.000 C 
ATOM     24  C   UNL     1      48.122   2.807  17.073  0.00  0.00    +0.000 C 
ATOM     25  O   UNL     1      46.737   3.153  17.299  0.00  0.00    +0.000 OA
ATOM     26  C   UNL     1      47.102   4.531  17.537  0.00  0.00    +0.000 C 
ENDBRANCH  22  23
ENDBRANCH  20  22
ENDBRANCH  15  16
ENDBRANCH  14  15
ENDBRANCH   5  14
TORSDOF 6
ENDMDL
MODEL 8
REMARK VINA RESULT:    -6.141      3.344      5.279
REMARK INTER + INTRA:          -9.044
REMARK INTER:                  -8.556
REMARK INTRA:                  -0.488
REMARK UNBOUND:                -0.749
REMARK  Name = 
REMARK  6 active torsions:
REMARK  status: ('A' for Active; 'I' for Inactive)
REMARK    1  A    between atoms: C_2  and  C_4
REMARK    2  A    between atoms: N_8  and  C_9
REMARK    3  A    between atoms: C_9  and  C_10
REMARK    4  A    between atoms: C_10  and  C_11
REMARK    5  A    between atoms: C_15  and  O_16
REMARK    6  A    between atoms: O_16  and  C_17
REMARK                            x       y       z     vdW  Elec       q    Type
REMARK                         _______ _______ _______ _____ _____    ______ ____
ROOT
ATOM      1  C   UNL     1      44.879   4.522  12.112  0.00  0.00    +0.000 A 
ATOM      2  C   UNL     1      45.668   4.469  13.255  0.00  0.00    +0.000 A 
ATOM      3  C   UNL     1      46.719   5.376  13.396  0.00  0.00    +0.000 A 
ATOM      4  C   UNL     1      46.977   6.299  12.388  0.00  0.00    +0.000 A 
ATOM      5  N   UNL     1      47.938   7.291  12.497  0.00  0.00    +0.000 N 
ATOM      6  N   UNL     1      46.242   6.333  11.259  0.00  0.00    +0.000 NA
ATOM      7  C   UNL     1      45.218   5.446  11.138  0.00  0.00    +0.000 A 
ATOM      8  H   UNL     1      48.012   7.729  11.581  0.00  0.00    +0.000 HD
ENDROOT
BRANCH   1  10
ATOM      9  N   UNL     1      43.760   2.399  12.467  0.00  0.00    +0.000 N 
ATOM     10  C   UNL     1      43.704   3.649  11.910  0.00  0.00    +0.000 C 
ATOM     11  O   UNL     1      42.712   4.037  11.311  0.00  0.00    +0.000 OA
ATOM     12  H   UNL     1      42.907   1.852  12.428  0.00  0.00    +0.000 HD
ATOM     13  H   UNL     1      44.436   2.151  13.173  0.00  0.00    +0.000 HD
ENDBRANCH   1  10
BRANCH   5  14
ATOM     14  C   UNL     1      49.197   6.990  13.168  0.00  0.00    +0.000 C 
BRANCH  14  15
ATOM     15  C   UNL     1      49.283   7.752  14.495  0.00  0.00    +0.000 C 
BRANCH  15  16
ATOM     16  C   UNL     1      49.878   6.910  15.597  0.00  0.00    +0.000 A 
ATOM     17  C   UNL     1      51.238   7.000  15.915  0.00  0.00    +0.000 A 
ATOM     18  C   UNL     1      51.774   6.226  16.947  0.00  0.00    +0.000 A 
ATOM     19  C   UNL     1      50.963   5.345  17.668  0.00  0.00    +0.000 A 
ATOM     20  C   UNL     1      49.613   5.230  17.345  0.00  0.00    +0.000 A 
ATOM     21  C   UNL     1      49.076   6.012  16.317  0.00  0.00    +0.000 A 
BRANCH  20  22
ATOM     22  O   UNL     1      48.713   4.420  17.988  0.00  0.00    +0.000 OA
BRANCH  22  23
ATOM     23  C   UNL     1      48.732   3.000  17.726  0.00  0.00    +0.000 C 
ATOM     24  C   UNL     1      50.045   2.370  17.240  0.00  0.00    +0.000 C 
ATOM     25  O   UNL     1      49.423   1.871  16.034  0.00  0.00    +0.000 OA
ATOM     26  C   UNL     1      48.209   2.592  16.340  0.00  0.00    +0.000 C 
ENDBRANCH  22  23
ENDBRANCH  20  22
ENDBRANCH  15  16
ENDBRANCH  14  15
ENDBRANCH   5  14
TORSDOF 6
ENDMDL
MODEL 9
REMARK VINA RESULT:    -6.122      2.935      4.059
REMARK INTER + INTRA:          -9.018
REMARK INTER:                  -8.444
REMARK INTRA:                  -0.574
REMARK UNBOUND:                -0.749
REMARK  Name = 
REMARK  6 active torsions:
REMARK  status: ('A' for Active; 'I' for Inactive)
REMARK    1  A    between atoms: C_2  and  C_4
REMARK    2  A    between atoms: N_8  and  C_9
REMARK    3  A    between atoms: C_9  and  C_10
REMARK    4  A    between atoms: C_10  and  C_11
REMARK    5  A    between atoms: C_15  and  O_16
REMARK    6  A    between atoms: O_16  and  C_17
REMARK                            x       y       z     vdW  Elec       q    Type
REMARK                         _______ _______ _______ _____ _____    ______ ____
ROOT
ATOM      1  C   UNL     1      44.331   4.209  11.083  0.00  0.00    +0.000 A 
ATOM      2  C   UNL     1      45.227   5.079  10.471  0.00  0.00    +0.000 A 
ATOM      3  C   UNL     1      45.388   6.363  10.991  0.00  0.00    +0.000 A 
ATOM      4  C   UNL     1      44.638   6.763  12.093  0.00  0.00    +0.000 A 
ATOM      5  N   UNL     1      44.810   7.984  12.723  0.00  0.00    +0.000 N 
ATOM      6  N   UNL     1      43.738   5.940  12.669  0.00  0.00    +0.000 NA
ATOM      7  C   UNL     1      43.596   4.690  12.154  0.00  0.00    +0.000 A 
ATOM      8  H   UNL     1      44.054   8.075  13.398  0.00  0.00    +0.000 HD
ENDROOT
BRANCH   1  10
ATOM      9  N   UNL     1      43.431   1.990  11.474  0.00  0.00    +0.000 N 
ATOM     10  C   UNL     1      44.148   2.811  10.643  0.00  0.00    +0.000 C 
ATOM     11  O   UNL     1      44.579   2.413   9.571  0.00  0.00    +0.000 OA
ATOM     12  H   UNL     1      43.208   1.069  11.112  0.00  0.00    +0.000 HD
ATOM     13  H   UNL     1      42.853   2.347  12.218  0.00  0.00    +0.000 HD
ENDBRANCH   1  10
BRANCH   5  14
ATOM     14  C   UNL     1      45.098   9.165  11.919  0.00  0.00    +0.000 C 
BRANCH  14  15
ATOM     15  C   UNL     1      46.374   9.849  12.421  0.00  0.00    +0.000 C 
BRANCH  15  16
ATOM     16  C   UNL     1      47.533   8.887  12.523  0.00  0.00    +0.000 A 
ATOM     17  C   UNL     1      48.585   8.932  11.599  0.00  0.00    +0.000 A 
ATOM     18  C   UNL     1      49.659   8.047  11.711  0.00  0.00    +0.000 A 
ATOM     19  C   UNL     1      49.694   7.100  12.738  0.00  0.00    +0.000 A 
ATOM     20  C   UNL     1      48.643   7.031  13.650  0.00  0.00    +0.000 A 
ATOM     21  C   UNL     1      47.571   7.924  13.541  0.00  0.00    +0.000 A 
BRANCH  20  22
ATOM     22  O   UNL     1      48.570   6.164  14.709  0.00  0.00    +0.000 OA
BRANCH  22  23
ATOM     23  C   UNL     1      47.438   5.273  14.812  0.00  0.00    +0.000 C 
ATOM     24  C   UNL     1      47.610   3.972  15.610  0.00  0.00    +0.000 C 
ATOM     25  O   UNL     1      47.250   3.160  14.468  0.00  0.00    +0.000 OA
ATOM     26  C   UNL     1      47.249   4.328  13.616  0.00  0.00    +0.000 C 
ENDBRANCH  22  23
ENDBRANCH  20  22
ENDBRANCH  15  16
ENDBRANCH  14  15
ENDBRANCH   5  14
TORSDOF 6
ENDMDL
