MODEL 1
REMARK VINA RESULT:    -7.564      0.000      0.000
REMARK INTER + INTRA:          -8.403
REMARK INTER:                  -9.112
REMARK INTRA:                   0.709
REMARK UNBOUND:                 0.709
REMARK  Name = 
REMARK  4 active torsions:
REMARK  status: ('A' for Active; 'I' for Inactive)
REMARK    1  A    between atoms: N_1  and  C_2
REMARK    2  A    between atoms: C_2  and  C_3
REMARK    3  A    between atoms: N_6  and  C_7
REMARK    4  A    between atoms: C_7  and  N_8
REMARK                            x       y       z     vdW  Elec       q    Type
REMARK                         _______ _______ _______ _____ _____    ______ ____
ROOT
ATOM      1  C   UNL     1      44.440   5.886  12.909  0.00  0.00    +0.000 C 
ATOM      2  C   UNL     1      45.338   4.665  13.149  0.00  0.00    +0.000 C 
ATOM      3  C   UNL     1      45.275   3.652  12.005  0.00  0.00    +0.000 C 
ATOM      4  N   UNL     1      43.908   3.237  11.648  0.00  0.00    +0.000 NA
ATOM      5  C   UNL     1      43.016   4.389  11.429  0.00  0.00    +0.000 C 
ATOM      6  C   UNL     1      43.030   5.371  12.605  0.00  0.00    +0.000 C 
ENDROOT
BRANCH   1   7
ATOM      7  C   UNL     1      44.915   6.835  11.791  0.00  0.00    +0.000 C 
BRANCH   7   8
ATOM      8  N   UNL     1      43.896   7.797  11.391  0.00  0.00    +0.000 NA
ATOM      9  H   UNL     1      43.043   7.620  11.923  0.00  0.00    +0.000 HD
ATOM     10  H   UNL     1      43.647   7.654  10.413  0.00  0.00    +0.000 HD
ENDBRANCH   7   8
ENDBRANCH   1   7
BRANCH   4  11
ATOM     11  C   UNL     1      43.983   2.350  10.461  0.00  0.00    +0.000 C 
BRANCH  11  12
ATOM     12  N   UNL     1      44.754   2.982   9.386  0.00  0.00    +0.000 N 
ATOM     13  C   UNL     1      44.744   4.329   9.112  0.00  0.00    +0.000 A 
ATOM     14  C   UNL     1      45.700   4.571   8.151  0.00  0.00    +0.000 A 
ATOM     15  C   UNL     1      46.283   3.321   7.798  0.00  0.00    +0.000 A 
ATOM     16  C   UNL     1      47.315   2.949   6.911  0.00  0.00    +0.000 A 
ATOM     17  C   UNL     1      47.644   1.596   6.766  0.00  0.00    +0.000 A 
ATOM     18  C   UNL     1      46.941   0.622   7.462  0.00  0.00    +0.000 A 
ATOM     19  C   UNL     1      45.919   0.965   8.353  0.00  0.00    +0.000 A 
ATOM     20  C   UNL     1      45.623   2.331   8.528  0.00  0.00    +0.000 A 
ENDBRANCH  11  12
ENDBRANCH   4  11
TORSDOF 4
ENDMDL
MODEL 2
REMARK VINA RESULT:    -7.217      1.413      2.227
REMARK INTER + INTRA:          -7.984
REMARK INTER:                  -7.641
REMARK INTRA:                  -0.343
REMARK UNBOUND:                 0.709
REMARK  Name = 
REMARK  4 active torsions:
REMARK  status: ('A' for Active; 'I' for Inactive)
REMARK    1  A    between atoms: N_1  and  C_2
REMARK    2  A    between atoms: C_2  and  C_3
REMARK    3  A    between atoms: N_6  and  C_7
REMARK    4  A    between atoms: C_7  and  N_8
REMARK                            x       y       z     vdW  Elec       q    Type
REMARK                         _______ _______ _______ _____ _____    ______ ____
ROOT
ATOM      1  C   UNL     1      45.425   7.260  12.477  0.00  0.00    +0.000 C 
ATOM      2  C   UNL     1      46.516   6.489  11.722  0.00  0.00    +0.000 C 
ATOM      3  C   UNL     1      46.003   5.856  10.427  0.00  0.00    +0.000 C 
ATOM      4  N   UNL     1      44.799   5.025  10.605  0.00  0.00    +0.000 NA
ATOM      5  C   UNL     1      43.739   5.733  11.344  0.00  0.00    +0.000 C 
ATOM      6  C   UNL     1      44.238   6.311  12.671  0.00  0.00    +0.000 C 
ENDROOT
BRANCH   1   7
ATOM      7  C   UNL     1      44.961   8.565  11.800  0.00  0.00    +0.000 C 
BRANCH   7   8
ATOM      8  N   UNL     1      44.704   9.638  12.751  0.00  0.00    +0.000 NA
ATOM      9  H   UNL     1      44.167   9.267  13.537  0.00  0.00    +0.000 HD
ATOM     10  H   UNL     1      44.111  10.349  12.324  0.00  0.00    +0.000 HD
ENDBRANCH   7   8
ENDBRANCH   1   7
BRANCH   4  11
ATOM     11  C   UNL     1      44.345   4.570   9.268  0.00  0.00    +0.000 C 
BRANCH  11  12
ATOM     12  N   UNL     1      44.935   3.272   8.930  0.00  0.00    +0.000 N 
ATOM     13  C   UNL     1      44.516   2.070   9.449  0.00  0.00    +0.000 A 
ATOM     14  C   UNL     1      45.188   1.067   8.787  0.00  0.00    +0.000 A 
ATOM     15  C   UNL     1      46.078   1.682   7.861  0.00  0.00    +0.000 A 
ATOM     16  C   UNL     1      46.983   1.176   6.904  0.00  0.00    +0.000 A 
ATOM     17  C   UNL     1      47.753   2.067   6.147  0.00  0.00    +0.000 A 
ATOM     18  C   UNL     1      47.657   3.435   6.358  0.00  0.00    +0.000 A 
ATOM     19  C   UNL     1      46.763   3.962   7.295  0.00  0.00    +0.000 A 
ATOM     20  C   UNL     1      45.958   3.063   8.021  0.00  0.00    +0.000 A 
ENDBRANCH  11  12
ENDBRANCH   4  11
TORSDOF 4
ENDMDL
MODEL 3
REMARK VINA RESULT:    -6.948      1.459      2.739
REMARK INTER + INTRA:          -7.660
REMARK INTER:                  -7.983
REMARK INTRA:                   0.322
REMARK UNBOUND:                 0.709
REMARK  Name = 
REMARK  4 active torsions:
REMARK  status: ('A' for Active; 'I' for Inactive)
REMARK    1  A    between atoms: N_1  and  C_2
REMARK    2  A    between atoms: C_2  and  C_3
REMARK    3  A    between atoms: N_6  and  C_7
REMARK    4  A    between atoms: C_7  and  N_8
REMARK                            x       y       z     vdW  Elec       q    Type
REMARK                         _______ _______ _______ _____ _____    ______ ____
ROOT
ATOM      1  C   UNL     1      45.225   4.577  13.221  0.00  0.00    +0.000 C 
ATOM      2  C   UNL     1      43.757   4.349  12.840  0.00  0.00    +0.000 C 
ATOM      3  C   UNL     1      43.573   4.043  11.353  0.00  0.00    +0.000 C 
ATOM      4  N   UNL     1      44.200   5.031  10.458  0.00  0.00    +0.000 NA
ATOM      5  C   UNL     1      45.608   5.285  10.810  0.00  0.00    +0.000 C 
ATOM      6  C   UNL     1      45.784   5.655  12.286  0.00  0.00    +0.000 C 
ENDROOT
BRANCH   1   7
ATOM      7  C   UNL     1      46.114   3.318  13.176  0.00  0.00    +0.000 C 
BRANCH   7   8
ATOM      8  N   UNL     1      47.301   3.430  14.015  0.00  0.00    +0.000 NA
ATOM      9  H   UNL     1      47.644   4.390  13.982  0.00  0.00    +0.000 HD
ATOM     10  H   UNL     1      48.051   2.855  13.635  0.00  0.00    +0.000 HD
ENDBRANCH   7   8
ENDBRANCH   1   7
BRANCH   4  11
ATOM     11  C   UNL     1      44.047   4.558   9.060  0.00  0.00    +0.000 C 
BRANCH  11  12
ATOM     12  N   UNL     1      44.743   3.285   8.860  0.00  0.00    +0.000 N 
ATOM     13  C   UNL     1      44.342   2.088   9.404  0.00  0.00    +0.000 A 
ATOM     14  C   UNL     1      45.137   1.096   8.874  0.00  0.00    +0.000 A 
ATOM     15  C   UNL     1      46.082   1.716   8.009  0.00  0.00    +0.000 A 
ATOM     16  C   UNL     1      47.109   1.220   7.179  0.00  0.00    +0.000 A 
ATOM     17  C   UNL     1      47.902   2.117   6.453  0.00  0.00    +0.000 A 
ATOM     18  C   UNL     1      47.706   3.486   6.572  0.00  0.00    +0.000 A 
ATOM     19  C   UNL     1      46.689   4.003   7.381  0.00  0.00    +0.000 A 
ATOM     20  C   UNL     1      45.866   3.094   8.074  0.00  0.00    +0.000 A 
ENDBRANCH  11  12
ENDBRANCH   4  11
TORSDOF 4
ENDMDL
MODEL 4
REMARK VINA RESULT:    -6.691      2.620      4.069
REMARK INTER + INTRA:          -7.351
REMARK INTER:                  -7.271
REMARK INTRA:                  -0.080
REMARK UNBOUND:                 0.709
REMARK  Name = 
REMARK  4 active torsions:
REMARK  status: ('A' for Active; 'I' for Inactive)
REMARK    1  A    between atoms: N_1  and  C_2
REMARK    2  A    between atoms: C_2  and  C_3
REMARK    3  A    between atoms: N_6  and  C_7
REMARK    4  A    between atoms: C_7  and  N_8
REMARK                            x       y       z     vdW  Elec       q    Type
REMARK                         _______ _______ _______ _____ _____    ______ ____
ROOT
ATOM      1  C   UNL     1      48.353   7.723  13.549  0.00  0.00    +0.000 C 
ATOM      2  C   UNL     1      47.928   6.250  13.484  0.00  0.00    +0.000 C 
ATOM      3  C   UNL     1      46.780   6.008  12.503  0.00  0.00    +0.000 C 
ATOM      4  N   UNL     1      45.614   6.882  12.720  0.00  0.00    +0.000 NA
ATOM      5  C   UNL     1      45.993   8.304  12.804  0.00  0.00    +0.000 C 
ATOM      6  C   UNL     1      47.098   8.554  13.835  0.00  0.00    +0.000 C 
ENDROOT
BRANCH   1   7
ATOM      7  C   UNL     1      49.068   8.251  12.289  0.00  0.00    +0.000 C 
BRANCH   7   8
ATOM      8  N   UNL     1      50.146   7.380  11.840  0.00  0.00    +0.000 NA
ATOM      9  H   UNL     1      50.836   7.936  11.333  0.00  0.00    +0.000 HD
ATOM     10  H   UNL     1      49.790   6.701  11.168  0.00  0.00    +0.000 HD
ENDBRANCH   7   8
ENDBRANCH   1   7
BRANCH   4  11
ATOM     11  C   UNL     1      44.630   6.626  11.639  0.00  0.00    +0.000 C 
BRANCH  11  12
ATOM     12  N   UNL     1      44.452   5.188  11.426  0.00  0.00    +0.000 N 
ATOM     13  C   UNL     1      43.820   4.344  12.309  0.00  0.00    +0.000 A 
ATOM     14  C   UNL     1      43.703   3.113  11.706  0.00  0.00    +0.000 A 
ATOM     15  C   UNL     1      44.322   3.197  10.426  0.00  0.00    +0.000 A 
ATOM     16  C   UNL     1      44.482   2.283   9.364  0.00  0.00    +0.000 A 
ATOM     17  C   UNL     1      45.182   2.676   8.217  0.00  0.00    +0.000 A 
ATOM     18  C   UNL     1      45.746   3.942   8.136  0.00  0.00    +0.000 A 
ATOM     19  C   UNL     1      45.595   4.869   9.171  0.00  0.00    +0.000 A 
ATOM     20  C   UNL     1      44.851   4.483  10.303  0.00  0.00    +0.000 A 
ENDBRANCH  11  12
ENDBRANCH   4  11
TORSDOF 4
ENDMDL
MODEL 5
REMARK VINA RESULT:    -6.502      3.269      6.166
REMARK INTER + INTRA:          -7.123
REMARK INTER:                  -6.765
REMARK INTRA:                  -0.358
REMARK UNBOUND:                 0.709
REMARK  Name = 
REMARK  4 active torsions:
REMARK  status: ('A' for Active; 'I' for Inactive)
REMARK    1  A    between atoms: N_1  and  C_2
REMARK    2  A    between atoms: C_2  and  C_3
REMARK    3  A    between atoms: N_6  and  C_7
REMARK    4  A    between atoms: C_7  and  N_8
REMARK                            x       y       z     vdW  Elec       q    Type
REMARK                         _______ _______ _______ _____ _____    ______ ____
ROOT
ATOM      1  C   UNL     1      43.749   4.203  10.499  0.00  0.00    +0.000 C 
ATOM      2  C   UNL     1      44.911   4.995   9.884  0.00  0.00    +0.000 C 
ATOM      3  C   UNL     1      45.744   5.733  10.933  0.00  0.00    +0.000 C 
ATOM      4  N   UNL     1      44.950   6.582  11.838  0.00  0.00    +0.000 NA
ATOM      5  C   UNL     1      43.815   5.853  12.431  0.00  0.00    +0.000 C 
ATOM      6  C   UNL     1      42.943   5.168  11.374  0.00  0.00    +0.000 C 
ENDROOT
BRANCH   1   7
ATOM      7  C   UNL     1      44.165   2.963  11.314  0.00  0.00    +0.000 C 
BRANCH   7   8
ATOM      8  N   UNL     1      43.031   2.147  11.727  0.00  0.00    +0.000 NA
ATOM      9  H   UNL     1      42.953   1.343  11.103  0.00  0.00    +0.000 HD
ATOM     10  H   UNL     1      42.164   2.671  11.610  0.00  0.00    +0.000 HD
ENDBRANCH   7   8
ENDBRANCH   1   7
BRANCH   4  11
ATOM     11  C   UNL     1      45.858   7.143  12.869  0.00  0.00    +0.000 C 
BRANCH  11  12
ATOM     12  N   UNL     1      46.515   8.358  12.380  0.00  0.00    +0.000 N 
ATOM     13  C   UNL     1      45.894   9.577  12.249  0.00  0.00    +0.000 A 
ATOM     14  C   UNL     1      46.855  10.506  11.919  0.00  0.00    +0.000 A 
ATOM     15  C   UNL     1      48.098   9.821  11.804  0.00  0.00    +0.000 A 
ATOM     16  C   UNL     1      49.415  10.242  11.525  0.00  0.00    +0.000 A 
ATOM     17  C   UNL     1      50.441   9.292  11.455  0.00  0.00    +0.000 A 
ATOM     18  C   UNL     1      50.163   7.943  11.623  0.00  0.00    +0.000 A 
ATOM     19  C   UNL     1      48.868   7.500  11.908  0.00  0.00    +0.000 A 
ATOM     20  C   UNL     1      47.848   8.465  12.022  0.00  0.00    +0.000 A 
ENDBRANCH  11  12
ENDBRANCH   4  11
TORSDOF 4
ENDMDL
MODEL 6
REMARK VINA RESULT:    -6.169      3.903      6.207
REMARK INTER + INTRA:          -6.721
REMARK INTER:                  -6.438
REMARK INTRA:                  -0.283
REMARK UNBOUND:                 0.709
REMARK  Name = 
REMARK  4 active torsions:
REMARK  status: ('A' for Active; 'I' for Inactive)
REMARK    1  A    between atoms: N_1  and  C_2
REMARK    2  A    between atoms: C_2  and  C_3
REMARK    3  A    between atoms: N_6  and  C_7
REMARK    4  A    between atoms: C_7  and  N_8
REMARK                            x       y       z     vdW  Elec       q    Type
REMARK                         _______ _______ _______ _____ _____    ______ ____
ROOT
ATOM      1  C   UNL     1      48.594   4.015  17.680  0.00  0.00    +0.000 C 
ATOM      2  C   UNL     1      47.532   3.257  16.872  0.00  0.00    +0.000 C 
ATOM      3  C   UNL     1      47.545   3.624  15.387  0.00  0.00    +0.000 C 
ATOM      4  N   UNL     1      47.467   5.072  15.129  0.00  0.00    +0.000 NA
ATOM      5  C   UNL     1      48.464   5.830  15.905  0.00  0.00    +0.000 C 
ATOM      6  C   UNL     1      48.406   5.510  17.402  0.00  0.00    +0.000 C 
ENDROOT
BRANCH   1   7
ATOM      7  C   UNL     1      50.050   3.597  17.396  0.00  0.00    +0.000 C 
BRANCH   7   8
ATOM      8  N   UNL     1      50.163   2.234  16.894  0.00  0.00    +0.000 NA
ATOM      9  H   UNL     1      49.458   2.085  16.171  0.00  0.00    +0.000 HD
ATOM     10  H   UNL     1      49.943   1.570  17.635  0.00  0.00    +0.000 HD
ENDBRANCH   7   8
ENDBRANCH   1   7
BRANCH   4  11
ATOM     11  C   UNL     1      47.605   5.294  13.668  0.00  0.00    +0.000 C 
BRANCH  11  12
ATOM     12  N   UNL     1      46.361   5.822  13.101  0.00  0.00    +0.000 N 
ATOM     13  C   UNL     1      46.102   7.158  12.910  0.00  0.00    +0.000 A 
ATOM     14  C   UNL     1      44.917   7.263  12.217  0.00  0.00    +0.000 A 
ATOM     15  C   UNL     1      44.416   5.945  12.016  0.00  0.00    +0.000 A 
ATOM     16  C   UNL     1      43.280   5.430  11.357  0.00  0.00    +0.000 A 
ATOM     17  C   UNL     1      43.050   4.048  11.361  0.00  0.00    +0.000 A 
ATOM     18  C   UNL     1      43.910   3.193  12.036  0.00  0.00    +0.000 A 
ATOM     19  C   UNL     1      45.047   3.679  12.690  0.00  0.00    +0.000 A 
ATOM     20  C   UNL     1      45.297   5.064  12.644  0.00  0.00    +0.000 A 
ENDBRANCH  11  12
ENDBRANCH   4  11
TORSDOF 4
ENDMDL
MODEL 7
REMARK VINA RESULT:    -5.903      3.664      6.457
REMARK INTER + INTRA:          -6.401
REMARK INTER:                  -6.386
REMARK INTRA:                  -0.015
REMARK UNBOUND:                 0.709
REMARK  Name = 
REMARK  4 active torsions:
REMARK  status: ('A' for Active; 'I' for Inactive)
REMARK    1  A    between atoms: N_1  and  C_2
REMARK    2  A    between atoms: C_2  and  C_3
REMARK    3  A    between atoms: N_6  and  C_7
REMARK    4  A    between atoms: C_7  and  N_8
REMARK                            x       y       z     vdW  Elec       q    Type
REMARK                         _______ _______ _______ _____ _____    ______ ____
ROOT
ATOM      1  C   UNL     1      44.421   4.017  11.114  0.00  0.00    +0.000 C 
ATOM      2  C   UNL     1      45.242   3.574  12.332  0.00  0.00    +0.000 C 
ATOM      3  C   UNL     1      45.777   4.755  13.145  0.00  0.00    +0.000 C 
ATOM      4  N   UNL     1      46.517   5.745  12.344  0.00  0.00    +0.000 NA
ATOM      5  C   UNL     1      45.760   6.177  11.155  0.00  0.00    +0.000 C 
ATOM      6  C   UNL     1      45.280   4.996  10.307  0.00  0.00    +0.000 C 
ENDROOT
BRANCH   1   7
ATOM      7  C   UNL     1      43.055   4.652  11.444  0.00  0.00    +0.000 C 
BRANCH   7   8
ATOM      8  N   UNL     1      42.798   5.871  10.688  0.00  0.00    +0.000 NA
ATOM      9  H   UNL     1      43.369   6.627  11.068  0.00  0.00    +0.000 HD
ATOM     10  H   UNL     1      41.830   6.164  10.818  0.00  0.00    +0.000 HD
ENDBRANCH   7   8
ENDBRANCH   1   7
BRANCH   4  11
ATOM     11  C   UNL     1      46.877   6.883  13.225  0.00  0.00    +0.000 C 
BRANCH  11  12
ATOM     12  N   UNL     1      48.056   7.587  12.713  0.00  0.00    +0.000 N 
ATOM     13  C   UNL     1      49.315   7.039  12.638  0.00  0.00    +0.000 A 
ATOM     14  C   UNL     1      50.122   7.928  11.964  0.00  0.00    +0.000 A 
ATOM     15  C   UNL     1      49.338   9.075  11.655  0.00  0.00    +0.000 A 
ATOM     16  C   UNL     1      49.605  10.273  10.961  0.00  0.00    +0.000 A 
ATOM     17  C   UNL     1      48.601  11.242  10.848  0.00  0.00    +0.000 A 
ATOM     18  C   UNL     1      47.362  11.044  11.441  0.00  0.00    +0.000 A 
ATOM     19  C   UNL     1      47.069   9.861  12.128  0.00  0.00    +0.000 A 
ATOM     20  C   UNL     1      48.069   8.872  12.199  0.00  0.00    +0.000 A 
ENDBRANCH  11  12
ENDBRANCH   4  11
TORSDOF 4
ENDMDL
MODEL 8
REMARK VINA RESULT:    -5.833      3.459      6.901
REMARK INTER + INTRA:          -6.318
REMARK INTER:                  -5.923
REMARK INTRA:                  -0.394
REMARK UNBOUND:                 0.709
REMARK  Name = 
REMARK  4 active torsions:
REMARK  status: ('A' for Active; 'I' for Inactive)
REMARK    1  A    between atoms: N_1  and  C_2
REMARK    2  A    between atoms: C_2  and  C_3
REMARK    3  A    between atoms: N_6  and  C_7
REMARK    4  A    between atoms: C_7  and  N_8
REMARK                            x       y       z     vdW  Elec       q    Type
REMARK                         _______ _______ _______ _____ _____    ______ ____
ROOT
ATOM      1  C   UNL     1      43.086   4.656  11.816  0.00  0.00    +0.000 C 
ATOM      2  C   UNL     1      43.608   5.955  11.189  0.00  0.00    +0.000 C 
ATOM      3  C   UNL     1      45.130   6.085  11.280  0.00  0.00    +0.000 C 
ATOM      4  N   UNL     1      45.664   5.906  12.641  0.00  0.00    +0.000 NA
ATOM      5  C   UNL     1      45.165   4.674  13.278  0.00  0.00    +0.000 C 
ATOM      6  C   UNL     1      43.637   4.576  13.244  0.00  0.00    +0.000 C 
ENDROOT
BRANCH   1   7
ATOM      7  C   UNL     1      43.431   3.371  11.038  0.00  0.00    +0.000 C 
BRANCH   7   8
ATOM      8  N   UNL     1      43.040   2.157  11.743  0.00  0.00    +0.000 NA
ATOM      9  H   UNL     1      43.119   1.362  11.108  0.00  0.00    +0.000 HD
ATOM     10  H   UNL     1      42.057   2.206  12.003  0.00  0.00    +0.000 HD
ENDBRANCH   7   8
ENDBRANCH   1   7
BRANCH   4  11
ATOM     11  C   UNL     1      47.146   5.941  12.570  0.00  0.00    +0.000 C 
BRANCH  11  12
ATOM     12  N   UNL     1      47.690   6.934  13.500  0.00  0.00    +0.000 N 
ATOM     13  C   UNL     1      48.214   6.635  14.735  0.00  0.00    +0.000 A 
ATOM     14  C   UNL     1      48.767   7.787  15.248  0.00  0.00    +0.000 A 
ATOM     15  C   UNL     1      48.535   8.833  14.311  0.00  0.00    +0.000 A 
ATOM     16  C   UNL     1      48.889  10.197  14.273  0.00  0.00    +0.000 A 
ATOM     17  C   UNL     1      48.476  10.987  13.193  0.00  0.00    +0.000 A 
ATOM     18  C   UNL     1      47.694  10.444  12.183  0.00  0.00    +0.000 A 
ATOM     19  C   UNL     1      47.336   9.092  12.193  0.00  0.00    +0.000 A 
ATOM     20  C   UNL     1      47.793   8.293  13.259  0.00  0.00    +0.000 A 
ENDBRANCH  11  12
ENDBRANCH   4  11
TORSDOF 4
ENDMDL
MODEL 9
REMARK VINA RESULT:    -5.814      2.859      6.632
REMARK INTER + INTRA:          -6.294
REMARK INTER:                  -5.939
REMARK INTRA:                  -0.354
REMARK UNBOUND:                 0.709
REMARK  Name = 
REMARK  4 active torsions:
REMARK  status: ('A' for Active; 'I' for Inactive)
REMARK    1  A    between atoms: N_1  and  C_2
REMARK    2  A    between atoms: C_2  and  C_3
REMARK    3  A    between atoms: N_6  and  C_7
REMARK    4  A    between atoms: C_7  and  N_8
REMARK                            x       y       z     vdW  Elec       q    Type
REMARK                         _______ _______ _______ _____ _____    ______ ____
ROOT
ATOM      1  C   UNL     1      44.935   3.448  10.956  0.00  0.00    +0.000 C 
ATOM      2  C   UNL     1      45.680   3.473  12.297  0.00  0.00    +0.000 C 
ATOM      3  C   UNL     1      45.415   4.750  13.096  0.00  0.00    +0.000 C 
ATOM      4  N   UNL     1      45.655   5.990  12.338  0.00  0.00    +0.000 NA
ATOM      5  C   UNL     1      44.965   5.988  11.035  0.00  0.00    +0.000 C 
ATOM      6  C   UNL     1      45.283   4.739  10.208  0.00  0.00    +0.000 C 
ENDROOT
BRANCH   1   7
ATOM      7  C   UNL     1      43.406   3.288  11.062  0.00  0.00    +0.000 C 
BRANCH   7   8
ATOM      8  N   UNL     1      43.008   2.062  11.743  0.00  0.00    +0.000 NA
ATOM      9  H   UNL     1      42.021   2.126  11.995  0.00  0.00    +0.000 HD
ATOM     10  H   UNL     1      43.513   1.972  12.623  0.00  0.00    +0.000 HD
ENDBRANCH   7   8
ENDBRANCH   1   7
BRANCH   4  11
ATOM     11  C   UNL     1      45.252   7.140  13.185  0.00  0.00    +0.000 C 
BRANCH  11  12
ATOM     12  N   UNL     1      46.032   8.334  12.848  0.00  0.00    +0.000 N 
ATOM     13  C   UNL     1      47.315   8.570  13.281  0.00  0.00    +0.000 A 
ATOM     14  C   UNL     1      47.775   9.699  12.640  0.00  0.00    +0.000 A 
ATOM     15  C   UNL     1      46.720  10.191  11.821  0.00  0.00    +0.000 A 
ATOM     16  C   UNL     1      46.613  11.276  10.927  0.00  0.00    +0.000 A 
ATOM     17  C   UNL     1      45.396  11.515  10.276  0.00  0.00    +0.000 A 
ATOM     18  C   UNL     1      44.292  10.713  10.532  0.00  0.00    +0.000 A 
ATOM     19  C   UNL     1      44.375   9.626  11.408  0.00  0.00    +0.000 A 
ATOM     20  C   UNL     1      45.614   9.365  12.025  0.00  0.00    +0.000 A 
ENDBRANCH  11  12
ENDBRANCH   4  11
TORSDOF 4
ENDMDL
