MODEL 1
REMARK VINA RESULT:    -9.086      0.000      0.000
REMARK INTER + INTRA:         -12.490
REMARK INTER:                 -12.274
REMARK INTRA:                  -0.216
REMARK UNBOUND:                -0.216
REMARK  Name = 
REMARK  7 active torsions:
REMARK  status: ('A' for Active; 'I' for Inactive)
REMARK    1  A    between atoms: C_1  and  C_2
REMARK    2  A    between atoms: C_2  and  N_3
REMARK    3  A    between atoms: C_2  and  C_16
REMARK    4  A    between atoms: C_4  and  C_6
REMARK    5  A    between atoms: C_19  and  O_20
REMARK    6  A    between atoms: O_20  and  C_21
REMARK    7  A    between atoms: C_21  and  C_22
REMARK                            x       y       z     vdW  Elec       q    Type
REMARK                         _______ _______ _______ _____ _____    ______ ____
ROOT
ATOM      1  C   UNL     1      47.739   8.679  12.168  0.00  0.00    +0.000 C 
ATOM      2  C   UNL     1      46.642   8.003  12.993  0.00  0.00    +0.000 C 
ENDROOT
BRANCH   2   3
ATOM      3  C   UNL     1      45.984   6.881  12.196  0.00  0.00    +0.000 A 
ATOM      4  N   UNL     1      46.390   6.676  10.926  0.00  0.00    +0.000 NA
ATOM      5  C   UNL     1      45.796   5.659  10.262  0.00  0.00    +0.000 A 
ATOM      6  C   UNL     1      44.838   4.837  10.812  0.00  0.00    +0.000 A 
ATOM      7  C   UNL     1      44.445   5.182  12.086  0.00  0.00    +0.000 A 
ATOM      8  N   UNL     1      44.990   6.190  12.793  0.00  0.00    +0.000 NA
BRANCH   6   9
ATOM      9  O   UNL     1      44.376   3.790  10.079  0.00  0.00    +0.000 OA
BRANCH   9  10
ATOM     10  C   UNL     1      44.444   3.987   8.659  0.00  0.00    +0.000 C 
BRANCH  10  11
ATOM     11  C   UNL     1      45.507   3.112   8.054  0.00  0.00    +0.000 A 
ATOM     12  C   UNL     1      46.556   3.635   7.287  0.00  0.00    +0.000 A 
ATOM     13  C   UNL     1      47.566   2.800   6.804  0.00  0.00    +0.000 A 
ATOM     14  C   UNL     1      47.546   1.436   7.098  0.00  0.00    +0.000 A 
ATOM     15  C   UNL     1      46.517   0.907   7.874  0.00  0.00    +0.000 A 
ATOM     16  C   UNL     1      45.513   1.746   8.348  0.00  0.00    +0.000 A 
ATOM     17  F   UNL     1      44.545   1.225   9.116  0.00  0.00    +0.000 F 
ENDBRANCH  10  11
ENDBRANCH   9  10
ENDBRANCH   6   9
ENDBRANCH   2   3
BRANCH   2  18
ATOM     18  N   UNL     1      47.182   7.486  14.243  0.00  0.00    +0.000 N 
ATOM     19  C   UNL     1      48.220   6.600  14.293  0.00  0.00    +0.000 C 
ATOM     20  O   UNL     1      48.738   6.138  13.280  0.00  0.00    +0.000 OA
ATOM     21  H   UNL     1      46.676   7.737  15.087  0.00  0.00    +0.000 HD
BRANCH  19  22
ATOM     22  C   UNL     1      48.734   6.276  15.631  0.00  0.00    +0.000 A 
ATOM     23  C   UNL     1      49.639   7.132  16.244  0.00  0.00    +0.000 A 
ATOM     24  S   UNL     1      50.110   6.628  17.802  0.00  0.00    +0.000 S 
ATOM     25  C   UNL     1      49.158   5.222  17.694  0.00  0.00    +0.000 A 
ATOM     26  N   UNL     1      49.137   4.313  18.706  0.00  0.00    +0.000 NA
ATOM     27  C   UNL     1      48.400   3.277  18.478  0.00  0.00    +0.000 A 
ATOM     28  N   UNL     1      47.674   3.074  17.334  0.00  0.00    +0.000 N 
ATOM     29  C   UNL     1      47.622   3.988  16.309  0.00  0.00    +0.000 A 
ATOM     30  O   UNL     1      46.891   3.818  15.341  0.00  0.00    +0.000 OA
ATOM     31  C   UNL     1      48.464   5.155  16.499  0.00  0.00    +0.000 A 
ATOM     32  H   UNL     1      47.099   2.251  17.225  0.00  0.00    +0.000 HD
ENDBRANCH  19  22
ENDBRANCH   2  18
TORSDOF 6
ENDMDL
MODEL 2
REMARK VINA RESULT:    -8.491      2.847      4.218
REMARK INTER + INTRA:         -11.686
REMARK INTER:                 -10.576
REMARK INTRA:                  -1.110
REMARK UNBOUND:                -0.216
REMARK  Name = 
REMARK  7 active torsions:
REMARK  status: ('A' for Active; 'I' for Inactive)
REMARK    1  A    between atoms: C_1  and  C_2
REMARK    2  A    between atoms: C_2  and  N_3
REMARK    3  A    between atoms: C_2  and  C_16
REMARK    4  A    between atoms: C_4  and  C_6
REMARK    5  A    between atoms: C_19  and  O_20
REMARK    6  A    between atoms: O_20  and  C_21
REMARK    7  A    between atoms: C_21  and  C_22
REMARK                            x       y       z     vdW  Elec       q    Type
REMARK                         _______ _______ _______ _____ _____    ______ ____
ROOT
ATOM      1  C   UNL     1      47.434   3.293  16.505  0.00  0.00    +0.000 C 
ATOM      2  C   UNL     1      47.908   4.662  16.013  0.00  0.00    +0.000 C 
ENDROOT
BRANCH   2   3
ATOM      3  C   UNL     1      47.252   5.012  14.682  0.00  0.00    +0.000 A 
ATOM      4  N   UNL     1      46.075   4.428  14.375  0.00  0.00    +0.000 NA
ATOM      5  C   UNL     1      45.519   4.781  13.195  0.00  0.00    +0.000 A 
ATOM      6  C   UNL     1      46.071   5.694  12.326  0.00  0.00    +0.000 A 
ATOM      7  C   UNL     1      47.307   6.172  12.702  0.00  0.00    +0.000 A 
ATOM      8  N   UNL     1      47.918   5.848  13.856  0.00  0.00    +0.000 NA
BRANCH   6   9
ATOM      9  O   UNL     1      45.376   6.038  11.210  0.00  0.00    +0.000 OA
BRANCH   9  10
ATOM     10  C   UNL     1      44.402   5.069  10.797  0.00  0.00    +0.000 C 
BRANCH  10  11
ATOM     11  C   UNL     1      44.947   4.209   9.690  0.00  0.00    +0.000 A 
ATOM     12  C   UNL     1      45.776   4.724   8.685  0.00  0.00    +0.000 A 
ATOM     13  C   UNL     1      46.323   3.880   7.716  0.00  0.00    +0.000 A 
ATOM     14  C   UNL     1      46.061   2.510   7.754  0.00  0.00    +0.000 A 
ATOM     15  C   UNL     1      45.253   1.984   8.759  0.00  0.00    +0.000 A 
ATOM     16  C   UNL     1      44.709   2.832   9.718  0.00  0.00    +0.000 A 
ATOM     17  F   UNL     1      43.955   2.307  10.694  0.00  0.00    +0.000 F 
ENDBRANCH  10  11
ENDBRANCH   9  10
ENDBRANCH   6   9
ENDBRANCH   2   3
BRANCH   2  18
ATOM     18  N   UNL     1      47.624   5.692  17.003  0.00  0.00    +0.000 N 
ATOM     19  C   UNL     1      48.524   6.073  17.956  0.00  0.00    +0.000 C 
ATOM     20  O   UNL     1      49.622   5.535  18.075  0.00  0.00    +0.000 OA
ATOM     21  H   UNL     1      46.673   6.046  17.020  0.00  0.00    +0.000 HD
BRANCH  19  22
ATOM     22  C   UNL     1      48.137   7.213  18.798  0.00  0.00    +0.000 A 
ATOM     23  C   UNL     1      47.881   7.014  20.148  0.00  0.00    +0.000 A 
ATOM     24  S   UNL     1      47.477   8.442  20.986  0.00  0.00    +0.000 S 
ATOM     25  C   UNL     1      47.583   9.371  19.564  0.00  0.00    +0.000 A 
ATOM     26  N   UNL     1      47.314  10.704  19.579  0.00  0.00    +0.000 NA
ATOM     27  C   UNL     1      47.399  11.279  18.426  0.00  0.00    +0.000 A 
ATOM     28  N   UNL     1      47.739  10.642  17.261  0.00  0.00    +0.000 N 
ATOM     29  C   UNL     1      48.070   9.310  17.207  0.00  0.00    +0.000 A 
ATOM     30  O   UNL     1      48.459   8.793  16.166  0.00  0.00    +0.000 OA
ATOM     31  C   UNL     1      47.954   8.607  18.472  0.00  0.00    +0.000 A 
ATOM     32  H   UNL     1      47.809  11.154  16.394  0.00  0.00    +0.000 HD
ENDBRANCH  19  22
ENDBRANCH   2  18
TORSDOF 6
ENDMDL
MODEL 3
REMARK VINA RESULT:    -8.326      2.490      3.175
REMARK INTER + INTRA:         -11.463
REMARK INTER:                 -10.308
REMARK INTRA:                  -1.155
REMARK UNBOUND:                -0.216
REMARK  Name = 
REMARK  7 active torsions:
REMARK  status: ('A' for Active; 'I' for Inactive)
REMARK    1  A    between atoms: C_1  and  C_2
REMARK    2  A    between atoms: C_2  and  N_3
REMARK    3  A    between atoms: C_2  and  C_16
REMARK    4  A    between atoms: C_4  and  C_6
REMARK    5  A    between atoms: C_19  and  O_20
REMARK    6  A    between atoms: O_20  and  C_21
REMARK    7  A    between atoms: C_21  and  C_22
REMARK                            x       y       z     vdW  Elec       q    Type
REMARK                         _______ _______ _______ _____ _____    ______ ____
ROOT
ATOM      1  C   UNL     1      47.508   3.328  15.773  0.00  0.00    +0.000 C 
ATOM      2  C   UNL     1      47.875   4.633  15.062  0.00  0.00    +0.000 C 
ENDROOT
BRANCH   2   3
ATOM      3  C   UNL     1      46.959   4.871  13.868  0.00  0.00    +0.000 A 
ATOM      4  N   UNL     1      47.177   5.959  13.100  0.00  0.00    +0.000 NA
ATOM      5  C   UNL     1      46.354   6.122  12.040  0.00  0.00    +0.000 A 
ATOM      6  C   UNL     1      45.346   5.245  11.706  0.00  0.00    +0.000 A 
ATOM      7  C   UNL     1      45.164   4.211  12.597  0.00  0.00    +0.000 A 
ATOM      8  N   UNL     1      45.941   4.004  13.676  0.00  0.00    +0.000 NA
BRANCH   6   9
ATOM      9  O   UNL     1      44.641   5.463  10.565  0.00  0.00    +0.000 OA
BRANCH   9  10
ATOM     10  C   UNL     1      44.040   4.287  10.006  0.00  0.00    +0.000 C 
BRANCH  10  11
ATOM     11  C   UNL     1      44.973   3.630   9.027  0.00  0.00    +0.000 A 
ATOM     12  C   UNL     1      45.817   4.369   8.189  0.00  0.00    +0.000 A 
ATOM     13  C   UNL     1      46.723   3.723   7.345  0.00  0.00    +0.000 A 
ATOM     14  C   UNL     1      46.807   2.330   7.345  0.00  0.00    +0.000 A 
ATOM     15  C   UNL     1      45.985   1.584   8.187  0.00  0.00    +0.000 A 
ATOM     16  C   UNL     1      45.082   2.236   9.021  0.00  0.00    +0.000 A 
ATOM     17  F   UNL     1      44.317   1.505   9.844  0.00  0.00    +0.000 F 
ENDBRANCH  10  11
ENDBRANCH   9  10
ENDBRANCH   6   9
ENDBRANCH   2   3
BRANCH   2  18
ATOM     18  N   UNL     1      47.808   5.758  15.985  0.00  0.00    +0.000 N 
ATOM     19  C   UNL     1      48.847   6.621  16.179  0.00  0.00    +0.000 C 
ATOM     20  O   UNL     1      49.934   6.477  15.624  0.00  0.00    +0.000 OA
ATOM     21  H   UNL     1      46.976   5.812  16.565  0.00  0.00    +0.000 HD
BRANCH  19  22
ATOM     22  C   UNL     1      48.578   7.779  17.043  0.00  0.00    +0.000 A 
ATOM     23  C   UNL     1      48.760   9.062  16.546  0.00  0.00    +0.000 A 
ATOM     24  S   UNL     1      48.373  10.290  17.663  0.00  0.00    +0.000 S 
ATOM     25  C   UNL     1      47.994   9.150  18.868  0.00  0.00    +0.000 A 
ATOM     26  N   UNL     1      47.614   9.548  20.112  0.00  0.00    +0.000 NA
ATOM     27  C   UNL     1      47.390   8.580  20.936  0.00  0.00    +0.000 A 
ATOM     28  N   UNL     1      47.501   7.249  20.626  0.00  0.00    +0.000 N 
ATOM     29  C   UNL     1      47.829   6.801  19.369  0.00  0.00    +0.000 A 
ATOM     30  O   UNL     1      47.830   5.604  19.101  0.00  0.00    +0.000 OA
ATOM     31  C   UNL     1      48.129   7.850  18.413  0.00  0.00    +0.000 A 
ATOM     32  H   UNL     1      47.291   6.539  21.312  0.00  0.00    +0.000 HD
ENDBRANCH  19  22
ENDBRANCH   2  18
TORSDOF 6
ENDMDL
MODEL 4
REMARK VINA RESULT:    -8.192      1.787      2.117
REMARK INTER + INTRA:         -11.282
REMARK INTER:                 -10.425
REMARK INTRA:                  -0.856
REMARK UNBOUND:                -0.216
REMARK  Name = 
REMARK  7 active torsions:
REMARK  status: ('A' for Active; 'I' for Inactive)
REMARK    1  A    between atoms: C_1  and  C_2
REMARK    2  A    between atoms: C_2  and  N_3
REMARK    3  A    between atoms: C_2  and  C_16
REMARK    4  A    between atoms: C_4  and  C_6
REMARK    5  A    between atoms: C_19  and  O_20
REMARK    6  A    between atoms: O_20  and  C_21
REMARK    7  A    between atoms: C_21  and  C_22
REMARK                            x       y       z     vdW  Elec       q    Type
REMARK                         _______ _______ _______ _____ _____    ______ ____
ROOT
ATOM      1  C   UNL     1      49.266   7.031  12.718  0.00  0.00    +0.000 C 
ATOM      2  C   UNL     1      47.886   7.199  13.358  0.00  0.00    +0.000 C 
ENDROOT
BRANCH   2   3
ATOM      3  C   UNL     1      46.893   6.209  12.761  0.00  0.00    +0.000 A 
ATOM      4  N   UNL     1      46.132   6.613  11.723  0.00  0.00    +0.000 NA
ATOM      5  C   UNL     1      45.278   5.698  11.211  0.00  0.00    +0.000 A 
ATOM      6  C   UNL     1      45.167   4.406  11.674  0.00  0.00    +0.000 A 
ATOM      7  C   UNL     1      45.934   4.124  12.782  0.00  0.00    +0.000 A 
ATOM      8  N   UNL     1      46.792   4.995  13.344  0.00  0.00    +0.000 NA
BRANCH   6   9
ATOM      9  O   UNL     1      44.339   3.548  11.022  0.00  0.00    +0.000 OA
BRANCH   9  10
ATOM     10  C   UNL     1      44.195   3.815   9.620  0.00  0.00    +0.000 C 
BRANCH  10  11
ATOM     11  C   UNL     1      45.251   3.089   8.832  0.00  0.00    +0.000 A 
ATOM     12  C   UNL     1      45.325   1.691   8.794  0.00  0.00    +0.000 A 
ATOM     13  C   UNL     1      46.273   1.053   7.992  0.00  0.00    +0.000 A 
ATOM     14  C   UNL     1      47.145   1.806   7.205  0.00  0.00    +0.000 A 
ATOM     15  C   UNL     1      47.070   3.197   7.221  0.00  0.00    +0.000 A 
ATOM     16  C   UNL     1      46.125   3.825   8.026  0.00  0.00    +0.000 A 
ATOM     17  F   UNL     1      46.047   5.164   8.010  0.00  0.00    +0.000 F 
ENDBRANCH  10  11
ENDBRANCH   9  10
ENDBRANCH   6   9
ENDBRANCH   2   3
BRANCH   2  18
ATOM     18  N   UNL     1      47.965   7.030  14.803  0.00  0.00    +0.000 N 
ATOM     19  C   UNL     1      48.655   7.884  15.613  0.00  0.00    +0.000 C 
ATOM     20  O   UNL     1      49.302   8.831  15.171  0.00  0.00    +0.000 OA
ATOM     21  H   UNL     1      47.565   6.174  15.175  0.00  0.00    +0.000 HD
BRANCH  19  22
ATOM     22  C   UNL     1      48.531   7.652  17.059  0.00  0.00    +0.000 A 
ATOM     23  C   UNL     1      48.283   8.723  17.906  0.00  0.00    +0.000 A 
ATOM     24  S   UNL     1      48.134   8.278  19.545  0.00  0.00    +0.000 S 
ATOM     25  C   UNL     1      48.443   6.644  19.186  0.00  0.00    +0.000 A 
ATOM     26  N   UNL     1      48.495   5.710  20.173  0.00  0.00    +0.000 NA
ATOM     27  C   UNL     1      48.772   4.517  19.765  0.00  0.00    +0.000 A 
ATOM     28  N   UNL     1      48.991   4.171  18.456  0.00  0.00    +0.000 N 
ATOM     29  C   UNL     1      48.896   5.070  17.421  0.00  0.00    +0.000 A 
ATOM     30  O   UNL     1      49.007   4.711  16.255  0.00  0.00    +0.000 OA
ATOM     31  C   UNL     1      48.624   6.436  17.830  0.00  0.00    +0.000 A 
ATOM     32  H   UNL     1      49.182   3.215  18.199  0.00  0.00    +0.000 HD
ENDBRANCH  19  22
ENDBRANCH   2  18
TORSDOF 6
ENDMDL
MODEL 5
REMARK VINA RESULT:    -7.750      2.286      2.745
REMARK INTER + INTRA:         -10.684
REMARK INTER:                  -9.991
REMARK INTRA:                  -0.694
REMARK UNBOUND:                -0.216
REMARK  Name = 
REMARK  7 active torsions:
REMARK  status: ('A' for Active; 'I' for Inactive)
REMARK    1  A    between atoms: C_1  and  C_2
REMARK    2  A    between atoms: C_2  and  N_3
REMARK    3  A    between atoms: C_2  and  C_16
REMARK    4  A    between atoms: C_4  and  C_6
REMARK    5  A    between atoms: C_19  and  O_20
REMARK    6  A    between atoms: O_20  and  C_21
REMARK    7  A    between atoms: C_21  and  C_22
REMARK                            x       y       z     vdW  Elec       q    Type
REMARK                         _______ _______ _______ _____ _____    ______ ____
ROOT
ATOM      1  C   UNL     1      45.764   9.067  12.967  0.00  0.00    +0.000 C 
ATOM      2  C   UNL     1      46.328   7.753  13.513  0.00  0.00    +0.000 C 
ENDROOT
BRANCH   2   3
ATOM      3  C   UNL     1      45.862   6.575  12.665  0.00  0.00    +0.000 A 
ATOM      4  N   UNL     1      45.680   6.771  11.343  0.00  0.00    +0.000 NA
ATOM      5  C   UNL     1      45.286   5.695  10.625  0.00  0.00    +0.000 A 
ATOM      6  C   UNL     1      45.086   4.443  11.161  0.00  0.00    +0.000 A 
ATOM      7  C   UNL     1      45.228   4.373  12.529  0.00  0.00    +0.000 A 
ATOM      8  N   UNL     1      45.605   5.411  13.299  0.00  0.00    +0.000 NA
BRANCH   6   9
ATOM      9  O   UNL     1      44.779   3.416  10.326  0.00  0.00    +0.000 OA
BRANCH   9  10
ATOM     10  C   UNL     1      44.694   3.783   8.942  0.00  0.00    +0.000 C 
BRANCH  10  11
ATOM     11  C   UNL     1      45.724   3.043   8.134  0.00  0.00    +0.000 A 
ATOM     12  C   UNL     1      46.698   3.707   7.378  0.00  0.00    +0.000 A 
ATOM     13  C   UNL     1      47.683   2.986   6.700  0.00  0.00    +0.000 A 
ATOM     14  C   UNL     1      47.715   1.594   6.786  0.00  0.00    +0.000 A 
ATOM     15  C   UNL     1      46.762   0.923   7.549  0.00  0.00    +0.000 A 
ATOM     16  C   UNL     1      45.782   1.649   8.218  0.00  0.00    +0.000 A 
ATOM     17  F   UNL     1      44.888   0.990   8.970  0.00  0.00    +0.000 F 
ENDBRANCH  10  11
ENDBRANCH   9  10
ENDBRANCH   6   9
ENDBRANCH   2   3
BRANCH   2  18
ATOM     18  N   UNL     1      47.783   7.798  13.562  0.00  0.00    +0.000 N 
ATOM     19  C   UNL     1      48.473   8.367  14.594  0.00  0.00    +0.000 C 
ATOM     20  O   UNL     1      47.910   8.926  15.532  0.00  0.00    +0.000 OA
ATOM     21  H   UNL     1      48.269   7.477  12.731  0.00  0.00    +0.000 HD
BRANCH  19  22
ATOM     22  C   UNL     1      49.934   8.217  14.560  0.00  0.00    +0.000 A 
ATOM     23  C   UNL     1      50.671   8.896  13.599  0.00  0.00    +0.000 A 
ATOM     24  S   UNL     1      52.352   8.639  13.718  0.00  0.00    +0.000 S 
ATOM     25  C   UNL     1      52.151   7.573  15.029  0.00  0.00    +0.000 A 
ATOM     26  N   UNL     1      53.222   6.956  15.598  0.00  0.00    +0.000 NA
ATOM     27  C   UNL     1      52.923   6.147  16.559  0.00  0.00    +0.000 A 
ATOM     28  N   UNL     1      51.651   5.908  17.010  0.00  0.00    +0.000 N 
ATOM     29  C   UNL     1      50.546   6.548  16.502  0.00  0.00    +0.000 A 
ATOM     30  O   UNL     1      49.434   6.380  16.989  0.00  0.00    +0.000 OA
ATOM     31  C   UNL     1      50.823   7.441  15.391  0.00  0.00    +0.000 A 
ATOM     32  H   UNL     1      51.485   5.279  17.781  0.00  0.00    +0.000 HD
ENDBRANCH  19  22
ENDBRANCH   2  18
TORSDOF 6
ENDMDL
MODEL 6
REMARK VINA RESULT:    -7.545      2.425      3.468
REMARK INTER + INTRA:         -10.408
REMARK INTER:                  -9.477
REMARK INTRA:                  -0.932
REMARK UNBOUND:                -0.216
REMARK  Name = 
REMARK  7 active torsions:
REMARK  status: ('A' for Active; 'I' for Inactive)
REMARK    1  A    between atoms: C_1  and  C_2
REMARK    2  A    between atoms: C_2  and  N_3
REMARK    3  A    between atoms: C_2  and  C_16
REMARK    4  A    between atoms: C_4  and  C_6
REMARK    5  A    between atoms: C_19  and  O_20
REMARK    6  A    between atoms: O_20  and  C_21
REMARK    7  A    between atoms: C_21  and  C_22
REMARK                            x       y       z     vdW  Elec       q    Type
REMARK                         _______ _______ _______ _____ _____    ______ ____
ROOT
ATOM      1  C   UNL     1      49.176   9.372  16.128  0.00  0.00    +0.000 C 
ATOM      2  C   UNL     1      48.707   7.915  16.137  0.00  0.00    +0.000 C 
ENDROOT
BRANCH   2   3
ATOM      3  C   UNL     1      48.175   7.513  14.767  0.00  0.00    +0.000 A 
ATOM      4  N   UNL     1      48.308   6.227  14.381  0.00  0.00    +0.000 NA
ATOM      5  C   UNL     1      47.805   5.909  13.167  0.00  0.00    +0.000 A 
ATOM      6  C   UNL     1      47.166   6.805  12.339  0.00  0.00    +0.000 A 
ATOM      7  C   UNL     1      47.152   8.103  12.798  0.00  0.00    +0.000 A 
ATOM      8  N   UNL     1      47.648   8.484  13.990  0.00  0.00    +0.000 NA
BRANCH   6   9
ATOM      9  O   UNL     1      46.621   6.350  11.181  0.00  0.00    +0.000 OA
BRANCH   9  10
ATOM     10  C   UNL     1      45.405   5.608  11.351  0.00  0.00    +0.000 C 
BRANCH  10  11
ATOM     11  C   UNL     1      45.237   4.606  10.242  0.00  0.00    +0.000 A 
ATOM     12  C   UNL     1      45.699   4.846   8.942  0.00  0.00    +0.000 A 
ATOM     13  C   UNL     1      45.592   3.861   7.958  0.00  0.00    +0.000 A 
ATOM     14  C   UNL     1      45.038   2.619   8.269  0.00  0.00    +0.000 A 
ATOM     15  C   UNL     1      44.591   2.362   9.563  0.00  0.00    +0.000 A 
ATOM     16  C   UNL     1      44.698   3.350  10.536  0.00  0.00    +0.000 A 
ATOM     17  F   UNL     1      44.288   3.077  11.783  0.00  0.00    +0.000 F 
ENDBRANCH  10  11
ENDBRANCH   9  10
ENDBRANCH   6   9
ENDBRANCH   2   3
BRANCH   2  18
ATOM     18  N   UNL     1      49.791   7.029  16.541  0.00  0.00    +0.000 N 
ATOM     19  C   UNL     1      49.723   6.230  17.645  0.00  0.00    +0.000 C 
ATOM     20  O   UNL     1      48.759   6.241  18.407  0.00  0.00    +0.000 OA
ATOM     21  H   UNL     1      50.655   7.111  16.014  0.00  0.00    +0.000 HD
BRANCH  19  22
ATOM     22  C   UNL     1      50.843   5.299  17.844  0.00  0.00    +0.000 A 
ATOM     23  C   UNL     1      52.058   5.778  18.315  0.00  0.00    +0.000 A 
ATOM     24  S   UNL     1      53.238   4.565  18.520  0.00  0.00    +0.000 S 
ATOM     25  C   UNL     1      52.182   3.363  17.941  0.00  0.00    +0.000 A 
ATOM     26  N   UNL     1      52.591   2.071  17.824  0.00  0.00    +0.000 NA
ATOM     27  C   UNL     1      51.701   1.272  17.339  0.00  0.00    +0.000 A 
ATOM     28  N   UNL     1      50.435   1.645  16.970  0.00  0.00    +0.000 N 
ATOM     29  C   UNL     1      49.961   2.926  17.120  0.00  0.00    +0.000 A 
ATOM     30  O   UNL     1      48.795   3.207  16.867  0.00  0.00    +0.000 OA
ATOM     31  C   UNL     1      50.935   3.875  17.627  0.00  0.00    +0.000 A 
ATOM     32  H   UNL     1      49.778   0.966  16.617  0.00  0.00    +0.000 HD
ENDBRANCH  19  22
ENDBRANCH   2  18
TORSDOF 6
ENDMDL
MODEL 7
REMARK VINA RESULT:    -7.368      4.325      8.335
REMARK INTER + INTRA:         -10.169
REMARK INTER:                  -9.061
REMARK INTRA:                  -1.108
REMARK UNBOUND:                -0.216
REMARK  Name = 
REMARK  7 active torsions:
REMARK  status: ('A' for Active; 'I' for Inactive)
REMARK    1  A    between atoms: C_1  and  C_2
REMARK    2  A    between atoms: C_2  and  N_3
REMARK    3  A    between atoms: C_2  and  C_16
REMARK    4  A    between atoms: C_4  and  C_6
REMARK    5  A    between atoms: C_19  and  O_20
REMARK    6  A    between atoms: O_20  and  C_21
REMARK    7  A    between atoms: C_21  and  C_22
REMARK                            x       y       z     vdW  Elec       q    Type
REMARK                         _______ _______ _______ _____ _____    ______ ____
ROOT
ATOM      1  C   UNL     1      48.360   8.837  15.169  0.00  0.00    +0.000 C 
ATOM      2  C   UNL     1      48.479   7.461  14.512  0.00  0.00    +0.000 C 
ENDROOT
BRANCH   2   3
ATOM      3  C   UNL     1      48.978   6.427  15.514  0.00  0.00    +0.000 A 
ATOM      4  N   UNL     1      50.246   6.529  15.962  0.00  0.00    +0.000 NA
ATOM      5  C   UNL     1      50.642   5.604  16.865  0.00  0.00    +0.000 A 
ATOM      6  C   UNL     1      49.828   4.604  17.349  0.00  0.00    +0.000 A 
ATOM      7  C   UNL     1      48.580   4.547  16.770  0.00  0.00    +0.000 A 
ATOM      8  N   UNL     1      48.134   5.430  15.858  0.00  0.00    +0.000 NA
BRANCH   6   9
ATOM      9  O   UNL     1      50.307   3.786  18.323  0.00  0.00    +0.000 OA
BRANCH   9  10
ATOM     10  C   UNL     1      51.681   4.013  18.664  0.00  0.00    +0.000 C 
BRANCH  10  11
ATOM     11  C   UNL     1      52.542   2.878  18.180  0.00  0.00    +0.000 A 
ATOM     12  C   UNL     1      52.001   1.648  17.785  0.00  0.00    +0.000 A 
ATOM     13  C   UNL     1      52.825   0.644  17.271  0.00  0.00    +0.000 A 
ATOM     14  C   UNL     1      54.195   0.867  17.132  0.00  0.00    +0.000 A 
ATOM     15  C   UNL     1      54.742   2.092  17.505  0.00  0.00    +0.000 A 
ATOM     16  C   UNL     1      53.915   3.086  18.020  0.00  0.00    +0.000 A 
ATOM     17  F   UNL     1      54.452   4.269  18.350  0.00  0.00    +0.000 F 
ENDBRANCH  10  11
ENDBRANCH   9  10
ENDBRANCH   6   9
ENDBRANCH   2   3
BRANCH   2  18
ATOM     18  N   UNL     1      47.200   7.046  13.950  0.00  0.00    +0.000 N 
ATOM     19  C   UNL     1      46.946   7.043  12.608  0.00  0.00    +0.000 C 
ATOM     20  O   UNL     1      47.765   7.438  11.783  0.00  0.00    +0.000 OA
ATOM     21  H   UNL     1      46.459   6.857  14.617  0.00  0.00    +0.000 HD
BRANCH  19  22
ATOM     22  C   UNL     1      45.656   6.475  12.193  0.00  0.00    +0.000 A 
ATOM     23  C   UNL     1      44.697   7.298  11.619  0.00  0.00    +0.000 A 
ATOM     24  S   UNL     1      43.274   6.478  11.165  0.00  0.00    +0.000 S 
ATOM     25  C   UNL     1      43.870   5.000  11.763  0.00  0.00    +0.000 A 
ATOM     26  N   UNL     1      43.113   3.871  11.715  0.00  0.00    +0.000 NA
ATOM     27  C   UNL     1      43.674   2.831  12.234  0.00  0.00    +0.000 A 
ATOM     28  N   UNL     1      44.928   2.815  12.788  0.00  0.00    +0.000 N 
ATOM     29  C   UNL     1      45.748   3.917  12.809  0.00  0.00    +0.000 A 
ATOM     30  O   UNL     1      46.898   3.846  13.228  0.00  0.00    +0.000 OA
ATOM     31  C   UNL     1      45.150   5.125  12.272  0.00  0.00    +0.000 A 
ATOM     32  H   UNL     1      45.319   1.962  13.158  0.00  0.00    +0.000 HD
ENDBRANCH  19  22
ENDBRANCH   2  18
TORSDOF 6
ENDMDL
MODEL 8
REMARK VINA RESULT:    -7.196      3.963      7.845
REMARK INTER + INTRA:          -9.937
REMARK INTER:                  -9.672
REMARK INTRA:                  -0.265
REMARK UNBOUND:                -0.216
REMARK  Name = 
REMARK  7 active torsions:
REMARK  status: ('A' for Active; 'I' for Inactive)
REMARK    1  A    between atoms: C_1  and  C_2
REMARK    2  A    between atoms: C_2  and  N_3
REMARK    3  A    between atoms: C_2  and  C_16
REMARK    4  A    between atoms: C_4  and  C_6
REMARK    5  A    between atoms: C_19  and  O_20
REMARK    6  A    between atoms: O_20  and  C_21
REMARK    7  A    between atoms: C_21  and  C_22
REMARK                            x       y       z     vdW  Elec       q    Type
REMARK                         _______ _______ _______ _____ _____    ______ ____
ROOT
ATOM      1  C   UNL     1      48.803   8.766  12.273  0.00  0.00    +0.000 C 
ATOM      2  C   UNL     1      48.894   7.263  12.548  0.00  0.00    +0.000 C 
ENDROOT
BRANCH   2   3
ATOM      3  C   UNL     1      49.309   7.005  13.991  0.00  0.00    +0.000 A 
ATOM      4  N   UNL     1      48.542   6.187  14.741  0.00  0.00    +0.000 NA
ATOM      5  C   UNL     1      48.957   5.969  16.009  0.00  0.00    +0.000 A 
ATOM      6  C   UNL     1      50.101   6.512  16.549  0.00  0.00    +0.000 A 
ATOM      7  C   UNL     1      50.767   7.389  15.722  0.00  0.00    +0.000 A 
ATOM      8  N   UNL     1      50.397   7.656  14.456  0.00  0.00    +0.000 NA
BRANCH   6   9
ATOM      9  O   UNL     1      50.467   6.150  17.807  0.00  0.00    +0.000 OA
BRANCH   9  10
ATOM     10  C   UNL     1      49.889   4.917  18.258  0.00  0.00    +0.000 C 
BRANCH  10  11
ATOM     11  C   UNL     1      50.838   3.772  18.030  0.00  0.00    +0.000 A 
ATOM     12  C   UNL     1      52.156   3.790  18.504  0.00  0.00    +0.000 A 
ATOM     13  C   UNL     1      52.984   2.678  18.337  0.00  0.00    +0.000 A 
ATOM     14  C   UNL     1      52.497   1.531  17.709  0.00  0.00    +0.000 A 
ATOM     15  C   UNL     1      51.183   1.495  17.249  0.00  0.00    +0.000 A 
ATOM     16  C   UNL     1      50.366   2.609  17.416  0.00  0.00    +0.000 A 
ATOM     17  F   UNL     1      49.095   2.549  16.991  0.00  0.00    +0.000 F 
ENDBRANCH  10  11
ENDBRANCH   9  10
ENDBRANCH   6   9
ENDBRANCH   2   3
BRANCH   2  18
ATOM     18  N   UNL     1      47.624   6.609  12.261  0.00  0.00    +0.000 N 
ATOM     19  C   UNL     1      46.422   7.110  12.671  0.00  0.00    +0.000 C 
ATOM     20  O   UNL     1      46.333   8.126  13.356  0.00  0.00    +0.000 OA
ATOM     21  H   UNL     1      47.681   5.693  11.826  0.00  0.00    +0.000 HD
BRANCH  19  22
ATOM     22  C   UNL     1      45.226   6.405  12.191  0.00  0.00    +0.000 A 
ATOM     23  C   UNL     1      44.194   7.125  11.605  0.00  0.00    +0.000 A 
ATOM     24  S   UNL     1      42.898   6.154  11.074  0.00  0.00    +0.000 S 
ATOM     25  C   UNL     1      43.648   4.741  11.652  0.00  0.00    +0.000 A 
ATOM     26  N   UNL     1      43.037   3.530  11.544  0.00  0.00    +0.000 NA
ATOM     27  C   UNL     1      43.702   2.549  12.054  0.00  0.00    +0.000 A 
ATOM     28  N   UNL     1      44.929   2.666  12.654  0.00  0.00    +0.000 N 
ATOM     29  C   UNL     1      45.608   3.858  12.738  0.00  0.00    +0.000 A 
ATOM     30  O   UNL     1      46.743   3.912  13.197  0.00  0.00    +0.000 OA
ATOM     31  C   UNL     1      44.886   5.002  12.212  0.00  0.00    +0.000 A 
ATOM     32  H   UNL     1      45.408   1.855  13.015  0.00  0.00    +0.000 HD
ENDBRANCH  19  22
ENDBRANCH   2  18
TORSDOF 6
ENDMDL
MODEL 9
REMARK VINA RESULT:    -7.100      3.333      4.507
REMARK INTER + INTRA:          -9.806
REMARK INTER:                  -9.608
REMARK INTRA:                  -0.198
REMARK UNBOUND:                -0.216
REMARK  Name = 
REMARK  7 active torsions:
REMARK  status: ('A' for Active; 'I' for Inactive)
REMARK    1  A    between atoms: C_1  and  C_2
REMARK    2  A    between atoms: C_2  and  N_3
REMARK    3  A    between atoms: C_2  and  C_16
REMARK    4  A    between atoms: C_4  and  C_6
REMARK    5  A    between atoms: C_19  and  O_20
REMARK    6  A    between atoms: O_20  and  C_21
REMARK    7  A    between atoms: C_21  and  C_22
REMARK                            x       y       z     vdW  Elec       q    Type
REMARK                         _______ _______ _______ _____ _____    ______ ____
ROOT
ATOM      1  C   UNL     1      46.996   9.050  13.254  0.00  0.00    +0.000 C 
ATOM      2  C   UNL     1      47.538   7.637  13.481  0.00  0.00    +0.000 C 
ENDROOT
BRANCH   2   3
ATOM      3  C   UNL     1      46.684   6.610  12.747  0.00  0.00    +0.000 A 
ATOM      4  N   UNL     1      46.140   6.958  11.562  0.00  0.00    +0.000 NA
ATOM      5  C   UNL     1      45.407   6.011  10.935  0.00  0.00    +0.000 A 
ATOM      6  C   UNL     1      45.211   4.739  11.426  0.00  0.00    +0.000 A 
ATOM      7  C   UNL     1      45.748   4.515  12.674  0.00  0.00    +0.000 A 
ATOM      8  N   UNL     1      46.475   5.421  13.353  0.00  0.00    +0.000 NA
BRANCH   6   9
ATOM      9  O   UNL     1      44.531   3.843  10.664  0.00  0.00    +0.000 OA
BRANCH   9  10
ATOM     10  C   UNL     1      44.448   4.189   9.275  0.00  0.00    +0.000 C 
BRANCH  10  11
ATOM     11  C   UNL     1      45.426   3.379   8.468  0.00  0.00    +0.000 A 
ATOM     12  C   UNL     1      46.428   3.975   7.694  0.00  0.00    +0.000 A 
ATOM     13  C   UNL     1      47.364   3.188   7.017  0.00  0.00    +0.000 A 
ATOM     14  C   UNL     1      47.316   1.798   7.124  0.00  0.00    +0.000 A 
ATOM     15  C   UNL     1      46.333   1.194   7.906  0.00  0.00    +0.000 A 
ATOM     16  C   UNL     1      45.403   1.985   8.573  0.00  0.00    +0.000 A 
ATOM     17  F   UNL     1      44.481   1.390   9.342  0.00  0.00    +0.000 F 
ENDBRANCH  10  11
ENDBRANCH   9  10
ENDBRANCH   6   9
ENDBRANCH   2   3
BRANCH   2  18
ATOM     18  N   UNL     1      48.926   7.543  13.050  0.00  0.00    +0.000 N 
ATOM     19  C   UNL     1      49.430   8.266  12.007  0.00  0.00    +0.000 C 
ATOM     20  O   UNL     1      48.731   9.011  11.326  0.00  0.00    +0.000 OA
ATOM     21  H   UNL     1      49.486   6.826  13.500  0.00  0.00    +0.000 HD
BRANCH  19  22
ATOM     22  C   UNL     1      50.878   8.157  11.781  0.00  0.00    +0.000 A 
ATOM     23  C   UNL     1      51.347   7.621  10.589  0.00  0.00    +0.000 A 
ATOM     24  S   UNL     1      53.047   7.597  10.472  0.00  0.00    +0.000 S 
ATOM     25  C   UNL     1      53.218   8.258  12.031  0.00  0.00    +0.000 A 
ATOM     26  N   UNL     1      54.450   8.467  12.570  0.00  0.00    +0.000 NA
ATOM     27  C   UNL     1      54.432   8.940  13.771  0.00  0.00    +0.000 A 
ATOM     28  N   UNL     1      53.295   9.234  14.478  0.00  0.00    +0.000 N 
ATOM     29  C   UNL     1      52.033   9.090  13.954  0.00  0.00    +0.000 A 
ATOM     30  O   UNL     1      51.041   9.449  14.579  0.00  0.00    +0.000 OA
ATOM     31  C   UNL     1      51.994   8.524  12.618  0.00  0.00    +0.000 A 
ATOM     32  H   UNL     1      53.350   9.623  15.407  0.00  0.00    +0.000 HD
ENDBRANCH  19  22
ENDBRANCH   2  18
TORSDOF 6
ENDMDL
