MODEL 1
REMARK VINA RESULT:    -6.740      0.000      0.000
REMARK INTER + INTRA:          -8.946
REMARK INTER:                  -8.316
REMARK INTRA:                  -0.631
REMARK UNBOUND:                -0.631
REMARK  Name = 
REMARK  7 active torsions:
REMARK  status: ('A' for Active; 'I' for Inactive)
REMARK    1  A    between atoms: C_1  and  C_2
REMARK    2  A    between atoms: C_2  and  C_3
REMARK    3  A    between atoms: C_2  and  C_4
REMARK    4  A    between atoms: C_2  and  C_5
REMARK    5  A    between atoms: C_9  and  C_10
REMARK    6  A    between atoms: N_16  and  C_17
REMARK    7  A    between atoms: C_17  and  C_18
REMARK                            x       y       z     vdW  Elec       q    Type
REMARK                         _______ _______ _______ _____ _____    ______ ____
ROOT
ATOM      1  C   UNL     1      44.591   4.035  11.121  0.00  0.00    +0.000 A 
ATOM      2  N   UNL     1      44.873   2.843  10.606  0.00  0.00    +0.000 NA
ATOM      3  C   UNL     1      45.534   3.066   9.435  0.00  0.00    +0.000 A 
ATOM      4  C   UNL     1      46.036   2.167   8.487  0.00  0.00    +0.000 A 
ATOM      5  C   UNL     1      46.663   2.714   7.364  0.00  0.00    +0.000 A 
ATOM      6  C   UNL     1      46.771   4.104   7.269  0.00  0.00    +0.000 A 
ATOM      7  N   UNL     1      46.302   5.013   8.172  0.00  0.00    +0.000 NA
ATOM      8  C   UNL     1      45.689   4.421   9.216  0.00  0.00    +0.000 A 
ATOM      9  N   UNL     1      45.053   5.035  10.274  0.00  0.00    +0.000 N 
ENDROOT
BRANCH   5  10
ATOM     10  C   UNL     1      47.211   1.894   6.257  0.00  0.00    +0.000 C 
ATOM     11  N   UNL     1      47.888   2.518   5.246  0.00  0.00    +0.000 N 
ATOM     12  O   UNL     1      47.075   0.676   6.243  0.00  0.00    +0.000 OA
ATOM     13  H   UNL     1      48.073   3.507   5.188  0.00  0.00    +0.000 HD
ATOM     14  H   UNL     1      48.274   1.926   4.522  0.00  0.00    +0.000 HD
ENDBRANCH   5  10
BRANCH   1  16
ATOM     15  C   UNL     1      43.317   2.801  12.883  0.00  0.00    +0.000 C 
ATOM     16  C   UNL     1      43.866   4.189  12.457  0.00  0.00    +0.000 C 
ATOM     17  C   UNL     1      42.659   5.132  12.355  0.00  0.00    +0.000 C 
ATOM     18  C   UNL     1      44.819   4.648  13.572  0.00  0.00    +0.000 C 
ENDBRANCH   1  16
BRANCH   9  19
ATOM     19  C   UNL     1      45.005   6.482  10.410  0.00  0.00    +0.000 C 
BRANCH  19  20
ATOM     20  C   UNL     1      45.864   7.047  11.512  0.00  0.00    +0.000 A 
ATOM     21  C   UNL     1      47.199   6.635  11.636  0.00  0.00    +0.000 A 
ATOM     22  C   UNL     1      48.027   7.221  12.591  0.00  0.00    +0.000 A 
ATOM     23  C   UNL     1      47.496   8.211  13.397  0.00  0.00    +0.000 A 
ATOM     24  N   UNL     1      46.220   8.635  13.313  0.00  0.00    +0.000 NA
ATOM     25  C   UNL     1      45.439   8.056  12.372  0.00  0.00    +0.000 A 
ENDBRANCH  19  20
ENDBRANCH   9  19
TORSDOF 4
ENDMDL
MODEL 2
REMARK VINA RESULT:    -6.238      4.101      6.512
REMARK INTER + INTRA:          -8.327
REMARK INTER:                  -7.588
REMARK INTRA:                  -0.739
REMARK UNBOUND:                -0.631
REMARK  Name = 
REMARK  7 active torsions:
REMARK  status: ('A' for Active; 'I' for Inactive)
REMARK    1  A    between atoms: C_1  and  C_2
REMARK    2  A    between atoms: C_2  and  C_3
REMARK    3  A    between atoms: C_2  and  C_4
REMARK    4  A    between atoms: C_2  and  C_5
REMARK    5  A    between atoms: C_9  and  C_10
REMARK    6  A    between atoms: N_16  and  C_17
REMARK    7  A    between atoms: C_17  and  C_18
REMARK                            x       y       z     vdW  Elec       q    Type
REMARK                         _______ _______ _______ _____ _____    ______ ____
ROOT
ATOM      1  C   UNL     1      48.282   6.803  14.709  0.00  0.00    +0.000 A 
ATOM      2  N   UNL     1      47.984   7.101  13.449  0.00  0.00    +0.000 NA
ATOM      3  C   UNL     1      47.067   6.183  13.033  0.00  0.00    +0.000 A 
ATOM      4  C   UNL     1      46.437   6.021  11.794  0.00  0.00    +0.000 A 
ATOM      5  C   UNL     1      45.539   4.956  11.672  0.00  0.00    +0.000 A 
ATOM      6  C   UNL     1      45.310   4.144  12.787  0.00  0.00    +0.000 A 
ATOM      7  N   UNL     1      45.897   4.272  14.012  0.00  0.00    +0.000 NA
ATOM      8  C   UNL     1      46.767   5.301  14.053  0.00  0.00    +0.000 A 
ATOM      9  N   UNL     1      47.573   5.677  15.107  0.00  0.00    +0.000 N 
ENDROOT
BRANCH   5  10
ATOM     10  C   UNL     1      44.824   4.633  10.415  0.00  0.00    +0.000 C 
ATOM     11  N   UNL     1      45.305   5.128   9.235  0.00  0.00    +0.000 N 
ATOM     12  O   UNL     1      43.823   3.924  10.420  0.00  0.00    +0.000 OA
ATOM     13  H   UNL     1      46.134   5.692   9.131  0.00  0.00    +0.000 HD
ATOM     14  H   UNL     1      44.810   4.863   8.393  0.00  0.00    +0.000 HD
ENDBRANCH   5  10
BRANCH   1  16
ATOM     15  C   UNL     1      49.457   9.007  14.824  0.00  0.00    +0.000 C 
ATOM     16  C   UNL     1      49.270   7.635  15.525  0.00  0.00    +0.000 C 
ATOM     17  C   UNL     1      50.656   6.981  15.597  0.00  0.00    +0.000 C 
ATOM     18  C   UNL     1      48.736   7.929  16.936  0.00  0.00    +0.000 C 
ENDBRANCH   1  16
BRANCH   9  19
ATOM     19  C   UNL     1      47.542   4.986  16.385  0.00  0.00    +0.000 C 
BRANCH  19  20
ATOM     20  C   UNL     1      48.609   3.938  16.570  0.00  0.00    +0.000 A 
ATOM     21  C   UNL     1      49.690   4.188  17.428  0.00  0.00    +0.000 A 
ATOM     22  C   UNL     1      50.631   3.192  17.679  0.00  0.00    +0.000 A 
ATOM     23  C   UNL     1      50.462   1.965  17.065  0.00  0.00    +0.000 A 
ATOM     24  N   UNL     1      49.441   1.682  16.233  0.00  0.00    +0.000 NA
ATOM     25  C   UNL     1      48.536   2.664  16.013  0.00  0.00    +0.000 A 
ENDBRANCH  19  20
ENDBRANCH   9  19
TORSDOF 4
ENDMDL
MODEL 3
REMARK VINA RESULT:    -6.077      4.609      7.692
REMARK INTER + INTRA:          -8.129
REMARK INTER:                  -7.363
REMARK INTRA:                  -0.767
REMARK UNBOUND:                -0.631
REMARK  Name = 
REMARK  7 active torsions:
REMARK  status: ('A' for Active; 'I' for Inactive)
REMARK    1  A    between atoms: C_1  and  C_2
REMARK    2  A    between atoms: C_2  and  C_3
REMARK    3  A    between atoms: C_2  and  C_4
REMARK    4  A    between atoms: C_2  and  C_5
REMARK    5  A    between atoms: C_9  and  C_10
REMARK    6  A    between atoms: N_16  and  C_17
REMARK    7  A    between atoms: C_17  and  C_18
REMARK                            x       y       z     vdW  Elec       q    Type
REMARK                         _______ _______ _______ _____ _____    ______ ____
ROOT
ATOM      1  C   UNL     1      47.768   6.857  13.775  0.00  0.00    +0.000 A 
ATOM      2  N   UNL     1      48.272   7.134  14.973  0.00  0.00    +0.000 NA
ATOM      3  C   UNL     1      48.182   5.993  15.712  0.00  0.00    +0.000 A 
ATOM      4  C   UNL     1      48.544   5.736  17.039  0.00  0.00    +0.000 A 
ATOM      5  C   UNL     1      48.310   4.446  17.524  0.00  0.00    +0.000 A 
ATOM      6  C   UNL     1      47.758   3.497  16.658  0.00  0.00    +0.000 A 
ATOM      7  N   UNL     1      47.398   3.704  15.358  0.00  0.00    +0.000 NA
ATOM      8  C   UNL     1      47.629   4.972  14.964  0.00  0.00    +0.000 A 
ATOM      9  N   UNL     1      47.330   5.539  13.742  0.00  0.00    +0.000 N 
ENDROOT
BRANCH   5  10
ATOM     10  C   UNL     1      48.603   4.031  18.916  0.00  0.00    +0.000 C 
ATOM     11  N   UNL     1      48.204   2.793  19.335  0.00  0.00    +0.000 N 
ATOM     12  O   UNL     1      49.205   4.774  19.684  0.00  0.00    +0.000 OA
ATOM     13  H   UNL     1      47.733   2.106  18.767  0.00  0.00    +0.000 HD
ATOM     14  H   UNL     1      48.447   2.530  20.281  0.00  0.00    +0.000 HD
ENDBRANCH   5  10
BRANCH   1  16
ATOM     15  C   UNL     1      48.488   9.162  13.125  0.00  0.00    +0.000 C 
ATOM     16  C   UNL     1      47.719   7.897  12.657  0.00  0.00    +0.000 C 
ATOM     17  C   UNL     1      46.284   8.341  12.341  0.00  0.00    +0.000 C 
ATOM     18  C   UNL     1      48.424   7.398  11.385  0.00  0.00    +0.000 C 
ENDBRANCH   1  16
BRANCH   9  19
ATOM     19  C   UNL     1      46.734   4.770  12.661  0.00  0.00    +0.000 C 
BRANCH  19  20
ATOM     20  C   UNL     1      45.272   5.040  12.419  0.00  0.00    +0.000 A 
ATOM     21  C   UNL     1      44.796   5.178  11.106  0.00  0.00    +0.000 A 
ATOM     22  C   UNL     1      43.434   5.333  10.867  0.00  0.00    +0.000 A 
ATOM     23  C   UNL     1      42.576   5.342  11.952  0.00  0.00    +0.000 A 
ATOM     24  N   UNL     1      42.990   5.214  13.228  0.00  0.00    +0.000 NA
ATOM     25  C   UNL     1      44.318   5.056  13.433  0.00  0.00    +0.000 A 
ENDBRANCH  19  20
ENDBRANCH   9  19
TORSDOF 4
ENDMDL
MODEL 4
REMARK VINA RESULT:    -5.853      4.090      6.414
REMARK INTER + INTRA:          -7.852
REMARK INTER:                  -7.587
REMARK INTRA:                  -0.264
REMARK UNBOUND:                -0.631
REMARK  Name = 
REMARK  7 active torsions:
REMARK  status: ('A' for Active; 'I' for Inactive)
REMARK    1  A    between atoms: C_1  and  C_2
REMARK    2  A    between atoms: C_2  and  C_3
REMARK    3  A    between atoms: C_2  and  C_4
REMARK    4  A    between atoms: C_2  and  C_5
REMARK    5  A    between atoms: C_9  and  C_10
REMARK    6  A    between atoms: N_16  and  C_17
REMARK    7  A    between atoms: C_17  and  C_18
REMARK                            x       y       z     vdW  Elec       q    Type
REMARK                         _______ _______ _______ _____ _____    ______ ____
ROOT
ATOM      1  C   UNL     1      45.911   4.955  12.710  0.00  0.00    +0.000 A 
ATOM      2  N   UNL     1      45.803   4.245  13.828  0.00  0.00    +0.000 NA
ATOM      3  C   UNL     1      46.775   4.691  14.673  0.00  0.00    +0.000 A 
ATOM      4  C   UNL     1      47.119   4.277  15.964  0.00  0.00    +0.000 A 
ATOM      5  C   UNL     1      48.192   4.932  16.576  0.00  0.00    +0.000 A 
ATOM      6  C   UNL     1      48.830   5.963  15.881  0.00  0.00    +0.000 A 
ATOM      7  N   UNL     1      48.522   6.401  14.626  0.00  0.00    +0.000 NA
ATOM      8  C   UNL     1      47.496   5.713  14.086  0.00  0.00    +0.000 A 
ATOM      9  N   UNL     1      46.967   5.850  12.820  0.00  0.00    +0.000 N 
ENDROOT
BRANCH   5  10
ATOM     10  C   UNL     1      48.699   4.582  17.924  0.00  0.00    +0.000 C 
ATOM     11  N   UNL     1      47.957   3.748  18.713  0.00  0.00    +0.000 N 
ATOM     12  O   UNL     1      49.771   5.017  18.330  0.00  0.00    +0.000 OA
ATOM     13  H   UNL     1      47.082   3.320  18.453  0.00  0.00    +0.000 HD
ATOM     14  H   UNL     1      48.346   3.505  19.615  0.00  0.00    +0.000 HD
ENDBRANCH   5  10
BRANCH   1  16
ATOM     15  C   UNL     1      44.707   3.229  11.359  0.00  0.00    +0.000 C 
ATOM     16  C   UNL     1      44.966   4.750  11.527  0.00  0.00    +0.000 C 
ATOM     17  C   UNL     1      45.573   5.246  10.208  0.00  0.00    +0.000 C 
ATOM     18  C   UNL     1      43.597   5.406  11.772  0.00  0.00    +0.000 C 
ENDBRANCH   1  16
BRANCH   9  19
ATOM     19  C   UNL     1      47.462   6.846  11.883  0.00  0.00    +0.000 C 
BRANCH  19  20
ATOM     20  C   UNL     1      46.854   8.217  12.030  0.00  0.00    +0.000 A 
ATOM     21  C   UNL     1      47.676   9.352  11.986  0.00  0.00    +0.000 A 
ATOM     22  C   UNL     1      47.115  10.626  12.026  0.00  0.00    +0.000 A 
ATOM     23  C   UNL     1      45.739  10.732  12.106  0.00  0.00    +0.000 A 
ATOM     24  N   UNL     1      44.912   9.669  12.153  0.00  0.00    +0.000 NA
ATOM     25  C   UNL     1      45.482   8.442  12.103  0.00  0.00    +0.000 A 
ENDBRANCH  19  20
ENDBRANCH   9  19
TORSDOF 4
ENDMDL
MODEL 5
REMARK VINA RESULT:    -5.807      3.303      5.584
REMARK INTER + INTRA:          -7.796
REMARK INTER:                  -7.133
REMARK INTRA:                  -0.664
REMARK UNBOUND:                -0.631
REMARK  Name = 
REMARK  7 active torsions:
REMARK  status: ('A' for Active; 'I' for Inactive)
REMARK    1  A    between atoms: C_1  and  C_2
REMARK    2  A    between atoms: C_2  and  C_3
REMARK    3  A    between atoms: C_2  and  C_4
REMARK    4  A    between atoms: C_2  and  C_5
REMARK    5  A    between atoms: C_9  and  C_10
REMARK    6  A    between atoms: N_16  and  C_17
REMARK    7  A    between atoms: C_17  and  C_18
REMARK                            x       y       z     vdW  Elec       q    Type
REMARK                         _______ _______ _______ _____ _____    ______ ____
ROOT
ATOM      1  C   UNL     1      48.268   6.731  14.579  0.00  0.00    +0.000 A 
ATOM      2  N   UNL     1      47.744   5.517  14.714  0.00  0.00    +0.000 NA
ATOM      3  C   UNL     1      46.959   5.303  13.621  0.00  0.00    +0.000 A 
ATOM      4  C   UNL     1      46.165   4.205  13.270  0.00  0.00    +0.000 A 
ATOM      5  C   UNL     1      45.454   4.292  12.070  0.00  0.00    +0.000 A 
ATOM      6  C   UNL     1      45.596   5.445  11.292  0.00  0.00    +0.000 A 
ATOM      7  N   UNL     1      46.363   6.532  11.593  0.00  0.00    +0.000 NA
ATOM      8  C   UNL     1      47.001   6.391  12.772  0.00  0.00    +0.000 A 
ATOM      9  N   UNL     1      47.806   7.315  13.406  0.00  0.00    +0.000 N 
ENDROOT
BRANCH   5  10
ATOM     10  C   UNL     1      44.542   3.230  11.583  0.00  0.00    +0.000 C 
ATOM     11  N   UNL     1      43.846   2.488  12.496  0.00  0.00    +0.000 N 
ATOM     12  O   UNL     1      44.399   3.019  10.383  0.00  0.00    +0.000 OA
ATOM     13  H   UNL     1      43.876   2.609  13.496  0.00  0.00    +0.000 HD
ATOM     14  H   UNL     1      43.210   1.791  12.128  0.00  0.00    +0.000 HD
ENDBRANCH   5  10
BRANCH   1  16
ATOM     15  C   UNL     1      49.221   6.405  16.867  0.00  0.00    +0.000 C 
ATOM     16  C   UNL     1      49.229   7.317  15.611  0.00  0.00    +0.000 C 
ATOM     17  C   UNL     1      48.800   8.715  16.074  0.00  0.00    +0.000 C 
ATOM     18  C   UNL     1      50.676   7.339  15.092  0.00  0.00    +0.000 C 
ENDBRANCH   1  16
BRANCH   9  19
ATOM     19  C   UNL     1      48.107   8.609  12.815  0.00  0.00    +0.000 C 
BRANCH  19  20
ATOM     20  C   UNL     1      49.486   8.733  12.222  0.00  0.00    +0.000 A 
ATOM     21  C   UNL     1      50.015   7.681  11.459  0.00  0.00    +0.000 A 
ATOM     22  C   UNL     1      51.248   7.823  10.828  0.00  0.00    +0.000 A 
ATOM     23  C   UNL     1      51.922   9.022  10.974  0.00  0.00    +0.000 A 
ATOM     24  N   UNL     1      51.453  10.056  11.698  0.00  0.00    +0.000 NA
ATOM     25  C   UNL     1      50.248   9.896  12.293  0.00  0.00    +0.000 A 
ENDBRANCH  19  20
ENDBRANCH   9  19
TORSDOF 4
ENDMDL
MODEL 6
REMARK VINA RESULT:    -5.721      4.211      6.569
REMARK INTER + INTRA:          -7.689
REMARK INTER:                  -7.198
REMARK INTRA:                  -0.492
REMARK UNBOUND:                -0.631
REMARK  Name = 
REMARK  7 active torsions:
REMARK  status: ('A' for Active; 'I' for Inactive)
REMARK    1  A    between atoms: C_1  and  C_2
REMARK    2  A    between atoms: C_2  and  C_3
REMARK    3  A    between atoms: C_2  and  C_4
REMARK    4  A    between atoms: C_2  and  C_5
REMARK    5  A    between atoms: C_9  and  C_10
REMARK    6  A    between atoms: N_16  and  C_17
REMARK    7  A    between atoms: C_17  and  C_18
REMARK                            x       y       z     vdW  Elec       q    Type
REMARK                         _______ _______ _______ _____ _____    ______ ____
ROOT
ATOM      1  C   UNL     1      46.132   5.098  13.019  0.00  0.00    +0.000 A 
ATOM      2  N   UNL     1      46.256   3.974  13.716  0.00  0.00    +0.000 NA
ATOM      3  C   UNL     1      47.077   4.251  14.768  0.00  0.00    +0.000 A 
ATOM      4  C   UNL     1      47.554   3.427  15.793  0.00  0.00    +0.000 A 
ATOM      5  C   UNL     1      48.406   4.012  16.734  0.00  0.00    +0.000 A 
ATOM      6  C   UNL     1      48.707   5.371  16.609  0.00  0.00    +0.000 A 
ATOM      7  N   UNL     1      48.259   6.210  15.631  0.00  0.00    +0.000 NA
ATOM      8  C   UNL     1      47.463   5.577  14.746  0.00  0.00    +0.000 A 
ATOM      9  N   UNL     1      46.889   6.104  13.607  0.00  0.00    +0.000 N 
ENDROOT
BRANCH   5  10
ATOM     10  C   UNL     1      49.021   3.262  17.855  0.00  0.00    +0.000 C 
ATOM     11  N   UNL     1      48.364   3.205  19.052  0.00  0.00    +0.000 N 
ATOM     12  O   UNL     1      50.096   2.688  17.718  0.00  0.00    +0.000 OA
ATOM     13  H   UNL     1      47.465   3.619  19.247  0.00  0.00    +0.000 HD
ATOM     14  H   UNL     1      48.797   2.659  19.786  0.00  0.00    +0.000 HD
ENDBRANCH   5  10
BRANCH   1  16
ATOM     15  C   UNL     1      44.886   3.741  11.328  0.00  0.00    +0.000 C 
ATOM     16  C   UNL     1      45.260   5.183  11.767  0.00  0.00    +0.000 C 
ATOM     17  C   UNL     1      46.000   5.828  10.588  0.00  0.00    +0.000 C 
ATOM     18  C   UNL     1      43.938   5.916  12.043  0.00  0.00    +0.000 C 
ENDBRANCH   1  16
BRANCH   9  19
ATOM     19  C   UNL     1      47.057   7.499  13.234  0.00  0.00    +0.000 C 
BRANCH  19  20
ATOM     20  C   UNL     1      48.463   7.895  12.867  0.00  0.00    +0.000 A 
ATOM     21  C   UNL     1      49.074   7.331  11.737  0.00  0.00    +0.000 A 
ATOM     22  C   UNL     1      50.336   7.760  11.335  0.00  0.00    +0.000 A 
ATOM     23  C   UNL     1      50.956   8.752  12.074  0.00  0.00    +0.000 A 
ATOM     24  N   UNL     1      50.406   9.320  13.165  0.00  0.00    +0.000 NA
ATOM     25  C   UNL     1      49.176   8.891  13.530  0.00  0.00    +0.000 A 
ENDBRANCH  19  20
ENDBRANCH   9  19
TORSDOF 4
ENDMDL
MODEL 7
REMARK VINA RESULT:    -4.958      4.583      8.307
REMARK INTER + INTRA:          -6.748
REMARK INTER:                  -6.168
REMARK INTRA:                  -0.580
REMARK UNBOUND:                -0.631
REMARK  Name = 
REMARK  7 active torsions:
REMARK  status: ('A' for Active; 'I' for Inactive)
REMARK    1  A    between atoms: C_1  and  C_2
REMARK    2  A    between atoms: C_2  and  C_3
REMARK    3  A    between atoms: C_2  and  C_4
REMARK    4  A    between atoms: C_2  and  C_5
REMARK    5  A    between atoms: C_9  and  C_10
REMARK    6  A    between atoms: N_16  and  C_17
REMARK    7  A    between atoms: C_17  and  C_18
REMARK                            x       y       z     vdW  Elec       q    Type
REMARK                         _______ _______ _______ _____ _____    ______ ____
ROOT
ATOM      1  C   UNL     1      48.439   8.085  14.181  0.00  0.00    +0.000 A 
ATOM      2  N   UNL     1      48.652   8.430  15.446  0.00  0.00    +0.000 NA
ATOM      3  C   UNL     1      48.605   7.284  16.181  0.00  0.00    +0.000 A 
ATOM      4  C   UNL     1      48.741   7.079  17.559  0.00  0.00    +0.000 A 
ATOM      5  C   UNL     1      48.628   5.764  18.020  0.00  0.00    +0.000 A 
ATOM      6  C   UNL     1      48.412   4.745  17.087  0.00  0.00    +0.000 A 
ATOM      7  N   UNL     1      48.280   4.902  15.738  0.00  0.00    +0.000 NA
ATOM      8  C   UNL     1      48.376   6.193  15.365  0.00  0.00    +0.000 A 
ATOM      9  N   UNL     1      48.232   6.713  14.096  0.00  0.00    +0.000 N 
ENDROOT
BRANCH   5  10
ATOM     10  C   UNL     1      48.711   5.392  19.452  0.00  0.00    +0.000 C 
ATOM     11  N   UNL     1      47.588   5.489  20.226  0.00  0.00    +0.000 N 
ATOM     12  O   UNL     1      49.761   4.992  19.943  0.00  0.00    +0.000 OA
ATOM     13  H   UNL     1      46.677   5.778  19.903  0.00  0.00    +0.000 HD
ATOM     14  H   UNL     1      47.672   5.199  21.191  0.00  0.00    +0.000 HD
ENDBRANCH   5  10
BRANCH   1  16
ATOM     15  C   UNL     1      46.971   9.383  12.628  0.00  0.00    +0.000 C 
ATOM     16  C   UNL     1      48.440   9.111  13.049  0.00  0.00    +0.000 C 
ATOM     17  C   UNL     1      49.173   8.598  11.802  0.00  0.00    +0.000 C 
ATOM     18  C   UNL     1      49.025  10.458  13.505  0.00  0.00    +0.000 C 
ENDBRANCH   1  16
BRANCH   9  19
ATOM     19  C   UNL     1      47.986   5.866  12.940  0.00  0.00    +0.000 C 
BRANCH  19  20
ATOM     20  C   UNL     1      46.549   5.809  12.487  0.00  0.00    +0.000 A 
ATOM     21  C   UNL     1      45.541   5.481  13.406  0.00  0.00    +0.000 A 
ATOM     22  C   UNL     1      44.204   5.517  13.021  0.00  0.00    +0.000 A 
ATOM     23  C   UNL     1      43.907   5.887  11.722  0.00  0.00    +0.000 A 
ATOM     24  N   UNL     1      44.843   6.208  10.807  0.00  0.00    +0.000 NA
ATOM     25  C   UNL     1      46.135   6.174  11.209  0.00  0.00    +0.000 A 
ENDBRANCH  19  20
ENDBRANCH   9  19
TORSDOF 4
ENDMDL
MODEL 8
REMARK VINA RESULT:    -4.887      5.412      8.165
REMARK INTER + INTRA:          -6.660
REMARK INTER:                  -6.142
REMARK INTRA:                  -0.517
REMARK UNBOUND:                -0.631
REMARK  Name = 
REMARK  7 active torsions:
REMARK  status: ('A' for Active; 'I' for Inactive)
REMARK    1  A    between atoms: C_1  and  C_2
REMARK    2  A    between atoms: C_2  and  C_3
REMARK    3  A    between atoms: C_2  and  C_4
REMARK    4  A    between atoms: C_2  and  C_5
REMARK    5  A    between atoms: C_9  and  C_10
REMARK    6  A    between atoms: N_16  and  C_17
REMARK    7  A    between atoms: C_17  and  C_18
REMARK                            x       y       z     vdW  Elec       q    Type
REMARK                         _______ _______ _______ _____ _____    ______ ____
ROOT
ATOM      1  C   UNL     1      49.921   6.820  15.876  0.00  0.00    +0.000 A 
ATOM      2  N   UNL     1      49.381   7.051  14.684  0.00  0.00    +0.000 NA
ATOM      3  C   UNL     1      48.343   6.179  14.545  0.00  0.00    +0.000 A 
ATOM      4  C   UNL     1      47.457   5.980  13.481  0.00  0.00    +0.000 A 
ATOM      5  C   UNL     1      46.490   4.982  13.637  0.00  0.00    +0.000 A 
ATOM      6  C   UNL     1      46.453   4.270  14.839  0.00  0.00    +0.000 A 
ATOM      7  N   UNL     1      47.293   4.437  15.902  0.00  0.00    +0.000 NA
ATOM      8  C   UNL     1      48.213   5.396  15.676  0.00  0.00    +0.000 A 
ATOM      9  N   UNL     1      49.245   5.781  16.505  0.00  0.00    +0.000 N 
ENDROOT
BRANCH   5  10
ATOM     10  C   UNL     1      45.507   4.627  12.586  0.00  0.00    +0.000 C 
ATOM     11  N   UNL     1      44.576   3.663  12.852  0.00  0.00    +0.000 N 
ATOM     12  O   UNL     1      45.512   5.192  11.497  0.00  0.00    +0.000 OA
ATOM     13  H   UNL     1      44.476   3.168  13.724  0.00  0.00    +0.000 HD
ATOM     14  H   UNL     1      43.901   3.466  12.124  0.00  0.00    +0.000 HD
ENDBRANCH   5  10
BRANCH   1  16
ATOM     15  C   UNL     1      51.245   8.914  15.540  0.00  0.00    +0.000 C 
ATOM     16  C   UNL     1      51.108   7.627  16.398  0.00  0.00    +0.000 C 
ATOM     17  C   UNL     1      52.431   6.862  16.267  0.00  0.00    +0.000 C 
ATOM     18  C   UNL     1      50.889   8.086  17.849  0.00  0.00    +0.000 C 
ENDBRANCH   1  16
BRANCH   9  19
ATOM     19  C   UNL     1      49.443   5.186  17.817  0.00  0.00    +0.000 C 
BRANCH  19  20
ATOM     20  C   UNL     1      50.379   4.005  17.846  0.00  0.00    +0.000 A 
ATOM     21  C   UNL     1      49.945   2.759  17.368  0.00  0.00    +0.000 A 
ATOM     22  C   UNL     1      50.831   1.687  17.303  0.00  0.00    +0.000 A 
ATOM     23  C   UNL     1      52.135   1.891  17.714  0.00  0.00    +0.000 A 
ATOM     24  N   UNL     1      52.594   3.069  18.181  0.00  0.00    +0.000 NA
ATOM     25  C   UNL     1      51.715   4.098  18.226  0.00  0.00    +0.000 A 
ENDBRANCH  19  20
ENDBRANCH   9  19
TORSDOF 4
ENDMDL
MODEL 9
REMARK VINA RESULT:    -4.817      4.434      6.786
REMARK INTER + INTRA:          -6.575
REMARK INTER:                  -6.504
REMARK INTRA:                  -0.071
REMARK UNBOUND:                -0.631
REMARK  Name = 
REMARK  7 active torsions:
REMARK  status: ('A' for Active; 'I' for Inactive)
REMARK    1  A    between atoms: C_1  and  C_2
REMARK    2  A    between atoms: C_2  and  C_3
REMARK    3  A    between atoms: C_2  and  C_4
REMARK    4  A    between atoms: C_2  and  C_5
REMARK    5  A    between atoms: C_9  and  C_10
REMARK    6  A    between atoms: N_16  and  C_17
REMARK    7  A    between atoms: C_17  and  C_18
REMARK                            x       y       z     vdW  Elec       q    Type
REMARK                         _______ _______ _______ _____ _____    ______ ____
ROOT
ATOM      1  C   UNL     1      46.383   5.502  12.713  0.00  0.00    +0.000 A 
ATOM      2  N   UNL     1      47.150   6.252  11.929  0.00  0.00    +0.000 NA
ATOM      3  C   UNL     1      48.174   6.711  12.701  0.00  0.00    +0.000 A 
ATOM      4  C   UNL     1      49.246   7.554  12.386  0.00  0.00    +0.000 A 
ATOM      5  C   UNL     1      50.140   7.858  13.417  0.00  0.00    +0.000 A 
ATOM      6  C   UNL     1      49.926   7.291  14.676  0.00  0.00    +0.000 A 
ATOM      7  N   UNL     1      48.900   6.461  15.022  0.00  0.00    +0.000 NA
ATOM      8  C   UNL     1      48.064   6.229  13.991  0.00  0.00    +0.000 A 
ATOM      9  N   UNL     1      46.899   5.490  14.004  0.00  0.00    +0.000 N 
ENDROOT
BRANCH   5  10
ATOM     10  C   UNL     1      51.300   8.765  13.249  0.00  0.00    +0.000 C 
ATOM     11  N   UNL     1      52.431   8.286  12.648  0.00  0.00    +0.000 N 
ATOM     12  O   UNL     1      51.254   9.930  13.628  0.00  0.00    +0.000 OA
ATOM     13  H   UNL     1      52.550   7.355  12.279  0.00  0.00    +0.000 HD
ATOM     14  H   UNL     1      53.194   8.939  12.522  0.00  0.00    +0.000 HD
ENDBRANCH   5  10
BRANCH   1  16
ATOM     15  C   UNL     1      44.970   5.137  10.684  0.00  0.00    +0.000 C 
ATOM     16  C   UNL     1      45.137   4.792  12.188  0.00  0.00    +0.000 C 
ATOM     17  C   UNL     1      43.860   5.264  12.896  0.00  0.00    +0.000 C 
ATOM     18  C   UNL     1      45.272   3.264  12.278  0.00  0.00    +0.000 C 
ENDBRANCH   1  16
BRANCH   9  19
ATOM     19  C   UNL     1      46.436   4.803  15.198  0.00  0.00    +0.000 C 
BRANCH  19  20
ATOM     20  C   UNL     1      47.487   3.996  15.916  0.00  0.00    +0.000 A 
ATOM     21  C   UNL     1      47.805   4.294  17.249  0.00  0.00    +0.000 A 
ATOM     22  C   UNL     1      48.704   3.496  17.951  0.00  0.00    +0.000 A 
ATOM     23  C   UNL     1      49.262   2.411  17.299  0.00  0.00    +0.000 A 
ATOM     24  N   UNL     1      48.987   2.090  16.020  0.00  0.00    +0.000 NA
ATOM     25  C   UNL     1      48.103   2.876  15.363  0.00  0.00    +0.000 A 
ENDBRANCH  19  20
ENDBRANCH   9  19
TORSDOF 4
ENDMDL
