MODEL 1
REMARK VINA RESULT:    -8.551      0.000      0.000
REMARK INTER + INTRA:         -11.901
REMARK INTER:                 -11.051
REMARK INTRA:                  -0.850
REMARK UNBOUND:                -0.850
REMARK  Name = 
REMARK  5 active torsions:
REMARK  status: ('A' for Active; 'I' for Inactive)
REMARK    1  A    between atoms: C_2  and  C_3
REMARK    2  A    between atoms: C_6  and  N_7
REMARK    3  A    between atoms: N_7  and  C_8
REMARK    4  A    between atoms: C_8  and  C_9
REMARK    5  A    between atoms: C_13  and  C_14
REMARK                            x       y       z     vdW  Elec       q    Type
REMARK                         _______ _______ _______ _____ _____    ______ ____
ROOT
ATOM      1  C   UNL     1      44.145   4.641  11.647  0.00  0.00    +0.000 C 
ATOM      2  C   UNL     1      43.410   3.619  12.500  0.00  0.00    +0.000 C 
ATOM      3  C   UNL     1      43.000   5.047  12.577  0.00  0.00    +0.000 C 
ENDROOT
BRANCH   1   4
ATOM      4  C   UNL     1      45.464   5.266  12.095  0.00  0.00    +0.000 A 
ATOM      5  C   UNL     1      45.959   6.422  11.465  0.00  0.00    +0.000 A 
ATOM      6  C   UNL     1      46.987   7.171  12.037  0.00  0.00    +0.000 A 
ATOM      7  C   UNL     1      47.547   6.763  13.249  0.00  0.00    +0.000 A 
ATOM      8  C   UNL     1      47.143   5.569  13.880  0.00  0.00    +0.000 A 
ATOM      9  C   UNL     1      46.125   4.826  13.254  0.00  0.00    +0.000 A 
BRANCH   8  10
ATOM     10  C   UNL     1      47.647   5.177  15.201  0.00  0.00    +0.000 A 
ATOM     11  C   UNL     1      47.175   4.037  15.861  0.00  0.00    +0.000 A 
ATOM     12  C   UNL     1      47.607   3.740  17.153  0.00  0.00    +0.000 A 
ATOM     13  C   UNL     1      48.520   4.588  17.751  0.00  0.00    +0.000 A 
ATOM     14  N   UNL     1      49.014   5.692  17.157  0.00  0.00    +0.000 NA
ATOM     15  C   UNL     1      48.566   5.960  15.907  0.00  0.00    +0.000 A 
ENDBRANCH   8  10
ENDBRANCH   1   4
BRANCH   1  16
ATOM     16  N   UNL     1      43.941   4.601  10.192  0.00  0.00    +0.000 N 
ATOM     17  H   UNL     1      43.002   4.751   9.838  0.00  0.00    +0.000 HD
BRANCH  16  21
ATOM     18  C   UNL     1      46.635   2.671   7.550  0.00  0.00    +0.000 A 
ATOM     19  C   UNL     1      45.879   1.908   8.441  0.00  0.00    +0.000 A 
ATOM     20  C   UNL     1      44.984   2.533   9.321  0.00  0.00    +0.000 A 
ATOM     21  C   UNL     1      44.790   3.921   9.297  0.00  0.00    +0.000 A 
ATOM     22  C   UNL     1      45.570   4.674   8.406  0.00  0.00    +0.000 A 
ATOM     23  C   UNL     1      46.484   4.058   7.540  0.00  0.00    +0.000 A 
BRANCH  18  25
ATOM     24  N   UNL     1      48.332   1.536   5.939  0.00  0.00    +0.000 NA
ATOM     25  C   UNL     1      47.574   2.037   6.663  0.00  0.00    +0.000 C 
ENDBRANCH  18  25
ENDBRANCH  16  21
ENDBRANCH   1  16
TORSDOF 5
ENDMDL
MODEL 2
REMARK VINA RESULT:    -8.224      2.050      3.552
REMARK INTER + INTRA:         -11.478
REMARK INTER:                 -10.470
REMARK INTRA:                  -1.008
REMARK UNBOUND:                -0.850
REMARK  Name = 
REMARK  5 active torsions:
REMARK  status: ('A' for Active; 'I' for Inactive)
REMARK    1  A    between atoms: C_2  and  C_3
REMARK    2  A    between atoms: C_6  and  N_7
REMARK    3  A    between atoms: N_7  and  C_8
REMARK    4  A    between atoms: C_8  and  C_9
REMARK    5  A    between atoms: C_13  and  C_14
REMARK                            x       y       z     vdW  Elec       q    Type
REMARK                         _______ _______ _______ _____ _____    ______ ____
ROOT
ATOM      1  C   UNL     1      44.005   4.793  11.493  0.00  0.00    +0.000 C 
ATOM      2  C   UNL     1      43.101   3.659  11.951  0.00  0.00    +0.000 C 
ATOM      3  C   UNL     1      42.682   5.062  12.212  0.00  0.00    +0.000 C 
ENDROOT
BRANCH   1   4
ATOM      4  C   UNL     1      45.191   5.267  12.328  0.00  0.00    +0.000 A 
ATOM      5  C   UNL     1      45.792   4.412  13.268  0.00  0.00    +0.000 A 
ATOM      6  C   UNL     1      47.038   4.707  13.821  0.00  0.00    +0.000 A 
ATOM      7  C   UNL     1      47.698   5.880  13.447  0.00  0.00    +0.000 A 
ATOM      8  C   UNL     1      47.104   6.809  12.571  0.00  0.00    +0.000 A 
ATOM      9  C   UNL     1      45.833   6.489  12.061  0.00  0.00    +0.000 A 
BRANCH   8  10
ATOM     10  C   UNL     1      47.823   7.995  12.089  0.00  0.00    +0.000 A 
ATOM     11  C   UNL     1      49.153   7.926  11.658  0.00  0.00    +0.000 A 
ATOM     12  C   UNL     1      49.835   9.084  11.290  0.00  0.00    +0.000 A 
ATOM     13  C   UNL     1      49.163  10.290  11.350  0.00  0.00    +0.000 A 
ATOM     14  N   UNL     1      47.881  10.411  11.748  0.00  0.00    +0.000 NA
ATOM     15  C   UNL     1      47.249   9.269  12.109  0.00  0.00    +0.000 A 
ENDBRANCH   8  10
ENDBRANCH   1   4
BRANCH   1  16
ATOM     16  N   UNL     1      44.128   5.037  10.049  0.00  0.00    +0.000 N 
ATOM     17  H   UNL     1      43.366   5.518   9.580  0.00  0.00    +0.000 HD
BRANCH  16  21
ATOM     18  C   UNL     1      46.726   2.837   7.525  0.00  0.00    +0.000 A 
ATOM     19  C   UNL     1      45.806   2.159   8.325  0.00  0.00    +0.000 A 
ATOM     20  C   UNL     1      44.940   2.874   9.165  0.00  0.00    +0.000 A 
ATOM     21  C   UNL     1      44.941   4.274   9.187  0.00  0.00    +0.000 A 
ATOM     22  C   UNL     1      45.884   4.940   8.389  0.00  0.00    +0.000 A 
ATOM     23  C   UNL     1      46.769   4.231   7.565  0.00  0.00    +0.000 A 
BRANCH  18  25
ATOM     24  N   UNL     1      48.368   1.529   5.989  0.00  0.00    +0.000 NA
ATOM     25  C   UNL     1      47.635   2.108   6.680  0.00  0.00    +0.000 C 
ENDBRANCH  18  25
ENDBRANCH  16  21
ENDBRANCH   1  16
TORSDOF 5
ENDMDL
MODEL 3
REMARK VINA RESULT:    -8.092      1.560      2.314
REMARK INTER + INTRA:         -11.307
REMARK INTER:                 -10.433
REMARK INTRA:                  -0.874
REMARK UNBOUND:                -0.850
REMARK  Name = 
REMARK  5 active torsions:
REMARK  status: ('A' for Active; 'I' for Inactive)
REMARK    1  A    between atoms: C_2  and  C_3
REMARK    2  A    between atoms: C_6  and  N_7
REMARK    3  A    between atoms: N_7  and  C_8
REMARK    4  A    between atoms: C_8  and  C_9
REMARK    5  A    between atoms: C_13  and  C_14
REMARK                            x       y       z     vdW  Elec       q    Type
REMARK                         _______ _______ _______ _____ _____    ______ ____
ROOT
ATOM      1  C   UNL     1      44.105   4.508  11.644  0.00  0.00    +0.000 C 
ATOM      2  C   UNL     1      44.302   3.486  12.754  0.00  0.00    +0.000 C 
ATOM      3  C   UNL     1      43.134   4.405  12.822  0.00  0.00    +0.000 C 
ENDROOT
BRANCH   1   4
ATOM      4  C   UNL     1      44.831   5.850  11.646  0.00  0.00    +0.000 A 
ATOM      5  C   UNL     1      44.171   7.022  11.234  0.00  0.00    +0.000 A 
ATOM      6  C   UNL     1      44.703   8.283  11.503  0.00  0.00    +0.000 A 
ATOM      7  C   UNL     1      45.920   8.388  12.180  0.00  0.00    +0.000 A 
ATOM      8  C   UNL     1      46.660   7.246  12.543  0.00  0.00    +0.000 A 
ATOM      9  C   UNL     1      46.103   5.993  12.226  0.00  0.00    +0.000 A 
BRANCH   8  10
ATOM     10  C   UNL     1      47.887   7.334  13.343  0.00  0.00    +0.000 A 
ATOM     11  C   UNL     1      48.944   8.178  12.980  0.00  0.00    +0.000 A 
ATOM     12  C   UNL     1      50.132   8.173  13.709  0.00  0.00    +0.000 A 
ATOM     13  C   UNL     1      50.230   7.330  14.800  0.00  0.00    +0.000 A 
ATOM     14  N   UNL     1      49.240   6.506  15.198  0.00  0.00    +0.000 NA
ATOM     15  C   UNL     1      48.103   6.525  14.462  0.00  0.00    +0.000 A 
ENDBRANCH   8  10
ENDBRANCH   1   4
BRANCH   1  16
ATOM     16  N   UNL     1      43.714   4.017  10.315  0.00  0.00    +0.000 N 
ATOM     17  H   UNL     1      42.752   3.723  10.180  0.00  0.00    +0.000 HD
BRANCH  16  21
ATOM     18  C   UNL     1      46.562   2.510   7.562  0.00  0.00    +0.000 A 
ATOM     19  C   UNL     1      45.857   1.624   8.378  0.00  0.00    +0.000 A 
ATOM     20  C   UNL     1      44.913   2.108   9.293  0.00  0.00    +0.000 A 
ATOM     21  C   UNL     1      44.617   3.475   9.379  0.00  0.00    +0.000 A 
ATOM     22  C   UNL     1      45.346   4.353   8.563  0.00  0.00    +0.000 A 
ATOM     23  C   UNL     1      46.309   3.878   7.662  0.00  0.00    +0.000 A 
BRANCH  18  25
ATOM     24  N   UNL     1      48.341   1.621   5.885  0.00  0.00    +0.000 NA
ATOM     25  C   UNL     1      47.552   2.020   6.639  0.00  0.00    +0.000 C 
ENDBRANCH  18  25
ENDBRANCH  16  21
ENDBRANCH   1  16
TORSDOF 5
ENDMDL
MODEL 4
REMARK VINA RESULT:    -7.559      2.775      5.114
REMARK INTER + INTRA:         -10.618
REMARK INTER:                  -9.595
REMARK INTRA:                  -1.023
REMARK UNBOUND:                -0.850
REMARK  Name = 
REMARK  5 active torsions:
REMARK  status: ('A' for Active; 'I' for Inactive)
REMARK    1  A    between atoms: C_2  and  C_3
REMARK    2  A    between atoms: C_6  and  N_7
REMARK    3  A    between atoms: N_7  and  C_8
REMARK    4  A    between atoms: C_8  and  C_9
REMARK    5  A    between atoms: C_13  and  C_14
REMARK                            x       y       z     vdW  Elec       q    Type
REMARK                         _______ _______ _______ _____ _____    ______ ____
ROOT
ATOM      1  C   UNL     1      44.643   4.282  11.814  0.00  0.00    +0.000 C 
ATOM      2  C   UNL     1      45.077   3.109  12.679  0.00  0.00    +0.000 C 
ATOM      3  C   UNL     1      43.791   3.790  12.985  0.00  0.00    +0.000 C 
ENDROOT
BRANCH   1   4
ATOM      4  C   UNL     1      45.153   5.699  12.063  0.00  0.00    +0.000 A 
ATOM      5  C   UNL     1      46.478   5.921  12.477  0.00  0.00    +0.000 A 
ATOM      6  C   UNL     1      47.048   7.192  12.424  0.00  0.00    +0.000 A 
ATOM      7  C   UNL     1      46.289   8.271  11.965  0.00  0.00    +0.000 A 
ATOM      8  C   UNL     1      44.933   8.118  11.614  0.00  0.00    +0.000 A 
ATOM      9  C   UNL     1      44.387   6.824  11.712  0.00  0.00    +0.000 A 
BRANCH   8  10
ATOM     10  C   UNL     1      44.150   9.215  11.035  0.00  0.00    +0.000 A 
ATOM     11  C   UNL     1      44.718  10.466  10.768  0.00  0.00    +0.000 A 
ATOM     12  C   UNL     1      43.927  11.515  10.302  0.00  0.00    +0.000 A 
ATOM     13  C   UNL     1      42.580  11.282  10.098  0.00  0.00    +0.000 A 
ATOM     14  N   UNL     1      41.985  10.095  10.329  0.00  0.00    +0.000 NA
ATOM     15  C   UNL     1      42.778   9.099  10.793  0.00  0.00    +0.000 A 
ENDBRANCH   8  10
ENDBRANCH   1   4
BRANCH   1  16
ATOM     16  N   UNL     1      44.233   4.005  10.430  0.00  0.00    +0.000 N 
ATOM     17  H   UNL     1      43.264   3.756  10.261  0.00  0.00    +0.000 HD
BRANCH  16  21
ATOM     18  C   UNL     1      46.756   2.646   7.308  0.00  0.00    +0.000 A 
ATOM     19  C   UNL     1      46.618   4.016   7.535  0.00  0.00    +0.000 A 
ATOM     20  C   UNL     1      45.787   4.480   8.564  0.00  0.00    +0.000 A 
ATOM     21  C   UNL     1      45.118   3.590   9.415  0.00  0.00    +0.000 A 
ATOM     22  C   UNL     1      45.255   2.217   9.163  0.00  0.00    +0.000 A 
ATOM     23  C   UNL     1      46.065   1.746   8.121  0.00  0.00    +0.000 A 
BRANCH  18  25
ATOM     24  N   UNL     1      48.268   1.784   5.375  0.00  0.00    +0.000 NA
ATOM     25  C   UNL     1      47.588   2.164   6.237  0.00  0.00    +0.000 C 
ENDBRANCH  18  25
ENDBRANCH  16  21
ENDBRANCH   1  16
TORSDOF 5
ENDMDL
MODEL 5
REMARK VINA RESULT:    -6.574      2.496      3.769
REMARK INTER + INTRA:          -9.346
REMARK INTER:                  -8.576
REMARK INTRA:                  -0.769
REMARK UNBOUND:                -0.850
REMARK  Name = 
REMARK  5 active torsions:
REMARK  status: ('A' for Active; 'I' for Inactive)
REMARK    1  A    between atoms: C_2  and  C_3
REMARK    2  A    between atoms: C_6  and  N_7
REMARK    3  A    between atoms: N_7  and  C_8
REMARK    4  A    between atoms: C_8  and  C_9
REMARK    5  A    between atoms: C_13  and  C_14
REMARK                            x       y       z     vdW  Elec       q    Type
REMARK                         _______ _______ _______ _____ _____    ______ ____
ROOT
ATOM      1  C   UNL     1      45.642   5.055  12.448  0.00  0.00    +0.000 C 
ATOM      2  C   UNL     1      46.573   4.095  13.174  0.00  0.00    +0.000 C 
ATOM      3  C   UNL     1      45.472   4.742  13.936  0.00  0.00    +0.000 C 
ENDROOT
BRANCH   1   4
ATOM      4  C   UNL     1      46.004   6.522  12.233  0.00  0.00    +0.000 A 
ATOM      5  C   UNL     1      45.070   7.537  12.503  0.00  0.00    +0.000 A 
ATOM      6  C   UNL     1      45.462   8.872  12.600  0.00  0.00    +0.000 A 
ATOM      7  C   UNL     1      46.803   9.213  12.410  0.00  0.00    +0.000 A 
ATOM      8  C   UNL     1      47.764   8.245  12.058  0.00  0.00    +0.000 A 
ATOM      9  C   UNL     1      47.321   6.915  11.940  0.00  0.00    +0.000 A 
BRANCH   8  10
ATOM     10  C   UNL     1      49.192   8.567  11.955  0.00  0.00    +0.000 A 
ATOM     11  C   UNL     1      50.080   7.758  11.235  0.00  0.00    +0.000 A 
ATOM     12  C   UNL     1      51.444   8.040  11.230  0.00  0.00    +0.000 A 
ATOM     13  C   UNL     1      51.890   9.141  11.937  0.00  0.00    +0.000 A 
ATOM     14  N   UNL     1      51.078   9.958  12.637  0.00  0.00    +0.000 NA
ATOM     15  C   UNL     1      49.759   9.650  12.632  0.00  0.00    +0.000 A 
ENDBRANCH   8  10
ENDBRANCH   1   4
BRANCH   1  16
ATOM     16  N   UNL     1      44.708   4.496  11.461  0.00  0.00    +0.000 N 
ATOM     17  H   UNL     1      43.853   4.069  11.802  0.00  0.00    +0.000 HD
BRANCH  16  21
ATOM     18  C   UNL     1      46.011   3.310   7.607  0.00  0.00    +0.000 A 
ATOM     19  C   UNL     1      45.486   2.356   8.480  0.00  0.00    +0.000 A 
ATOM     20  C   UNL     1      45.052   2.734   9.757  0.00  0.00    +0.000 A 
ATOM     21  C   UNL     1      45.086   4.072  10.171  0.00  0.00    +0.000 A 
ATOM     22  C   UNL     1      45.631   5.015   9.287  0.00  0.00    +0.000 A 
ATOM     23  C   UNL     1      46.090   4.641   8.017  0.00  0.00    +0.000 A 
BRANCH  18  25
ATOM     24  N   UNL     1      46.867   2.599   5.255  0.00  0.00    +0.000 NA
ATOM     25  C   UNL     1      46.483   2.923   6.303  0.00  0.00    +0.000 C 
ENDBRANCH  18  25
ENDBRANCH  16  21
ENDBRANCH   1  16
TORSDOF 5
ENDMDL
MODEL 6
REMARK VINA RESULT:    -6.147      2.484      6.805
REMARK INTER + INTRA:          -8.794
REMARK INTER:                  -8.386
REMARK INTRA:                  -0.408
REMARK UNBOUND:                -0.850
REMARK  Name = 
REMARK  5 active torsions:
REMARK  status: ('A' for Active; 'I' for Inactive)
REMARK    1  A    between atoms: C_2  and  C_3
REMARK    2  A    between atoms: C_6  and  N_7
REMARK    3  A    between atoms: N_7  and  C_8
REMARK    4  A    between atoms: C_8  and  C_9
REMARK    5  A    between atoms: C_13  and  C_14
REMARK                            x       y       z     vdW  Elec       q    Type
REMARK                         _______ _______ _______ _____ _____    ______ ____
ROOT
ATOM      1  C   UNL     1      46.264   4.977  13.971  0.00  0.00    +0.000 C 
ATOM      2  C   UNL     1      46.396   4.174  15.257  0.00  0.00    +0.000 C 
ATOM      3  C   UNL     1      47.307   3.868  14.122  0.00  0.00    +0.000 C 
ENDROOT
BRANCH   1   4
ATOM      4  C   UNL     1      45.235   4.622  12.901  0.00  0.00    +0.000 A 
ATOM      5  C   UNL     1      43.910   5.083  13.001  0.00  0.00    +0.000 A 
ATOM      6  C   UNL     1      43.042   5.027  11.911  0.00  0.00    +0.000 A 
ATOM      7  C   UNL     1      43.488   4.492  10.700  0.00  0.00    +0.000 A 
ATOM      8  C   UNL     1      44.779   3.944  10.571  0.00  0.00    +0.000 A 
ATOM      9  C   UNL     1      45.613   3.991  11.703  0.00  0.00    +0.000 A 
BRANCH   8  10
ATOM     10  C   UNL     1      45.299   3.471   9.282  0.00  0.00    +0.000 A 
ATOM     11  C   UNL     1      45.532   2.113   9.035  0.00  0.00    +0.000 A 
ATOM     12  C   UNL     1      46.111   1.704   7.835  0.00  0.00    +0.000 A 
ATOM     13  C   UNL     1      46.431   2.668   6.898  0.00  0.00    +0.000 A 
ATOM     14  N   UNL     1      46.218   3.986   7.080  0.00  0.00    +0.000 NA
ATOM     15  C   UNL     1      45.666   4.353   8.262  0.00  0.00    +0.000 A 
ENDBRANCH   8  10
ENDBRANCH   1   4
BRANCH   1  16
ATOM     16  N   UNL     1      46.672   6.388  13.994  0.00  0.00    +0.000 N 
ATOM     17  H   UNL     1      45.956   7.089  14.155  0.00  0.00    +0.000 HD
BRANCH  16  21
ATOM     18  C   UNL     1      50.039   8.016  12.000  0.00  0.00    +0.000 A 
ATOM     19  C   UNL     1      50.106   7.764  13.371  0.00  0.00    +0.000 A 
ATOM     20  C   UNL     1      49.000   7.227  14.044  0.00  0.00    +0.000 A 
ATOM     21  C   UNL     1      47.827   6.884  13.358  0.00  0.00    +0.000 A 
ATOM     22  C   UNL     1      47.772   7.158  11.983  0.00  0.00    +0.000 A 
ATOM     23  C   UNL     1      48.865   7.718  11.308  0.00  0.00    +0.000 A 
BRANCH  18  25
ATOM     24  N   UNL     1      52.064   9.069  10.753  0.00  0.00    +0.000 NA
ATOM     25  C   UNL     1      51.163   8.592  11.309  0.00  0.00    +0.000 C 
ENDBRANCH  18  25
ENDBRANCH  16  21
ENDBRANCH   1  16
TORSDOF 5
ENDMDL
MODEL 7
REMARK VINA RESULT:    -6.094      2.227      7.906
REMARK INTER + INTRA:          -8.725
REMARK INTER:                  -7.894
REMARK INTRA:                  -0.831
REMARK UNBOUND:                -0.850
REMARK  Name = 
REMARK  5 active torsions:
REMARK  status: ('A' for Active; 'I' for Inactive)
REMARK    1  A    between atoms: C_2  and  C_3
REMARK    2  A    between atoms: C_6  and  N_7
REMARK    3  A    between atoms: N_7  and  C_8
REMARK    4  A    between atoms: C_8  and  C_9
REMARK    5  A    between atoms: C_13  and  C_14
REMARK                            x       y       z     vdW  Elec       q    Type
REMARK                         _______ _______ _______ _____ _____    ______ ____
ROOT
ATOM      1  C   UNL     1      48.667   8.029  12.681  0.00  0.00    +0.000 C 
ATOM      2  C   UNL     1      49.796   7.489  11.816  0.00  0.00    +0.000 C 
ATOM      3  C   UNL     1      49.270   8.853  11.542  0.00  0.00    +0.000 C 
ENDROOT
BRANCH   1   4
ATOM      4  C   UNL     1      47.205   7.691  12.401  0.00  0.00    +0.000 A 
ATOM      5  C   UNL     1      46.200   8.659  12.579  0.00  0.00    +0.000 A 
ATOM      6  C   UNL     1      44.920   8.475  12.056  0.00  0.00    +0.000 A 
ATOM      7  C   UNL     1      44.623   7.304  11.355  0.00  0.00    +0.000 A 
ATOM      8  C   UNL     1      45.568   6.270  11.218  0.00  0.00    +0.000 A 
ATOM      9  C   UNL     1      46.838   6.481  11.787  0.00  0.00    +0.000 A 
BRANCH   8  10
ATOM     10  C   UNL     1      45.308   5.079  10.401  0.00  0.00    +0.000 A 
ATOM     11  C   UNL     1      45.704   5.004   9.060  0.00  0.00    +0.000 A 
ATOM     12  C   UNL     1      45.363   3.897   8.286  0.00  0.00    +0.000 A 
ATOM     13  C   UNL     1      44.643   2.876   8.879  0.00  0.00    +0.000 A 
ATOM     14  N   UNL     1      44.246   2.893  10.166  0.00  0.00    +0.000 NA
ATOM     15  C   UNL     1      44.582   3.988  10.889  0.00  0.00    +0.000 A 
ENDBRANCH   8  10
ENDBRANCH   1   4
BRANCH   1  16
ATOM     16  N   UNL     1      48.969   8.364  14.079  0.00  0.00    +0.000 N 
ATOM     17  H   UNL     1      49.167   9.333  14.305  0.00  0.00    +0.000 HD
BRANCH  16  21
ATOM     18  C   UNL     1      50.552   5.734  17.002  0.00  0.00    +0.000 A 
ATOM     19  C   UNL     1      49.201   5.653  16.663  0.00  0.00    +0.000 A 
ATOM     20  C   UNL     1      48.663   6.517  15.698  0.00  0.00    +0.000 A 
ATOM     21  C   UNL     1      49.469   7.441  15.020  0.00  0.00    +0.000 A 
ATOM     22  C   UNL     1      50.822   7.519  15.384  0.00  0.00    +0.000 A 
ATOM     23  C   UNL     1      51.361   6.675  16.365  0.00  0.00    +0.000 A 
BRANCH  18  25
ATOM     24  N   UNL     1      51.552   4.179  18.831  0.00  0.00    +0.000 NA
ATOM     25  C   UNL     1      51.103   4.868  18.010  0.00  0.00    +0.000 C 
ENDBRANCH  18  25
ENDBRANCH  16  21
ENDBRANCH   1  16
TORSDOF 5
ENDMDL
MODEL 8
REMARK VINA RESULT:    -6.036      2.854      4.685
REMARK INTER + INTRA:          -8.650
REMARK INTER:                  -7.980
REMARK INTRA:                  -0.670
REMARK UNBOUND:                -0.850
REMARK  Name = 
REMARK  5 active torsions:
REMARK  status: ('A' for Active; 'I' for Inactive)
REMARK    1  A    between atoms: C_2  and  C_3
REMARK    2  A    between atoms: C_6  and  N_7
REMARK    3  A    between atoms: N_7  and  C_8
REMARK    4  A    between atoms: C_8  and  C_9
REMARK    5  A    between atoms: C_13  and  C_14
REMARK                            x       y       z     vdW  Elec       q    Type
REMARK                         _______ _______ _______ _____ _____    ______ ____
ROOT
ATOM      1  C   UNL     1      48.082   8.065  12.598  0.00  0.00    +0.000 C 
ATOM      2  C   UNL     1      48.877   8.877  11.586  0.00  0.00    +0.000 C 
ATOM      3  C   UNL     1      49.043   7.399  11.612  0.00  0.00    +0.000 C 
ENDROOT
BRANCH   1   4
ATOM      4  C   UNL     1      48.556   7.882  14.037  0.00  0.00    +0.000 A 
ATOM      5  C   UNL     1      48.874   8.997  14.833  0.00  0.00    +0.000 A 
ATOM      6  C   UNL     1      49.019   8.879  16.215  0.00  0.00    +0.000 A 
ATOM      7  C   UNL     1      48.862   7.631  16.822  0.00  0.00    +0.000 A 
ATOM      8  C   UNL     1      48.623   6.470  16.061  0.00  0.00    +0.000 A 
ATOM      9  C   UNL     1      48.514   6.626  14.667  0.00  0.00    +0.000 A 
BRANCH   8  10
ATOM     10  C   UNL     1      48.355   5.170  16.687  0.00  0.00    +0.000 A 
ATOM     11  C   UNL     1      49.341   4.476  17.398  0.00  0.00    +0.000 A 
ATOM     12  C   UNL     1      49.082   3.204  17.904  0.00  0.00    +0.000 A 
ATOM     13  C   UNL     1      47.830   2.657  17.699  0.00  0.00    +0.000 A 
ATOM     14  N   UNL     1      46.842   3.285  17.031  0.00  0.00    +0.000 NA
ATOM     15  C   UNL     1      47.129   4.515  16.541  0.00  0.00    +0.000 A 
ENDBRANCH   8  10
ENDBRANCH   1   4
BRANCH   1  16
ATOM     16  N   UNL     1      46.629   7.956  12.406  0.00  0.00    +0.000 N 
ATOM     17  H   UNL     1      46.042   8.690  12.790  0.00  0.00    +0.000 HD
BRANCH  16  21
ATOM     18  C   UNL     1      44.454   4.366  11.823  0.00  0.00    +0.000 A 
ATOM     19  C   UNL     1      44.978   5.041  10.719  0.00  0.00    +0.000 A 
ATOM     20  C   UNL     1      45.699   6.230  10.897  0.00  0.00    +0.000 A 
ATOM     21  C   UNL     1      45.954   6.741  12.176  0.00  0.00    +0.000 A 
ATOM     22  C   UNL     1      45.407   6.058  13.273  0.00  0.00    +0.000 A 
ATOM     23  C   UNL     1      44.665   4.882  13.102  0.00  0.00    +0.000 A 
BRANCH  18  25
ATOM     24  N   UNL     1      43.072   2.188  11.488  0.00  0.00    +0.000 NA
ATOM     25  C   UNL     1      43.691   3.159  11.644  0.00  0.00    +0.000 C 
ENDBRANCH  18  25
ENDBRANCH  16  21
ENDBRANCH   1  16
TORSDOF 5
ENDMDL
MODEL 9
REMARK VINA RESULT:    -5.988      2.930      7.669
REMARK INTER + INTRA:          -8.588
REMARK INTER:                  -7.477
REMARK INTRA:                  -1.111
REMARK UNBOUND:                -0.850
REMARK  Name = 
REMARK  5 active torsions:
REMARK  status: ('A' for Active; 'I' for Inactive)
REMARK    1  A    between atoms: C_2  and  C_3
REMARK    2  A    between atoms: C_6  and  N_7
REMARK    3  A    between atoms: N_7  and  C_8
REMARK    4  A    between atoms: C_8  and  C_9
REMARK    5  A    between atoms: C_13  and  C_14
REMARK                            x       y       z     vdW  Elec       q    Type
REMARK                         _______ _______ _______ _____ _____    ______ ____
ROOT
ATOM      1  C   UNL     1      48.704   8.180  16.492  0.00  0.00    +0.000 C 
ATOM      2  C   UNL     1      49.637   9.200  17.128  0.00  0.00    +0.000 C 
ATOM      3  C   UNL     1      48.237   9.598  16.824  0.00  0.00    +0.000 C 
ENDROOT
BRANCH   1   4
ATOM      4  C   UNL     1      48.687   7.934  14.985  0.00  0.00    +0.000 A 
ATOM      5  C   UNL     1      49.799   8.268  14.192  0.00  0.00    +0.000 A 
ATOM      6  C   UNL     1      49.925   7.789  12.888  0.00  0.00    +0.000 A 
ATOM      7  C   UNL     1      48.925   6.976  12.351  0.00  0.00    +0.000 A 
ATOM      8  C   UNL     1      47.754   6.678  13.074  0.00  0.00    +0.000 A 
ATOM      9  C   UNL     1      47.651   7.206  14.375  0.00  0.00    +0.000 A 
BRANCH   8  10
ATOM     10  C   UNL     1      46.741   5.745  12.567  0.00  0.00    +0.000 A 
ATOM     11  C   UNL     1      46.065   5.973  11.363  0.00  0.00    +0.000 A 
ATOM     12  C   UNL     1      45.046   5.116  10.953  0.00  0.00    +0.000 A 
ATOM     13  C   UNL     1      44.735   4.034  11.756  0.00  0.00    +0.000 A 
ATOM     14  N   UNL     1      45.360   3.762  12.918  0.00  0.00    +0.000 NA
ATOM     15  C   UNL     1      46.338   4.621  13.294  0.00  0.00    +0.000 A 
ENDBRANCH   8  10
ENDBRANCH   1   4
BRANCH   1  16
ATOM     16  N   UNL     1      48.263   7.042  17.310  0.00  0.00    +0.000 N 
ATOM     17  H   UNL     1      47.669   7.233  18.110  0.00  0.00    +0.000 HD
BRANCH  16  21
ATOM     18  C   UNL     1      50.231   3.290  17.375  0.00  0.00    +0.000 A 
ATOM     19  C   UNL     1      50.981   4.462  17.482  0.00  0.00    +0.000 A 
ATOM     20  C   UNL     1      50.343   5.710  17.462  0.00  0.00    +0.000 A 
ATOM     21  C   UNL     1      48.948   5.813  17.384  0.00  0.00    +0.000 A 
ATOM     22  C   UNL     1      48.211   4.625  17.261  0.00  0.00    +0.000 A 
ATOM     23  C   UNL     1      48.844   3.374  17.256  0.00  0.00    +0.000 A 
BRANCH  18  25
ATOM     24  N   UNL     1      51.416   0.974  17.354  0.00  0.00    +0.000 NA
ATOM     25  C   UNL     1      50.883   2.006  17.369  0.00  0.00    +0.000 C 
ENDBRANCH  18  25
ENDBRANCH  16  21
ENDBRANCH   1  16
TORSDOF 5
ENDMDL
