MODEL 1
REMARK VINA RESULT:    -7.497      0.000      0.000
REMARK INTER + INTRA:         -11.655
REMARK INTER:                 -10.565
REMARK INTRA:                  -1.090
REMARK UNBOUND:                -1.090
REMARK  Name = 
REMARK  7 active torsions:
REMARK  status: ('A' for Active; 'I' for Inactive)
REMARK    1  A    between atoms: C_2  and  C_3
REMARK    2  A    between atoms: C_7  and  C_8
REMARK    3  A    between atoms: N_10  and  C_11
REMARK    4  A    between atoms: C_11  and  C_12
REMARK    5  A    between atoms: C_15  and  C_16
REMARK    6  A    between atoms: C_16  and  N_17
REMARK    7  A    between atoms: C_18  and  C_20
REMARK                            x       y       z     vdW  Elec       q    Type
REMARK                         _______ _______ _______ _____ _____    ______ ____
ROOT
ATOM      1  C   UNL     1      45.132   6.845  11.871  0.00  0.00    +0.000 A 
ATOM      2  C   UNL     1      46.194   6.167  12.485  0.00  0.00    +0.000 A 
ATOM      3  C   UNL     1      47.107   6.849  13.300  0.00  0.00    +0.000 A 
ATOM      4  C   UNL     1      46.965   8.224  13.536  0.00  0.00    +0.000 A 
ATOM      5  C   UNL     1      45.911   8.903  12.910  0.00  0.00    +0.000 A 
ATOM      6  C   UNL     1      44.997   8.220  12.098  0.00  0.00    +0.000 A 
ENDROOT
BRANCH   1   7
ATOM      7  C   UNL     1      44.161   6.108  10.984  0.00  0.00    +0.000 C 
BRANCH   7  10
ATOM      8  C   UNL     1      44.917   4.075   9.846  0.00  0.00    +0.000 C 
ATOM      9  O   UNL     1      44.450   3.350  10.716  0.00  0.00    +0.000 OA
ATOM     10  N   UNL     1      44.822   5.451   9.875  0.00  0.00    +0.000 N 
ATOM     11  H   UNL     1      45.396   6.014   9.264  0.00  0.00    +0.000 HD
BRANCH   8  16
ATOM     12  C   UNL     1      46.461   1.466   7.591  0.00  0.00    +0.000 A 
ATOM     13  C   UNL     1      46.950   2.249   6.542  0.00  0.00    +0.000 A 
ATOM     14  C   UNL     1      46.786   3.636   6.564  0.00  0.00    +0.000 A 
ATOM     15  C   UNL     1      46.138   4.248   7.641  0.00  0.00    +0.000 A 
ATOM     16  C   UNL     1      45.652   3.472   8.700  0.00  0.00    +0.000 A 
ATOM     17  C   UNL     1      45.806   2.077   8.668  0.00  0.00    +0.000 A 
BRANCH  12  19
ATOM     18  N   UNL     1      46.762  -1.113   7.558  0.00  0.00    +0.000 NA
ATOM     19  C   UNL     1      46.629   0.041   7.565  0.00  0.00    +0.000 C 
ENDBRANCH  12  19
ENDBRANCH   8  16
ENDBRANCH   7  10
ENDBRANCH   1   7
BRANCH   4  20
ATOM     20  C   UNL     1      47.929   8.969  14.427  0.00  0.00    +0.000 C 
BRANCH  20  21
ATOM     21  N   UNL     1      48.150   8.282  15.673  0.00  0.00    +0.000 N 
ATOM     22  C   UNL     1      49.419   8.015  16.125  0.00  0.00    +0.000 C 
ATOM     23  O   UNL     1      50.421   8.380  15.514  0.00  0.00    +0.000 OA
ATOM     24  H   UNL     1      47.370   7.754  16.051  0.00  0.00    +0.000 HD
BRANCH  22  25
ATOM     25  C   UNL     1      49.520   7.321  17.415  0.00  0.00    +0.000 A 
ATOM     26  C   UNL     1      50.076   7.968  18.511  0.00  0.00    +0.000 A 
ATOM     27  S   UNL     1      50.063   7.032  19.937  0.00  0.00    +0.000 S 
ATOM     28  C   UNL     1      49.362   5.709  19.129  0.00  0.00    +0.000 A 
ATOM     29  N   UNL     1      49.103   4.544  19.781  0.00  0.00    +0.000 NA
ATOM     30  C   UNL     1      48.599   3.617  19.038  0.00  0.00    +0.000 A 
ATOM     31  N   UNL     1      48.322   3.751  17.702  0.00  0.00    +0.000 N 
ATOM     32  C   UNL     1      48.539   4.916  17.009  0.00  0.00    +0.000 A 
ATOM     33  O   UNL     1      48.238   5.017  15.824  0.00  0.00    +0.000 OA
ATOM     34  C   UNL     1      49.121   5.986  17.794  0.00  0.00    +0.000 A 
ATOM     35  H   UNL     1      47.914   2.990  17.179  0.00  0.00    +0.000 HD
ENDBRANCH  22  25
ENDBRANCH  20  21
ENDBRANCH   4  20
TORSDOF 7
ENDMDL
MODEL 2
REMARK VINA RESULT:    -6.860      4.636      8.993
REMARK INTER + INTRA:         -10.756
REMARK INTER:                  -9.656
REMARK INTRA:                  -1.100
REMARK UNBOUND:                -1.090
REMARK  Name = 
REMARK  7 active torsions:
REMARK  status: ('A' for Active; 'I' for Inactive)
REMARK    1  A    between atoms: C_2  and  C_3
REMARK    2  A    between atoms: C_7  and  C_8
REMARK    3  A    between atoms: N_10  and  C_11
REMARK    4  A    between atoms: C_11  and  C_12
REMARK    5  A    between atoms: C_15  and  C_16
REMARK    6  A    between atoms: C_16  and  N_17
REMARK    7  A    between atoms: C_18  and  C_20
REMARK                            x       y       z     vdW  Elec       q    Type
REMARK                         _______ _______ _______ _____ _____    ______ ____
ROOT
ATOM      1  C   UNL     1      49.589   4.628  17.583  0.00  0.00    +0.000 A 
ATOM      2  C   UNL     1      50.381   5.740  17.264  0.00  0.00    +0.000 A 
ATOM      3  C   UNL     1      49.964   6.667  16.301  0.00  0.00    +0.000 A 
ATOM      4  C   UNL     1      48.733   6.515  15.648  0.00  0.00    +0.000 A 
ATOM      5  C   UNL     1      47.948   5.395  15.957  0.00  0.00    +0.000 A 
ATOM      6  C   UNL     1      48.364   4.470  16.922  0.00  0.00    +0.000 A 
ENDROOT
BRANCH   1   7
ATOM      7  C   UNL     1      50.050   3.625  18.610  0.00  0.00    +0.000 C 
BRANCH   7  10
ATOM      8  C   UNL     1      51.675   2.076  17.632  0.00  0.00    +0.000 C 
ATOM      9  O   UNL     1      50.797   1.401  17.107  0.00  0.00    +0.000 OA
ATOM     10  N   UNL     1      51.416   3.201  18.387  0.00  0.00    +0.000 N 
ATOM     11  H   UNL     1      52.138   3.598  18.972  0.00  0.00    +0.000 HD
BRANCH   8  16
ATOM     12  C   UNL     1      54.709  -0.016  16.799  0.00  0.00    +0.000 A 
ATOM     13  C   UNL     1      55.753   0.862  17.105  0.00  0.00    +0.000 A 
ATOM     14  C   UNL     1      55.476   2.141  17.593  0.00  0.00    +0.000 A 
ATOM     15  C   UNL     1      54.152   2.547  17.784  0.00  0.00    +0.000 A 
ATOM     16  C   UNL     1      53.100   1.671  17.486  0.00  0.00    +0.000 A 
ATOM     17  C   UNL     1      53.382   0.392  16.983  0.00  0.00    +0.000 A 
BRANCH  12  19
ATOM     18  N   UNL     1      55.222  -2.398  15.902  0.00  0.00    +0.000 NA
ATOM     19  C   UNL     1      54.996  -1.329  16.297  0.00  0.00    +0.000 C 
ENDBRANCH  12  19
ENDBRANCH   8  16
ENDBRANCH   7  10
ENDBRANCH   1   7
BRANCH   4  20
ATOM     20  C   UNL     1      48.260   7.516  14.623  0.00  0.00    +0.000 C 
BRANCH  20  21
ATOM     21  N   UNL     1      47.026   7.109  14.003  0.00  0.00    +0.000 N 
ATOM     22  C   UNL     1      47.007   6.559  12.744  0.00  0.00    +0.000 C 
ATOM     23  O   UNL     1      48.037   6.353  12.106  0.00  0.00    +0.000 OA
ATOM     24  H   UNL     1      46.170   7.499  14.384  0.00  0.00    +0.000 HD
BRANCH  22  25
ATOM     25  C   UNL     1      45.692   6.170  12.221  0.00  0.00    +0.000 A 
ATOM     26  C   UNL     1      44.859   7.127  11.654  0.00  0.00    +0.000 A 
ATOM     27  S   UNL     1      43.396   6.488  11.052  0.00  0.00    +0.000 S 
ATOM     28  C   UNL     1      43.801   4.920  11.573  0.00  0.00    +0.000 A 
ATOM     29  N   UNL     1      42.948   3.876  11.388  0.00  0.00    +0.000 NA
ATOM     30  C   UNL     1      43.372   2.751  11.859  0.00  0.00    +0.000 A 
ATOM     31  N   UNL     1      44.575   2.573  12.492  0.00  0.00    +0.000 N 
ATOM     32  C   UNL     1      45.479   3.590  12.675  0.00  0.00    +0.000 A 
ATOM     33  O   UNL     1      46.566   3.387  13.205  0.00  0.00    +0.000 OA
ATOM     34  C   UNL     1      45.045   4.881  12.178  0.00  0.00    +0.000 A 
ATOM     35  H   UNL     1      44.854   1.663  12.827  0.00  0.00    +0.000 HD
ENDBRANCH  22  25
ENDBRANCH  20  21
ENDBRANCH   4  20
TORSDOF 7
ENDMDL
MODEL 3
REMARK VINA RESULT:    -6.723      2.511      3.250
REMARK INTER + INTRA:         -10.564
REMARK INTER:                  -9.399
REMARK INTRA:                  -1.165
REMARK UNBOUND:                -1.090
REMARK  Name = 
REMARK  7 active torsions:
REMARK  status: ('A' for Active; 'I' for Inactive)
REMARK    1  A    between atoms: C_2  and  C_3
REMARK    2  A    between atoms: C_7  and  C_8
REMARK    3  A    between atoms: N_10  and  C_11
REMARK    4  A    between atoms: C_11  and  C_12
REMARK    5  A    between atoms: C_15  and  C_16
REMARK    6  A    between atoms: C_16  and  N_17
REMARK    7  A    between atoms: C_18  and  C_20
REMARK                            x       y       z     vdW  Elec       q    Type
REMARK                         _______ _______ _______ _____ _____    ______ ____
ROOT
ATOM      1  C   UNL     1      46.330   7.877  12.222  0.00  0.00    +0.000 A 
ATOM      2  C   UNL     1      46.360   8.762  13.309  0.00  0.00    +0.000 A 
ATOM      3  C   UNL     1      47.503   8.877  14.111  0.00  0.00    +0.000 A 
ATOM      4  C   UNL     1      48.651   8.124  13.831  0.00  0.00    +0.000 A 
ATOM      5  C   UNL     1      48.615   7.229  12.752  0.00  0.00    +0.000 A 
ATOM      6  C   UNL     1      47.474   7.116  11.949  0.00  0.00    +0.000 A 
ENDROOT
BRANCH   1   7
ATOM      7  C   UNL     1      45.092   7.747  11.372  0.00  0.00    +0.000 C 
BRANCH   7  10
ATOM      8  C   UNL     1      44.514   5.396  11.000  0.00  0.00    +0.000 C 
ATOM      9  O   UNL     1      43.932   5.313  12.075  0.00  0.00    +0.000 OA
ATOM     10  N   UNL     1      45.114   6.555  10.550  0.00  0.00    +0.000 N 
ATOM     11  H   UNL     1      45.758   6.525   9.773  0.00  0.00    +0.000 HD
BRANCH   8  16
ATOM     12  C   UNL     1      45.500   3.191   8.095  0.00  0.00    +0.000 A 
ATOM     13  C   UNL     1      44.930   1.967   8.460  0.00  0.00    +0.000 A 
ATOM     14  C   UNL     1      44.214   1.853   9.652  0.00  0.00    +0.000 A 
ATOM     15  C   UNL     1      44.057   2.965  10.485  0.00  0.00    +0.000 A 
ATOM     16  C   UNL     1      44.618   4.197  10.124  0.00  0.00    +0.000 A 
ATOM     17  C   UNL     1      45.349   4.304   8.932  0.00  0.00    +0.000 A 
BRANCH  12  19
ATOM     18  N   UNL     1      46.845   3.395   5.884  0.00  0.00    +0.000 NA
ATOM     19  C   UNL     1      46.237   3.305   6.869  0.00  0.00    +0.000 C 
ENDBRANCH  12  19
ENDBRANCH   8  16
ENDBRANCH   7  10
ENDBRANCH   1   7
BRANCH   4  20
ATOM     20  C   UNL     1      49.897   8.251  14.673  0.00  0.00    +0.000 C 
BRANCH  20  21
ATOM     21  N   UNL     1      50.263   7.000  15.285  0.00  0.00    +0.000 N 
ATOM     22  C   UNL     1      49.716   6.605  16.481  0.00  0.00    +0.000 C 
ATOM     23  O   UNL     1      48.866   7.274  17.064  0.00  0.00    +0.000 OA
ATOM     24  H   UNL     1      51.127   6.571  14.971  0.00  0.00    +0.000 HD
BRANCH  22  25
ATOM     25  C   UNL     1      50.155   5.303  17.001  0.00  0.00    +0.000 A 
ATOM     26  C   UNL     1      49.225   4.300  17.238  0.00  0.00    +0.000 A 
ATOM     27  S   UNL     1      49.918   2.841  17.788  0.00  0.00    +0.000 S 
ATOM     28  C   UNL     1      51.480   3.515  17.779  0.00  0.00    +0.000 A 
ATOM     29  N   UNL     1      52.560   2.790  18.176  0.00  0.00    +0.000 NA
ATOM     30  C   UNL     1      53.677   3.436  18.146  0.00  0.00    +0.000 A 
ATOM     31  N   UNL     1      53.814   4.741  17.748  0.00  0.00    +0.000 N 
ATOM     32  C   UNL     1      52.758   5.502  17.313  0.00  0.00    +0.000 A 
ATOM     33  O   UNL     1      52.922   6.653  16.920  0.00  0.00    +0.000 OA
ATOM     34  C   UNL     1      51.475   4.828  17.341  0.00  0.00    +0.000 A 
ATOM     35  H   UNL     1      54.719   5.187  17.735  0.00  0.00    +0.000 HD
ENDBRANCH  22  25
ENDBRANCH  20  21
ENDBRANCH   4  20
TORSDOF 7
ENDMDL
MODEL 4
REMARK VINA RESULT:    -6.698      2.761      3.964
REMARK INTER + INTRA:         -10.528
REMARK INTER:                  -9.548
REMARK INTRA:                  -0.981
REMARK UNBOUND:                -1.090
REMARK  Name = 
REMARK  7 active torsions:
REMARK  status: ('A' for Active; 'I' for Inactive)
REMARK    1  A    between atoms: C_2  and  C_3
REMARK    2  A    between atoms: C_7  and  C_8
REMARK    3  A    between atoms: N_10  and  C_11
REMARK    4  A    between atoms: C_11  and  C_12
REMARK    5  A    between atoms: C_15  and  C_16
REMARK    6  A    between atoms: C_16  and  N_17
REMARK    7  A    between atoms: C_18  and  C_20
REMARK                            x       y       z     vdW  Elec       q    Type
REMARK                         _______ _______ _______ _____ _____    ______ ____
ROOT
ATOM      1  C   UNL     1      47.919   7.981  13.562  0.00  0.00    +0.000 A 
ATOM      2  C   UNL     1      47.941   9.068  14.447  0.00  0.00    +0.000 A 
ATOM      3  C   UNL     1      48.315   8.898  15.786  0.00  0.00    +0.000 A 
ATOM      4  C   UNL     1      48.697   7.638  16.266  0.00  0.00    +0.000 A 
ATOM      5  C   UNL     1      48.662   6.549  15.384  0.00  0.00    +0.000 A 
ATOM      6  C   UNL     1      48.291   6.720  14.045  0.00  0.00    +0.000 A 
ENDROOT
BRANCH   1   7
ATOM      7  C   UNL     1      47.502   8.168  12.126  0.00  0.00    +0.000 C 
BRANCH   7  10
ATOM      8  C   UNL     1      45.644   6.765  11.365  0.00  0.00    +0.000 C 
ATOM      9  O   UNL     1      44.810   7.608  11.675  0.00  0.00    +0.000 OA
ATOM     10  N   UNL     1      47.002   6.944  11.536  0.00  0.00    +0.000 N 
ATOM     11  H   UNL     1      47.630   6.156  11.472  0.00  0.00    +0.000 HD
BRANCH   8  16
ATOM     12  C   UNL     1      45.275   3.878   8.956  0.00  0.00    +0.000 A 
ATOM     13  C   UNL     1      44.476   2.996   9.689  0.00  0.00    +0.000 A 
ATOM     14  C   UNL     1      44.046   3.338  10.973  0.00  0.00    +0.000 A 
ATOM     15  C   UNL     1      44.406   4.569  11.528  0.00  0.00    +0.000 A 
ATOM     16  C   UNL     1      45.199   5.462  10.798  0.00  0.00    +0.000 A 
ATOM     17  C   UNL     1      45.641   5.110   9.514  0.00  0.00    +0.000 A 
BRANCH  12  19
ATOM     18  N   UNL     1      46.088   3.237   6.575  0.00  0.00    +0.000 NA
ATOM     19  C   UNL     1      45.716   3.524   7.638  0.00  0.00    +0.000 C 
ENDBRANCH  12  19
ENDBRANCH   8  16
ENDBRANCH   7  10
ENDBRANCH   1   7
BRANCH   4  20
ATOM     20  C   UNL     1      49.122   7.442  17.701  0.00  0.00    +0.000 C 
BRANCH  20  21
ATOM     21  N   UNL     1      50.192   6.486  17.819  0.00  0.00    +0.000 N 
ATOM     22  C   UNL     1      50.188   5.527  18.803  0.00  0.00    +0.000 C 
ATOM     23  O   UNL     1      49.260   5.415  19.601  0.00  0.00    +0.000 OA
ATOM     24  H   UNL     1      51.067   6.716  17.358  0.00  0.00    +0.000 HD
BRANCH  22  25
ATOM     25  C   UNL     1      51.326   4.599  18.816  0.00  0.00    +0.000 A 
ATOM     26  C   UNL     1      52.487   4.932  19.502  0.00  0.00    +0.000 A 
ATOM     27  S   UNL     1      53.681   3.715  19.454  0.00  0.00    +0.000 S 
ATOM     28  C   UNL     1      52.710   2.722  18.472  0.00  0.00    +0.000 A 
ATOM     29  N   UNL     1      53.157   1.514  18.035  0.00  0.00    +0.000 NA
ATOM     30  C   UNL     1      52.328   0.882  17.274  0.00  0.00    +0.000 A 
ATOM     31  N   UNL     1      51.088   1.344  16.917  0.00  0.00    +0.000 N 
ATOM     32  C   UNL     1      50.583   2.542  17.357  0.00  0.00    +0.000 A 
ATOM     33  O   UNL     1      49.451   2.906  17.055  0.00  0.00    +0.000 OA
ATOM     34  C   UNL     1      51.483   3.302  18.203  0.00  0.00    +0.000 A 
ATOM     35  H   UNL     1      50.480   0.794  16.328  0.00  0.00    +0.000 HD
ENDBRANCH  22  25
ENDBRANCH  20  21
ENDBRANCH   4  20
TORSDOF 7
ENDMDL
MODEL 5
REMARK VINA RESULT:    -6.634      5.767      7.928
REMARK INTER + INTRA:         -10.438
REMARK INTER:                  -9.497
REMARK INTRA:                  -0.942
REMARK UNBOUND:                -1.090
REMARK  Name = 
REMARK  7 active torsions:
REMARK  status: ('A' for Active; 'I' for Inactive)
REMARK    1  A    between atoms: C_2  and  C_3
REMARK    2  A    between atoms: C_7  and  C_8
REMARK    3  A    between atoms: N_10  and  C_11
REMARK    4  A    between atoms: C_11  and  C_12
REMARK    5  A    between atoms: C_15  and  C_16
REMARK    6  A    between atoms: C_16  and  N_17
REMARK    7  A    between atoms: C_18  and  C_20
REMARK                            x       y       z     vdW  Elec       q    Type
REMARK                         _______ _______ _______ _____ _____    ______ ____
ROOT
ATOM      1  C   UNL     1      49.199   7.212  13.909  0.00  0.00    +0.000 A 
ATOM      2  C   UNL     1      50.299   7.832  14.519  0.00  0.00    +0.000 A 
ATOM      3  C   UNL     1      51.193   8.608  13.770  0.00  0.00    +0.000 A 
ATOM      4  C   UNL     1      50.995   8.800  12.395  0.00  0.00    +0.000 A 
ATOM      5  C   UNL     1      49.902   8.169  11.785  0.00  0.00    +0.000 A 
ATOM      6  C   UNL     1      49.007   7.395  12.534  0.00  0.00    +0.000 A 
ENDROOT
BRANCH   1   7
ATOM      7  C   UNL     1      48.249   6.366  14.717  0.00  0.00    +0.000 C 
BRANCH   7  10
ATOM      8  C   UNL     1      46.694   4.769  13.701  0.00  0.00    +0.000 C 
ATOM      9  O   UNL     1      47.380   3.809  14.031  0.00  0.00    +0.000 OA
ATOM     10  N   UNL     1      47.026   6.076  13.999  0.00  0.00    +0.000 N 
ATOM     11  H   UNL     1      46.557   6.839  13.532  0.00  0.00    +0.000 HD
BRANCH   8  16
ATOM     12  C   UNL     1      44.343   3.435  11.061  0.00  0.00    +0.000 A 
ATOM     13  C   UNL     1      43.130   4.019  11.438  0.00  0.00    +0.000 A 
ATOM     14  C   UNL     1      43.070   4.858  12.553  0.00  0.00    +0.000 A 
ATOM     15  C   UNL     1      44.226   5.124  13.293  0.00  0.00    +0.000 A 
ATOM     16  C   UNL     1      45.447   4.550  12.918  0.00  0.00    +0.000 A 
ATOM     17  C   UNL     1      45.501   3.696  11.806  0.00  0.00    +0.000 A 
BRANCH  12  19
ATOM     18  N   UNL     1      44.453   1.863   8.998  0.00  0.00    +0.000 NA
ATOM     19  C   UNL     1      44.402   2.573   9.916  0.00  0.00    +0.000 C 
ENDBRANCH  12  19
ENDBRANCH   8  16
ENDBRANCH   7  10
ENDBRANCH   1   7
BRANCH   4  20
ATOM     20  C   UNL     1      51.938   9.650  11.579  0.00  0.00    +0.000 C 
BRANCH  20  21
ATOM     21  N   UNL     1      52.118   9.127  10.250  0.00  0.00    +0.000 N 
ATOM     22  C   UNL     1      53.332   8.638   9.834  0.00  0.00    +0.000 C 
ATOM     23  O   UNL     1      54.306   8.586  10.581  0.00  0.00    +0.000 OA
ATOM     24  H   UNL     1      51.429   9.394   9.554  0.00  0.00    +0.000 HD
BRANCH  22  25
ATOM     25  C   UNL     1      53.392   8.119   8.461  0.00  0.00    +0.000 A 
ATOM     26  C   UNL     1      53.275   8.988   7.384  0.00  0.00    +0.000 A 
ATOM     27  S   UNL     1      53.421   8.220   5.868  0.00  0.00    +0.000 S 
ATOM     28  C   UNL     1      53.594   6.693   6.595  0.00  0.00    +0.000 A 
ATOM     29  N   UNL     1      53.735   5.568   5.843  0.00  0.00    +0.000 NA
ATOM     30  C   UNL     1      53.826   4.477   6.526  0.00  0.00    +0.000 A 
ATOM     31  N   UNL     1      53.797   4.407   7.895  0.00  0.00    +0.000 N 
ATOM     32  C   UNL     1      53.685   5.517   8.695  0.00  0.00    +0.000 A 
ATOM     33  O   UNL     1      53.707   5.425   9.918  0.00  0.00    +0.000 OA
ATOM     34  C   UNL     1      53.563   6.770   7.976  0.00  0.00    +0.000 A 
ATOM     35  H   UNL     1      53.886   3.522   8.371  0.00  0.00    +0.000 HD
ENDBRANCH  22  25
ENDBRANCH  20  21
ENDBRANCH   4  20
TORSDOF 7
ENDMDL
MODEL 6
REMARK VINA RESULT:    -6.624      3.923      9.014
REMARK INTER + INTRA:         -10.424
REMARK INTER:                  -9.443
REMARK INTRA:                  -0.982
REMARK UNBOUND:                -1.090
REMARK  Name = 
REMARK  7 active torsions:
REMARK  status: ('A' for Active; 'I' for Inactive)
REMARK    1  A    between atoms: C_2  and  C_3
REMARK    2  A    between atoms: C_7  and  C_8
REMARK    3  A    between atoms: N_10  and  C_11
REMARK    4  A    between atoms: C_11  and  C_12
REMARK    5  A    between atoms: C_15  and  C_16
REMARK    6  A    between atoms: C_16  and  N_17
REMARK    7  A    between atoms: C_18  and  C_20
REMARK                            x       y       z     vdW  Elec       q    Type
REMARK                         _______ _______ _______ _____ _____    ______ ____
ROOT
ATOM      1  C   UNL     1      50.129   7.503  15.661  0.00  0.00    +0.000 A 
ATOM      2  C   UNL     1      50.822   7.898  14.508  0.00  0.00    +0.000 A 
ATOM      3  C   UNL     1      50.141   8.143  13.308  0.00  0.00    +0.000 A 
ATOM      4  C   UNL     1      48.746   8.018  13.240  0.00  0.00    +0.000 A 
ATOM      5  C   UNL     1      48.056   7.610  14.390  0.00  0.00    +0.000 A 
ATOM      6  C   UNL     1      48.736   7.369  15.589  0.00  0.00    +0.000 A 
ENDROOT
BRANCH   1   7
ATOM      7  C   UNL     1      50.868   7.227  16.945  0.00  0.00    +0.000 C 
BRANCH   7  10
ATOM      8  C   UNL     1      50.687   4.862  17.555  0.00  0.00    +0.000 C 
ATOM      9  O   UNL     1      49.567   5.014  18.027  0.00  0.00    +0.000 OA
ATOM     10  N   UNL     1      51.415   5.887  16.986  0.00  0.00    +0.000 N 
ATOM     11  H   UNL     1      52.402   5.771  16.807  0.00  0.00    +0.000 HD
BRANCH   8  16
ATOM     12  C   UNL     1      53.299   2.194  18.134  0.00  0.00    +0.000 A 
ATOM     13  C   UNL     1      52.595   1.031  17.808  0.00  0.00    +0.000 A 
ATOM     14  C   UNL     1      51.265   1.108  17.389  0.00  0.00    +0.000 A 
ATOM     15  C   UNL     1      50.633   2.351  17.288  0.00  0.00    +0.000 A 
ATOM     16  C   UNL     1      51.332   3.521  17.606  0.00  0.00    +0.000 A 
ATOM     17  C   UNL     1      52.664   3.439  18.039  0.00  0.00    +0.000 A 
BRANCH  12  19
ATOM     18  N   UNL     1      55.773   2.059  18.908  0.00  0.00    +0.000 NA
ATOM     19  C   UNL     1      54.664   2.112  18.565  0.00  0.00    +0.000 C 
ENDBRANCH  12  19
ENDBRANCH   8  16
ENDBRANCH   7  10
ENDBRANCH   1   7
BRANCH   4  20
ATOM     20  C   UNL     1      47.996   8.298  11.961  0.00  0.00    +0.000 C 
BRANCH  20  21
ATOM     21  N   UNL     1      47.375   7.112  11.431  0.00  0.00    +0.000 N 
ATOM     22  C   UNL     1      46.011   7.022  11.293  0.00  0.00    +0.000 C 
ATOM     23  O   UNL     1      45.263   7.955  11.575  0.00  0.00    +0.000 OA
ATOM     24  H   UNL     1      47.927   6.261  11.441  0.00  0.00    +0.000 HD
BRANCH  22  25
ATOM     25  C   UNL     1      45.493   5.769  10.730  0.00  0.00    +0.000 A 
ATOM     26  C   UNL     1      45.710   5.467   9.392  0.00  0.00    +0.000 A 
ATOM     27  S   UNL     1      45.086   3.949   8.924  0.00  0.00    +0.000 S 
ATOM     28  C   UNL     1      44.459   3.665  10.479  0.00  0.00    +0.000 A 
ATOM     29  N   UNL     1      43.766   2.529  10.760  0.00  0.00    +0.000 NA
ATOM     30  C   UNL     1      43.323   2.459  11.971  0.00  0.00    +0.000 A 
ATOM     31  N   UNL     1      43.517   3.419  12.930  0.00  0.00    +0.000 N 
ATOM     32  C   UNL     1      44.234   4.568  12.701  0.00  0.00    +0.000 A 
ATOM     33  O   UNL     1      44.428   5.386  13.594  0.00  0.00    +0.000 OA
ATOM     34  C   UNL     1      44.741   4.703  11.349  0.00  0.00    +0.000 A 
ATOM     35  H   UNL     1      43.156   3.299  13.864  0.00  0.00    +0.000 HD
ENDBRANCH  22  25
ENDBRANCH  20  21
ENDBRANCH   4  20
TORSDOF 7
ENDMDL
MODEL 7
REMARK VINA RESULT:    -6.470      3.435      9.450
REMARK INTER + INTRA:         -10.207
REMARK INTER:                  -9.129
REMARK INTRA:                  -1.077
REMARK UNBOUND:                -1.090
REMARK  Name = 
REMARK  7 active torsions:
REMARK  status: ('A' for Active; 'I' for Inactive)
REMARK    1  A    between atoms: C_2  and  C_3
REMARK    2  A    between atoms: C_7  and  C_8
REMARK    3  A    between atoms: N_10  and  C_11
REMARK    4  A    between atoms: C_11  and  C_12
REMARK    5  A    between atoms: C_15  and  C_16
REMARK    6  A    between atoms: C_16  and  N_17
REMARK    7  A    between atoms: C_18  and  C_20
REMARK                            x       y       z     vdW  Elec       q    Type
REMARK                         _______ _______ _______ _____ _____    ______ ____
ROOT
ATOM      1  C   UNL     1      50.524   8.114  14.015  0.00  0.00    +0.000 A 
ATOM      2  C   UNL     1      50.336   8.968  12.919  0.00  0.00    +0.000 A 
ATOM      3  C   UNL     1      49.136   8.956  12.196  0.00  0.00    +0.000 A 
ATOM      4  C   UNL     1      48.087   8.102  12.565  0.00  0.00    +0.000 A 
ATOM      5  C   UNL     1      48.282   7.239  13.653  0.00  0.00    +0.000 A 
ATOM      6  C   UNL     1      49.479   7.254  14.377  0.00  0.00    +0.000 A 
ENDROOT
BRANCH   1   7
ATOM      7  C   UNL     1      51.822   8.121  14.780  0.00  0.00    +0.000 C 
BRANCH   7  10
ATOM      8  C   UNL     1      52.339   7.103  16.947  0.00  0.00    +0.000 C 
ATOM      9  O   UNL     1      52.545   8.192  17.471  0.00  0.00    +0.000 OA
ATOM     10  N   UNL     1      51.967   6.955  15.627  0.00  0.00    +0.000 N 
ATOM     11  H   UNL     1      52.017   6.050  15.183  0.00  0.00    +0.000 HD
BRANCH   8  16
ATOM     12  C   UNL     1      52.091   3.476  17.974  0.00  0.00    +0.000 A 
ATOM     13  C   UNL     1      52.866   3.455  19.138  0.00  0.00    +0.000 A 
ATOM     14  C   UNL     1      53.470   4.626  19.601  0.00  0.00    +0.000 A 
ATOM     15  C   UNL     1      53.297   5.827  18.906  0.00  0.00    +0.000 A 
ATOM     16  C   UNL     1      52.516   5.858  17.744  0.00  0.00    +0.000 A 
ATOM     17  C   UNL     1      51.922   4.677  17.274  0.00  0.00    +0.000 A 
BRANCH  12  19
ATOM     18  N   UNL     1      50.968   1.293  17.130  0.00  0.00    +0.000 NA
ATOM     19  C   UNL     1      51.472   2.271  17.500  0.00  0.00    +0.000 C 
ENDBRANCH  12  19
ENDBRANCH   8  16
ENDBRANCH   7  10
ENDBRANCH   1   7
BRANCH   4  20
ATOM     20  C   UNL     1      46.782   8.092  11.809  0.00  0.00    +0.000 C 
BRANCH  20  21
ATOM     21  N   UNL     1      46.292   6.754  11.601  0.00  0.00    +0.000 N 
ATOM     22  C   UNL     1      44.951   6.503  11.437  0.00  0.00    +0.000 C 
ATOM     23  O   UNL     1      44.115   7.404  11.419  0.00  0.00    +0.000 OA
ATOM     24  H   UNL     1      46.907   5.993  11.867  0.00  0.00    +0.000 HD
BRANCH  22  25
ATOM     25  C   UNL     1      44.571   5.102  11.218  0.00  0.00    +0.000 A 
ATOM     26  C   UNL     1      43.802   4.435  12.164  0.00  0.00    +0.000 A 
ATOM     27  S   UNL     1      43.412   2.834  11.721  0.00  0.00    +0.000 S 
ATOM     28  C   UNL     1      44.299   2.958  10.275  0.00  0.00    +0.000 A 
ATOM     29  N   UNL     1      44.400   1.905   9.420  0.00  0.00    +0.000 NA
ATOM     30  C   UNL     1      45.127   2.132   8.378  0.00  0.00    +0.000 A 
ATOM     31  N   UNL     1      45.758   3.319   8.108  0.00  0.00    +0.000 N 
ATOM     32  C   UNL     1      45.661   4.417   8.926  0.00  0.00    +0.000 A 
ATOM     33  O   UNL     1      46.201   5.479   8.633  0.00  0.00    +0.000 OA
ATOM     34  C   UNL     1      44.867   4.211  10.121  0.00  0.00    +0.000 A 
ATOM     35  H   UNL     1      46.303   3.436   7.267  0.00  0.00    +0.000 HD
ENDBRANCH  22  25
ENDBRANCH  20  21
ENDBRANCH   4  20
TORSDOF 7
ENDMDL
MODEL 8
REMARK VINA RESULT:    -6.124      3.147      9.719
REMARK INTER + INTRA:          -9.720
REMARK INTER:                  -9.325
REMARK INTRA:                  -0.395
REMARK UNBOUND:                -1.090
REMARK  Name = 
REMARK  7 active torsions:
REMARK  status: ('A' for Active; 'I' for Inactive)
REMARK    1  A    between atoms: C_2  and  C_3
REMARK    2  A    between atoms: C_7  and  C_8
REMARK    3  A    between atoms: N_10  and  C_11
REMARK    4  A    between atoms: C_11  and  C_12
REMARK    5  A    between atoms: C_15  and  C_16
REMARK    6  A    between atoms: C_16  and  N_17
REMARK    7  A    between atoms: C_18  and  C_20
REMARK                            x       y       z     vdW  Elec       q    Type
REMARK                         _______ _______ _______ _____ _____    ______ ____
ROOT
ATOM      1  C   UNL     1      46.612   7.517  12.978  0.00  0.00    +0.000 A 
ATOM      2  C   UNL     1      45.554   8.106  12.269  0.00  0.00    +0.000 A 
ATOM      3  C   UNL     1      44.738   7.340  11.428  0.00  0.00    +0.000 A 
ATOM      4  C   UNL     1      44.948   5.960  11.291  0.00  0.00    +0.000 A 
ATOM      5  C   UNL     1      46.014   5.376  11.988  0.00  0.00    +0.000 A 
ATOM      6  C   UNL     1      46.828   6.141  12.832  0.00  0.00    +0.000 A 
ENDROOT
BRANCH   1   7
ATOM      7  C   UNL     1      47.496   8.350  13.870  0.00  0.00    +0.000 C 
BRANCH   7  10
ATOM      8  C   UNL     1      49.551   7.575  14.953  0.00  0.00    +0.000 C 
ATOM      9  O   UNL     1      50.258   8.261  14.224  0.00  0.00    +0.000 OA
ATOM     10  N   UNL     1      48.174   7.552  14.870  0.00  0.00    +0.000 N 
ATOM     11  H   UNL     1      47.649   6.824  15.333  0.00  0.00    +0.000 HD
BRANCH   8  16
ATOM     12  C   UNL     1      49.940   4.865  17.557  0.00  0.00    +0.000 A 
ATOM     13  C   UNL     1      51.306   4.938  17.842  0.00  0.00    +0.000 A 
ATOM     14  C   UNL     1      52.111   5.876  17.193  0.00  0.00    +0.000 A 
ATOM     15  C   UNL     1      51.552   6.752  16.259  0.00  0.00    +0.000 A 
ATOM     16  C   UNL     1      50.183   6.692  15.972  0.00  0.00    +0.000 A 
ATOM     17  C   UNL     1      49.379   5.738  16.616  0.00  0.00    +0.000 A 
BRANCH  12  19
ATOM     18  N   UNL     1      48.456   3.119  18.777  0.00  0.00    +0.000 NA
ATOM     19  C   UNL     1      49.115   3.899  18.225  0.00  0.00    +0.000 C 
ENDBRANCH  12  19
ENDBRANCH   8  16
ENDBRANCH   7  10
ENDBRANCH   1   7
BRANCH   4  20
ATOM     20  C   UNL     1      44.065   5.117  10.404  0.00  0.00    +0.000 C 
BRANCH  20  21
ATOM     21  N   UNL     1      44.832   4.225   9.574  0.00  0.00    +0.000 N 
ATOM     22  C   UNL     1      44.617   2.868   9.598  0.00  0.00    +0.000 C 
ATOM     23  O   UNL     1      43.742   2.357  10.292  0.00  0.00    +0.000 OA
ATOM     24  H   UNL     1      45.708   4.579   9.205  0.00  0.00    +0.000 HD
BRANCH  22  25
ATOM     25  C   UNL     1      45.450   2.060   8.698  0.00  0.00    +0.000 A 
ATOM     26  C   UNL     1      45.386   0.673   8.750  0.00  0.00    +0.000 A 
ATOM     27  S   UNL     1      46.380  -0.101   7.600  0.00  0.00    +0.000 S 
ATOM     28  C   UNL     1      46.971   1.388   7.026  0.00  0.00    +0.000 A 
ATOM     29  N   UNL     1      47.900   1.440   6.034  0.00  0.00    +0.000 NA
ATOM     30  C   UNL     1      48.278   2.633   5.719  0.00  0.00    +0.000 A 
ATOM     31  N   UNL     1      47.807   3.781   6.302  0.00  0.00    +0.000 N 
ATOM     32  C   UNL     1      46.850   3.779   7.286  0.00  0.00    +0.000 A 
ATOM     33  O   UNL     1      46.417   4.827   7.755  0.00  0.00    +0.000 OA
ATOM     34  C   UNL     1      46.400   2.461   7.688  0.00  0.00    +0.000 A 
ATOM     35  H   UNL     1      48.135   4.687   6.001  0.00  0.00    +0.000 HD
ENDBRANCH  22  25
ENDBRANCH  20  21
ENDBRANCH   4  20
TORSDOF 7
ENDMDL
MODEL 9
REMARK VINA RESULT:    -6.116      5.193      8.109
REMARK INTER + INTRA:          -9.709
REMARK INTER:                  -9.039
REMARK INTRA:                  -0.671
REMARK UNBOUND:                -1.090
REMARK  Name = 
REMARK  7 active torsions:
REMARK  status: ('A' for Active; 'I' for Inactive)
REMARK    1  A    between atoms: C_2  and  C_3
REMARK    2  A    between atoms: C_7  and  C_8
REMARK    3  A    between atoms: N_10  and  C_11
REMARK    4  A    between atoms: C_11  and  C_12
REMARK    5  A    between atoms: C_15  and  C_16
REMARK    6  A    between atoms: C_16  and  N_17
REMARK    7  A    between atoms: C_18  and  C_20
REMARK                            x       y       z     vdW  Elec       q    Type
REMARK                         _______ _______ _______ _____ _____    ______ ____
ROOT
ATOM      1  C   UNL     1      49.877   8.582  12.535  0.00  0.00    +0.000 A 
ATOM      2  C   UNL     1      49.075   9.486  13.245  0.00  0.00    +0.000 A 
ATOM      3  C   UNL     1      47.678   9.433  13.155  0.00  0.00    +0.000 A 
ATOM      4  C   UNL     1      47.050   8.458  12.366  0.00  0.00    +0.000 A 
ATOM      5  C   UNL     1      47.853   7.564  11.646  0.00  0.00    +0.000 A 
ATOM      6  C   UNL     1      49.249   7.616  11.738  0.00  0.00    +0.000 A 
ENDROOT
BRANCH   1   7
ATOM      7  C   UNL     1      51.380   8.654  12.624  0.00  0.00    +0.000 C 
BRANCH   7  10
ATOM      8  C   UNL     1      52.502   8.249  10.486  0.00  0.00    +0.000 C 
ATOM      9  O   UNL     1      52.421   9.427  10.158  0.00  0.00    +0.000 OA
ATOM     10  N   UNL     1      52.029   7.761  11.687  0.00  0.00    +0.000 N 
ATOM     11  H   UNL     1      51.921   6.767  11.825  0.00  0.00    +0.000 HD
BRANCH   8  16
ATOM     12  C   UNL     1      53.796   6.718   7.282  0.00  0.00    +0.000 A 
ATOM     13  C   UNL     1      54.323   5.506   7.738  0.00  0.00    +0.000 A 
ATOM     14  C   UNL     1      54.254   5.175   9.093  0.00  0.00    +0.000 A 
ATOM     15  C   UNL     1      53.652   6.052   9.999  0.00  0.00    +0.000 A 
ATOM     16  C   UNL     1      53.114   7.265   9.551  0.00  0.00    +0.000 A 
ATOM     17  C   UNL     1      53.197   7.600   8.191  0.00  0.00    +0.000 A 
BRANCH  12  19
ATOM     18  N   UNL     1      53.919   7.319   4.760  0.00  0.00    +0.000 NA
ATOM     19  C   UNL     1      53.868   7.057   5.890  0.00  0.00    +0.000 C 
ENDBRANCH  12  19
ENDBRANCH   8  16
ENDBRANCH   7  10
ENDBRANCH   1   7
BRANCH   4  20
ATOM     20  C   UNL     1      45.546   8.375  12.275  0.00  0.00    +0.000 C 
BRANCH  20  21
ATOM     21  N   UNL     1      45.109   7.108  11.749  0.00  0.00    +0.000 N 
ATOM     22  C   UNL     1      45.174   5.962  12.504  0.00  0.00    +0.000 C 
ATOM     23  O   UNL     1      45.567   5.967  13.668  0.00  0.00    +0.000 OA
ATOM     24  H   UNL     1      45.033   7.031  10.740  0.00  0.00    +0.000 HD
BRANCH  22  25
ATOM     25  C   UNL     1      44.687   4.732  11.866  0.00  0.00    +0.000 A 
ATOM     26  C   UNL     1      43.923   3.828  12.592  0.00  0.00    +0.000 A 
ATOM     27  S   UNL     1      43.400   2.485  11.678  0.00  0.00    +0.000 S 
ATOM     28  C   UNL     1      44.219   3.038  10.293  0.00  0.00    +0.000 A 
ATOM     29  N   UNL     1      44.204   2.324   9.136  0.00  0.00    +0.000 NA
ATOM     30  C   UNL     1      44.892   2.847   8.177  0.00  0.00    +0.000 A 
ATOM     31  N   UNL     1      45.588   4.024   8.267  0.00  0.00    +0.000 N 
ATOM     32  C   UNL     1      45.610   4.793   9.405  0.00  0.00    +0.000 A 
ATOM     33  O   UNL     1      46.206   5.864   9.438  0.00  0.00    +0.000 OA
ATOM     34  C   UNL     1      44.864   4.242  10.519  0.00  0.00    +0.000 A 
ATOM     35  H   UNL     1      46.098   4.387   7.475  0.00  0.00    +0.000 HD
ENDBRANCH  22  25
ENDBRANCH  20  21
ENDBRANCH   4  20
TORSDOF 7
ENDMDL
