MODEL 1
REMARK VINA RESULT:    -7.879      0.000      0.000
REMARK INTER + INTRA:         -11.915
REMARK INTER:                 -10.643
REMARK INTRA:                  -1.272
REMARK UNBOUND:                -1.272
REMARK  Name = 
REMARK  6 active torsions:
REMARK  status: ('A' for Active; 'I' for Inactive)
REMARK    1  A    between atoms: C_2  and  C_18
REMARK    2  A    between atoms: N_3  and  C_4
REMARK    3  A    between atoms: C_4  and  C_5
REMARK    4  A    between atoms: C_8  and  C_9
REMARK    5  A    between atoms: C_9  and  N_10
REMARK    6  A    between atoms: N_10  and  C_11
REMARK                            x       y       z     vdW  Elec       q    Type
REMARK                         _______ _______ _______ _____ _____    ______ ____
ROOT
ATOM      1  C   UNL     1      46.797   7.774  13.217  0.00  0.00    +0.000 C 
ENDROOT
BRANCH   1   2
ATOM      2  C   UNL     1      46.084   6.730  12.412  0.00  0.00    +0.000 A 
ATOM      3  C   UNL     1      45.173   5.854  13.001  0.00  0.00    +0.000 A 
ATOM      4  C   UNL     1      44.537   4.891  12.222  0.00  0.00    +0.000 A 
ATOM      5  C   UNL     1      44.823   4.824  10.859  0.00  0.00    +0.000 A 
ATOM      6  N   UNL     1      45.716   5.660  10.269  0.00  0.00    +0.000 NA
ATOM      7  C   UNL     1      46.334   6.571  11.054  0.00  0.00    +0.000 A 
BRANCH   5   8
ATOM      8  C   UNL     1      44.088   3.830   9.975  0.00  0.00    +0.000 C 
BRANCH   8   9
ATOM      9  N   UNL     1      44.144   4.168   8.552  0.00  0.00    +0.000 NA
ATOM     10  H   UNL     1      44.497   5.113   8.428  0.00  0.00    +0.000 HD
BRANCH   9  11
ATOM     11  C   UNL     1      44.959   3.266   7.795  0.00  0.00    +0.000 C 
ATOM     12  C   UNL     1      45.530   2.067   8.538  0.00  0.00    +0.000 C 
ATOM     13  C   UNL     1      46.734   1.709   7.685  0.00  0.00    +0.000 C 
ATOM     14  C   UNL     1      47.185   3.043   7.100  0.00  0.00    +0.000 C 
ATOM     15  N   UNL     1      46.155   4.014   7.468  0.00  0.00    +0.000 NA
ATOM     16  H   UNL     1      45.949   4.652   6.702  0.00  0.00    +0.000 HD
ENDBRANCH   9  11
ENDBRANCH   8   9
ENDBRANCH   5   8
ENDBRANCH   1   2
BRANCH   1  19
ATOM     17  O   UNL     1      49.351   6.633  13.529  0.00  0.00    +0.000 OA
ATOM     18  C   UNL     1      48.618   6.733  14.510  0.00  0.00    +0.000 C 
ATOM     19  N   UNL     1      47.339   7.215  14.427  0.00  0.00    +0.000 N 
ATOM     20  H   UNL     1      46.849   7.451  15.283  0.00  0.00    +0.000 HD
BRANCH  18  21
ATOM     21  C   UNL     1      49.056   6.292  15.841  0.00  0.00    +0.000 A 
ATOM     22  C   UNL     1      49.987   7.044  16.545  0.00  0.00    +0.000 A 
ATOM     23  S   UNL     1      50.395   6.379  18.061  0.00  0.00    +0.000 S 
ATOM     24  C   UNL     1      49.304   5.090  17.854  0.00  0.00    +0.000 A 
ATOM     25  N   UNL     1      49.137   4.150  18.823  0.00  0.00    +0.000 NA
ATOM     26  C   UNL     1      48.243   3.258  18.552  0.00  0.00    +0.000 A 
ATOM     27  N   UNL     1      47.512   3.210  17.393  0.00  0.00    +0.000 N 
ATOM     28  C   UNL     1      47.708   4.088  16.354  0.00  0.00    +0.000 A 
ATOM     29  O   UNL     1      47.146   3.931  15.275  0.00  0.00    +0.000 OA
ATOM     30  C   UNL     1      48.662   5.147  16.630  0.00  0.00    +0.000 A 
ATOM     31  H   UNL     1      46.848   2.468  17.230  0.00  0.00    +0.000 HD
ENDBRANCH  18  21
ENDBRANCH   1  19
TORSDOF 6
ENDMDL
MODEL 2
REMARK VINA RESULT:    -7.508      1.478      1.643
REMARK INTER + INTRA:         -11.414
REMARK INTER:                 -10.496
REMARK INTRA:                  -0.918
REMARK UNBOUND:                -1.272
REMARK  Name = 
REMARK  6 active torsions:
REMARK  status: ('A' for Active; 'I' for Inactive)
REMARK    1  A    between atoms: C_2  and  C_18
REMARK    2  A    between atoms: N_3  and  C_4
REMARK    3  A    between atoms: C_4  and  C_5
REMARK    4  A    between atoms: C_8  and  C_9
REMARK    5  A    between atoms: C_9  and  N_10
REMARK    6  A    between atoms: N_10  and  C_11
REMARK                            x       y       z     vdW  Elec       q    Type
REMARK                         _______ _______ _______ _____ _____    ______ ____
ROOT
ATOM      1  C   UNL     1      48.133   6.909  13.484  0.00  0.00    +0.000 C 
ENDROOT
BRANCH   1   2
ATOM      2  C   UNL     1      47.063   6.135  12.776  0.00  0.00    +0.000 A 
ATOM      3  C   UNL     1      46.544   4.957  13.309  0.00  0.00    +0.000 A 
ATOM      4  C   UNL     1      45.556   4.261  12.618  0.00  0.00    +0.000 A 
ATOM      5  C   UNL     1      45.101   4.762  11.399  0.00  0.00    +0.000 A 
ATOM      6  N   UNL     1      45.602   5.901  10.857  0.00  0.00    +0.000 NA
ATOM      7  C   UNL     1      46.575   6.545  11.541  0.00  0.00    +0.000 A 
BRANCH   5   8
ATOM      8  C   UNL     1      43.973   4.059  10.661  0.00  0.00    +0.000 C 
BRANCH   8   9
ATOM      9  N   UNL     1      43.821   4.505   9.275  0.00  0.00    +0.000 NA
ATOM     10  H   UNL     1      44.150   5.461   9.174  0.00  0.00    +0.000 HD
BRANCH   9  11
ATOM     11  C   UNL     1      44.521   3.675   8.341  0.00  0.00    +0.000 C 
ATOM     12  C   UNL     1      45.150   2.402   8.889  0.00  0.00    +0.000 C 
ATOM     13  C   UNL     1      46.236   2.119   7.867  0.00  0.00    +0.000 C 
ATOM     14  C   UNL     1      46.644   3.499   7.366  0.00  0.00    +0.000 C 
ATOM     15  N   UNL     1      45.687   4.439   7.948  0.00  0.00    +0.000 NA
ATOM     16  H   UNL     1      45.405   5.152   7.278  0.00  0.00    +0.000 HD
ENDBRANCH   9  11
ENDBRANCH   8   9
ENDBRANCH   5   8
ENDBRANCH   1   2
BRANCH   1  19
ATOM     17  O   UNL     1      50.214   6.661  15.363  0.00  0.00    +0.000 OA
ATOM     18  C   UNL     1      49.057   6.753  15.764  0.00  0.00    +0.000 C 
ATOM     19  N   UNL     1      47.986   6.811  14.912  0.00  0.00    +0.000 N 
ATOM     20  H   UNL     1      47.079   7.073  15.284  0.00  0.00    +0.000 HD
BRANCH  18  21
ATOM     21  C   UNL     1      48.741   6.760  17.198  0.00  0.00    +0.000 A 
ATOM     22  C   UNL     1      48.307   7.932  17.804  0.00  0.00    +0.000 A 
ATOM     23  S   UNL     1      48.004   7.765  19.473  0.00  0.00    +0.000 S 
ATOM     24  C   UNL     1      48.392   6.109  19.437  0.00  0.00    +0.000 A 
ATOM     25  N   UNL     1      48.307   5.344  20.559  0.00  0.00    +0.000 NA
ATOM     26  C   UNL     1      48.584   4.096  20.375  0.00  0.00    +0.000 A 
ATOM     27  N   UNL     1      48.955   3.545  19.176  0.00  0.00    +0.000 N 
ATOM     28  C   UNL     1      49.135   4.294  18.038  0.00  0.00    +0.000 A 
ATOM     29  O   UNL     1      49.609   3.800  17.020  0.00  0.00    +0.000 OA
ATOM     30  C   UNL     1      48.780   5.696  18.176  0.00  0.00    +0.000 A 
ATOM     31  H   UNL     1      49.187   2.565  19.105  0.00  0.00    +0.000 HD
ENDBRANCH  18  21
ENDBRANCH   1  19
TORSDOF 6
ENDMDL
MODEL 3
REMARK VINA RESULT:    -7.381      2.037      2.521
REMARK INTER + INTRA:         -11.242
REMARK INTER:                 -10.478
REMARK INTRA:                  -0.764
REMARK UNBOUND:                -1.272
REMARK  Name = 
REMARK  6 active torsions:
REMARK  status: ('A' for Active; 'I' for Inactive)
REMARK    1  A    between atoms: C_2  and  C_18
REMARK    2  A    between atoms: N_3  and  C_4
REMARK    3  A    between atoms: C_4  and  C_5
REMARK    4  A    between atoms: C_8  and  C_9
REMARK    5  A    between atoms: C_9  and  N_10
REMARK    6  A    between atoms: N_10  and  C_11
REMARK                            x       y       z     vdW  Elec       q    Type
REMARK                         _______ _______ _______ _____ _____    ______ ____
ROOT
ATOM      1  C   UNL     1      47.855   6.811  13.613  0.00  0.00    +0.000 C 
ENDROOT
BRANCH   1   2
ATOM      2  C   UNL     1      46.878   6.118  12.714  0.00  0.00    +0.000 A 
ATOM      3  C   UNL     1      46.595   6.601  11.437  0.00  0.00    +0.000 A 
ATOM      4  C   UNL     1      45.674   5.935  10.632  0.00  0.00    +0.000 A 
ATOM      5  C   UNL     1      45.052   4.788  11.123  0.00  0.00    +0.000 A 
ATOM      6  N   UNL     1      45.304   4.308  12.368  0.00  0.00    +0.000 NA
ATOM      7  C   UNL     1      46.187   4.987  13.134  0.00  0.00    +0.000 A 
BRANCH   5   8
ATOM      8  C   UNL     1      44.097   4.002  10.238  0.00  0.00    +0.000 C 
BRANCH   8   9
ATOM      9  N   UNL     1      44.181   4.372   8.825  0.00  0.00    +0.000 NA
ATOM     10  H   UNL     1      44.645   5.270   8.721  0.00  0.00    +0.000 HD
BRANCH   9  11
ATOM     11  C   UNL     1      44.875   3.400   8.033  0.00  0.00    +0.000 C 
ATOM     12  C   UNL     1      45.418   2.180   8.764  0.00  0.00    +0.000 C 
ATOM     13  C   UNL     1      46.528   1.722   7.835  0.00  0.00    +0.000 C 
ATOM     14  C   UNL     1      47.024   3.009   7.186  0.00  0.00    +0.000 C 
ATOM     15  N   UNL     1      46.092   4.056   7.602  0.00  0.00    +0.000 NA
ATOM     16  H   UNL     1      45.874   4.691   6.837  0.00  0.00    +0.000 HD
ENDBRANCH   9  11
ENDBRANCH   8   9
ENDBRANCH   5   8
ENDBRANCH   1   2
BRANCH   1  19
ATOM     17  O   UNL     1      50.012   6.724  15.419  0.00  0.00    +0.000 OA
ATOM     18  C   UNL     1      48.918   6.294  15.776  0.00  0.00    +0.000 C 
ATOM     19  N   UNL     1      47.838   6.242  14.934  0.00  0.00    +0.000 N 
ATOM     20  H   UNL     1      46.921   6.057  15.326  0.00  0.00    +0.000 HD
BRANCH  18  21
ATOM     21  C   UNL     1      48.708   5.760  17.127  0.00  0.00    +0.000 A 
ATOM     22  C   UNL     1      48.916   4.409  17.375  0.00  0.00    +0.000 A 
ATOM     23  S   UNL     1      48.611   3.956  18.990  0.00  0.00    +0.000 S 
ATOM     24  C   UNL     1      48.239   5.558  19.429  0.00  0.00    +0.000 A 
ATOM     25  N   UNL     1      47.915   5.876  20.711  0.00  0.00    +0.000 NA
ATOM     26  C   UNL     1      47.705   7.135  20.911  0.00  0.00    +0.000 A 
ATOM     27  N   UNL     1      47.773   8.103  19.942  0.00  0.00    +0.000 N 
ATOM     28  C   UNL     1      48.013   7.816  18.621  0.00  0.00    +0.000 A 
ATOM     29  O   UNL     1      47.922   8.680  17.755  0.00  0.00    +0.000 OA
ATOM     30  C   UNL     1      48.315   6.421  18.351  0.00  0.00    +0.000 A 
ATOM     31  H   UNL     1      47.567   9.067  20.158  0.00  0.00    +0.000 HD
ENDBRANCH  18  21
ENDBRANCH   1  19
TORSDOF 6
ENDMDL
MODEL 4
REMARK VINA RESULT:    -7.257      2.164      3.782
REMARK INTER + INTRA:         -11.075
REMARK INTER:                 -10.108
REMARK INTRA:                  -0.966
REMARK UNBOUND:                -1.272
REMARK  Name = 
REMARK  6 active torsions:
REMARK  status: ('A' for Active; 'I' for Inactive)
REMARK    1  A    between atoms: C_2  and  C_18
REMARK    2  A    between atoms: N_3  and  C_4
REMARK    3  A    between atoms: C_4  and  C_5
REMARK    4  A    between atoms: C_8  and  C_9
REMARK    5  A    between atoms: C_9  and  N_10
REMARK    6  A    between atoms: N_10  and  C_11
REMARK                            x       y       z     vdW  Elec       q    Type
REMARK                         _______ _______ _______ _____ _____    ______ ____
ROOT
ATOM      1  C   UNL     1      46.785   4.652  14.505  0.00  0.00    +0.000 C 
ENDROOT
BRANCH   1   2
ATOM      2  C   UNL     1      46.143   4.572  13.153  0.00  0.00    +0.000 A 
ATOM      3  C   UNL     1      46.086   5.680  12.309  0.00  0.00    +0.000 A 
ATOM      4  C   UNL     1      45.474   5.569  11.063  0.00  0.00    +0.000 A 
ATOM      5  C   UNL     1      44.929   4.344  10.682  0.00  0.00    +0.000 A 
ATOM      6  N   UNL     1      44.964   3.256  11.494  0.00  0.00    +0.000 NA
ATOM      7  C   UNL     1      45.547   3.399  12.706  0.00  0.00    +0.000 A 
BRANCH   5   8
ATOM      8  C   UNL     1      44.320   4.179   9.299  0.00  0.00    +0.000 C 
BRANCH   8   9
ATOM      9  N   UNL     1      45.216   4.592   8.218  0.00  0.00    +0.000 NA
ATOM     10  H   UNL     1      46.000   5.119   8.591  0.00  0.00    +0.000 HD
BRANCH   9  11
ATOM     11  C   UNL     1      45.722   3.488   7.459  0.00  0.00    +0.000 C 
ATOM     12  C   UNL     1      46.010   2.203   8.222  0.00  0.00    +0.000 C 
ATOM     13  C   UNL     1      47.025   1.520   7.323  0.00  0.00    +0.000 C 
ATOM     14  C   UNL     1      47.768   2.673   6.658  0.00  0.00    +0.000 C 
ATOM     15  N   UNL     1      47.048   3.888   7.037  0.00  0.00    +0.000 NA
ATOM     16  H   UNL     1      46.967   4.536   6.256  0.00  0.00    +0.000 HD
ENDBRANCH   9  11
ENDBRANCH   8   9
ENDBRANCH   5   8
ENDBRANCH   1   2
BRANCH   1  19
ATOM     17  O   UNL     1      48.919   5.181  16.262  0.00  0.00    +0.000 OA
ATOM     18  C   UNL     1      48.513   6.080  15.529  0.00  0.00    +0.000 C 
ATOM     19  N   UNL     1      47.438   5.920  14.695  0.00  0.00    +0.000 N 
ATOM     20  H   UNL     1      47.263   6.620  13.983  0.00  0.00    +0.000 HD
BRANCH  18  21
ATOM     21  C   UNL     1      49.132   7.412  15.535  0.00  0.00    +0.000 A 
ATOM     22  C   UNL     1      49.239   8.117  16.726  0.00  0.00    +0.000 A 
ATOM     23  S   UNL     1      49.965   9.650  16.549  0.00  0.00    +0.000 S 
ATOM     24  C   UNL     1      50.209   9.404  14.883  0.00  0.00    +0.000 A 
ATOM     25  N   UNL     1      50.828  10.345  14.119  0.00  0.00    +0.000 NA
ATOM     26  C   UNL     1      50.990  10.006  12.883  0.00  0.00    +0.000 A 
ATOM     27  N   UNL     1      50.575   8.819  12.336  0.00  0.00    +0.000 N 
ATOM     28  C   UNL     1      49.872   7.879  13.050  0.00  0.00    +0.000 A 
ATOM     29  O   UNL     1      49.386   6.895  12.500  0.00  0.00    +0.000 OA
ATOM     30  C   UNL     1      49.714   8.184  14.461  0.00  0.00    +0.000 A 
ATOM     31  H   UNL     1      50.705   8.628  11.354  0.00  0.00    +0.000 HD
ENDBRANCH  18  21
ENDBRANCH   1  19
TORSDOF 6
ENDMDL
MODEL 5
REMARK VINA RESULT:    -6.955      1.747      2.384
REMARK INTER + INTRA:         -10.666
REMARK INTER:                  -9.906
REMARK INTRA:                  -0.761
REMARK UNBOUND:                -1.272
REMARK  Name = 
REMARK  6 active torsions:
REMARK  status: ('A' for Active; 'I' for Inactive)
REMARK    1  A    between atoms: C_2  and  C_18
REMARK    2  A    between atoms: N_3  and  C_4
REMARK    3  A    between atoms: C_4  and  C_5
REMARK    4  A    between atoms: C_8  and  C_9
REMARK    5  A    between atoms: C_9  and  N_10
REMARK    6  A    between atoms: N_10  and  C_11
REMARK                            x       y       z     vdW  Elec       q    Type
REMARK                         _______ _______ _______ _____ _____    ______ ____
ROOT
ATOM      1  C   UNL     1      47.451   7.050  13.701  0.00  0.00    +0.000 C 
ENDROOT
BRANCH   1   2
ATOM      2  C   UNL     1      46.593   6.193  12.820  0.00  0.00    +0.000 A 
ATOM      3  C   UNL     1      45.983   5.036  13.302  0.00  0.00    +0.000 A 
ATOM      4  C   UNL     1      45.200   4.261  12.450  0.00  0.00    +0.000 A 
ATOM      5  C   UNL     1      45.039   4.663  11.125  0.00  0.00    +0.000 A 
ATOM      6  N   UNL     1      45.635   5.779  10.633  0.00  0.00    +0.000 NA
ATOM      7  C   UNL     1      46.406   6.501  11.477  0.00  0.00    +0.000 A 
BRANCH   5   8
ATOM      8  C   UNL     1      44.131   3.873  10.195  0.00  0.00    +0.000 C 
BRANCH   8   9
ATOM      9  N   UNL     1      44.226   4.294   8.797  0.00  0.00    +0.000 NA
ATOM     10  H   UNL     1      44.690   5.195   8.731  0.00  0.00    +0.000 HD
BRANCH   9  11
ATOM     11  C   UNL     1      44.926   3.352   7.976  0.00  0.00    +0.000 C 
ATOM     12  C   UNL     1      45.566   2.166   8.683  0.00  0.00    +0.000 C 
ATOM     13  C   UNL     1      46.648   1.756   7.701  0.00  0.00    +0.000 C 
ATOM     14  C   UNL     1      47.046   3.061   7.021  0.00  0.00    +0.000 C 
ATOM     15  N   UNL     1      46.085   4.064   7.480  0.00  0.00    +0.000 NA
ATOM     16  H   UNL     1      45.797   4.682   6.723  0.00  0.00    +0.000 HD
ENDBRANCH   9  11
ENDBRANCH   8   9
ENDBRANCH   5   8
ENDBRANCH   1   2
BRANCH   1  19
ATOM     17  O   UNL     1      48.758   8.046  15.986  0.00  0.00    +0.000 OA
ATOM     18  C   UNL     1      48.641   6.830  15.848  0.00  0.00    +0.000 C 
ATOM     19  N   UNL     1      48.077   6.268  14.734  0.00  0.00    +0.000 N 
ATOM     20  H   UNL     1      47.837   5.282  14.752  0.00  0.00    +0.000 HD
BRANCH  18  21
ATOM     21  C   UNL     1      49.148   5.892  16.858  0.00  0.00    +0.000 A 
ATOM     22  C   UNL     1      48.255   5.156  17.625  0.00  0.00    +0.000 A 
ATOM     23  S   UNL     1      49.013   4.131  18.758  0.00  0.00    +0.000 S 
ATOM     24  C   UNL     1      50.562   4.597  18.230  0.00  0.00    +0.000 A 
ATOM     25  N   UNL     1      51.682   4.056  18.779  0.00  0.00    +0.000 NA
ATOM     26  C   UNL     1      52.787   4.464  18.249  0.00  0.00    +0.000 A 
ATOM     27  N   UNL     1      52.875   5.377  17.230  0.00  0.00    +0.000 N 
ATOM     28  C   UNL     1      51.776   6.012  16.704  0.00  0.00    +0.000 A 
ATOM     29  O   UNL     1      51.896   6.930  15.899  0.00  0.00    +0.000 OA
ATOM     30  C   UNL     1      50.503   5.546  17.225  0.00  0.00    +0.000 A 
ATOM     31  H   UNL     1      53.772   5.678  16.880  0.00  0.00    +0.000 HD
ENDBRANCH  18  21
ENDBRANCH   1  19
TORSDOF 6
ENDMDL
MODEL 6
REMARK VINA RESULT:    -6.661      2.559      3.405
REMARK INTER + INTRA:         -10.270
REMARK INTER:                  -9.680
REMARK INTRA:                  -0.590
REMARK UNBOUND:                -1.272
REMARK  Name = 
REMARK  6 active torsions:
REMARK  status: ('A' for Active; 'I' for Inactive)
REMARK    1  A    between atoms: C_2  and  C_18
REMARK    2  A    between atoms: N_3  and  C_4
REMARK    3  A    between atoms: C_4  and  C_5
REMARK    4  A    between atoms: C_8  and  C_9
REMARK    5  A    between atoms: C_9  and  N_10
REMARK    6  A    between atoms: N_10  and  C_11
REMARK                            x       y       z     vdW  Elec       q    Type
REMARK                         _______ _______ _______ _____ _____    ______ ____
ROOT
ATOM      1  C   UNL     1      47.059   4.562  14.700  0.00  0.00    +0.000 C 
ENDROOT
BRANCH   1   2
ATOM      2  C   UNL     1      46.359   4.442  13.381  0.00  0.00    +0.000 A 
ATOM      3  C   UNL     1      45.761   3.249  12.981  0.00  0.00    +0.000 A 
ATOM      4  C   UNL     1      45.126   3.173  11.743  0.00  0.00    +0.000 A 
ATOM      5  C   UNL     1      45.100   4.302  10.926  0.00  0.00    +0.000 A 
ATOM      6  N   UNL     1      45.686   5.471  11.292  0.00  0.00    +0.000 NA
ATOM      7  C   UNL     1      46.313   5.508  12.490  0.00  0.00    +0.000 A 
BRANCH   5   8
ATOM      8  C   UNL     1      44.352   4.267   9.603  0.00  0.00    +0.000 C 
BRANCH   8   9
ATOM      9  N   UNL     1      45.164   4.700   8.466  0.00  0.00    +0.000 NA
ATOM     10  H   UNL     1      45.978   5.216   8.789  0.00  0.00    +0.000 HD
BRANCH   9  11
ATOM     11  C   UNL     1      45.604   3.611   7.646  0.00  0.00    +0.000 C 
ATOM     12  C   UNL     1      45.915   2.300   8.353  0.00  0.00    +0.000 C 
ATOM     13  C   UNL     1      46.861   1.628   7.375  0.00  0.00    +0.000 C 
ATOM     14  C   UNL     1      47.583   2.787   6.700  0.00  0.00    +0.000 C 
ATOM     15  N   UNL     1      46.909   4.002   7.156  0.00  0.00    +0.000 NA
ATOM     16  H   UNL     1      46.792   4.674   6.400  0.00  0.00    +0.000 HD
ENDBRANCH   9  11
ENDBRANCH   8   9
ENDBRANCH   5   8
ENDBRANCH   1   2
BRANCH   1  19
ATOM     17  O   UNL     1      49.257   5.411  16.240  0.00  0.00    +0.000 OA
ATOM     18  C   UNL     1      48.563   6.253  15.676  0.00  0.00    +0.000 C 
ATOM     19  N   UNL     1      47.440   5.924  14.965  0.00  0.00    +0.000 N 
ATOM     20  H   UNL     1      47.014   6.627  14.370  0.00  0.00    +0.000 HD
BRANCH  18  21
ATOM     21  C   UNL     1      48.869   7.686  15.771  0.00  0.00    +0.000 A 
ATOM     22  C   UNL     1      49.447   8.341  14.692  0.00  0.00    +0.000 A 
ATOM     23  S   UNL     1      49.751   9.994  14.979  0.00  0.00    +0.000 S 
ATOM     24  C   UNL     1      49.074   9.906  16.538  0.00  0.00    +0.000 A 
ATOM     25  N   UNL     1      48.992  11.009  17.329  0.00  0.00    +0.000 NA
ATOM     26  C   UNL     1      48.411  10.808  18.465  0.00  0.00    +0.000 A 
ATOM     27  N   UNL     1      47.921   9.600  18.890  0.00  0.00    +0.000 N 
ATOM     28  C   UNL     1      48.059   8.444  18.160  0.00  0.00    +0.000 A 
ATOM     29  O   UNL     1      47.744   7.355  18.629  0.00  0.00    +0.000 OA
ATOM     30  C   UNL     1      48.652   8.626  16.848  0.00  0.00    +0.000 A 
ATOM     31  H   UNL     1      47.505   9.503  19.804  0.00  0.00    +0.000 HD
ENDBRANCH  18  21
ENDBRANCH   1  19
TORSDOF 6
ENDMDL
MODEL 7
REMARK VINA RESULT:    -6.596      2.600      3.347
REMARK INTER + INTRA:         -10.181
REMARK INTER:                  -9.353
REMARK INTRA:                  -0.829
REMARK UNBOUND:                -1.272
REMARK  Name = 
REMARK  6 active torsions:
REMARK  status: ('A' for Active; 'I' for Inactive)
REMARK    1  A    between atoms: C_2  and  C_18
REMARK    2  A    between atoms: N_3  and  C_4
REMARK    3  A    between atoms: C_4  and  C_5
REMARK    4  A    between atoms: C_8  and  C_9
REMARK    5  A    between atoms: C_9  and  N_10
REMARK    6  A    between atoms: N_10  and  C_11
REMARK                            x       y       z     vdW  Elec       q    Type
REMARK                         _______ _______ _______ _____ _____    ______ ____
ROOT
ATOM      1  C   UNL     1      48.667   6.923  15.545  0.00  0.00    +0.000 C 
ENDROOT
BRANCH   1   2
ATOM      2  C   UNL     1      47.799   6.045  14.696  0.00  0.00    +0.000 A 
ATOM      3  C   UNL     1      47.504   6.375  13.374  0.00  0.00    +0.000 A 
ATOM      4  C   UNL     1      46.686   5.538  12.618  0.00  0.00    +0.000 A 
ATOM      5  C   UNL     1      46.179   4.379  13.203  0.00  0.00    +0.000 A 
ATOM      6  N   UNL     1      46.444   4.046  14.492  0.00  0.00    +0.000 NA
ATOM      7  C   UNL     1      47.224   4.888  15.207  0.00  0.00    +0.000 A 
BRANCH   5   8
ATOM      8  C   UNL     1      45.343   3.413  12.377  0.00  0.00    +0.000 C 
BRANCH   8   9
ATOM      9  N   UNL     1      44.169   4.038  11.769  0.00  0.00    +0.000 NA
ATOM     10  H   UNL     1      44.194   5.045  11.904  0.00  0.00    +0.000 HD
BRANCH   9  11
ATOM     11  C   UNL     1      44.053   3.764  10.367  0.00  0.00    +0.000 C 
ATOM     12  C   UNL     1      44.686   2.474   9.865  0.00  0.00    +0.000 C 
ATOM     13  C   UNL     1      44.908   2.780   8.395  0.00  0.00    +0.000 C 
ATOM     14  C   UNL     1      45.145   4.285   8.361  0.00  0.00    +0.000 C 
ATOM     15  N   UNL     1      44.864   4.769   9.712  0.00  0.00    +0.000 NA
ATOM     16  H   UNL     1      44.354   5.650   9.698  0.00  0.00    +0.000 HD
ENDBRANCH   9  11
ENDBRANCH   8   9
ENDBRANCH   5   8
ENDBRANCH   1   2
BRANCH   1  19
ATOM     17  O   UNL     1      48.983   5.974  18.175  0.00  0.00    +0.000 OA
ATOM     18  C   UNL     1      49.846   5.715  17.340  0.00  0.00    +0.000 C 
ATOM     19  N   UNL     1      49.797   6.195  16.059  0.00  0.00    +0.000 N 
ATOM     20  H   UNL     1      50.425   5.803  15.365  0.00  0.00    +0.000 HD
BRANCH  18  21
ATOM     21  C   UNL     1      51.022   4.903  17.680  0.00  0.00    +0.000 A 
ATOM     22  C   UNL     1      52.149   5.513  18.214  0.00  0.00    +0.000 A 
ATOM     23  S   UNL     1      53.426   4.429  18.533  0.00  0.00    +0.000 S 
ATOM     24  C   UNL     1      52.499   3.098  18.018  0.00  0.00    +0.000 A 
ATOM     25  N   UNL     1      53.001   1.834  18.063  0.00  0.00    +0.000 NA
ATOM     26  C   UNL     1      52.172   0.917  17.688  0.00  0.00    +0.000 A 
ATOM     27  N   UNL     1      50.892   1.149  17.255  0.00  0.00    +0.000 N 
ATOM     28  C   UNL     1      50.374   2.414  17.113  0.00  0.00    +0.000 A 
ATOM     29  O   UNL     1      49.282   2.598  16.585  0.00  0.00    +0.000 OA
ATOM     30  C   UNL     1      51.245   3.479  17.577  0.00  0.00    +0.000 A 
ATOM     31  H   UNL     1      50.304   0.390  16.947  0.00  0.00    +0.000 HD
ENDBRANCH  18  21
ENDBRANCH   1  19
TORSDOF 6
ENDMDL
MODEL 8
REMARK VINA RESULT:    -6.567      2.166      3.063
REMARK INTER + INTRA:         -10.143
REMARK INTER:                  -9.180
REMARK INTRA:                  -0.963
REMARK UNBOUND:                -1.272
REMARK  Name = 
REMARK  6 active torsions:
REMARK  status: ('A' for Active; 'I' for Inactive)
REMARK    1  A    between atoms: C_2  and  C_18
REMARK    2  A    between atoms: N_3  and  C_4
REMARK    3  A    between atoms: C_4  and  C_5
REMARK    4  A    between atoms: C_8  and  C_9
REMARK    5  A    between atoms: C_9  and  N_10
REMARK    6  A    between atoms: N_10  and  C_11
REMARK                            x       y       z     vdW  Elec       q    Type
REMARK                         _______ _______ _______ _____ _____    ______ ____
ROOT
ATOM      1  C   UNL     1      46.978   4.066  15.381  0.00  0.00    +0.000 C 
ENDROOT
BRANCH   1   2
ATOM      2  C   UNL     1      46.584   4.519  14.008  0.00  0.00    +0.000 A 
ATOM      3  C   UNL     1      47.088   5.697  13.458  0.00  0.00    +0.000 A 
ATOM      4  C   UNL     1      46.692   6.089  12.182  0.00  0.00    +0.000 A 
ATOM      5  C   UNL     1      45.797   5.289  11.474  0.00  0.00    +0.000 A 
ATOM      6  N   UNL     1      45.285   4.145  11.996  0.00  0.00    +0.000 NA
ATOM      7  C   UNL     1      45.672   3.799  13.245  0.00  0.00    +0.000 A 
BRANCH   5   8
ATOM      8  C   UNL     1      45.405   5.659  10.052  0.00  0.00    +0.000 C 
BRANCH   8   9
ATOM      9  N   UNL     1      44.378   4.783   9.488  0.00  0.00    +0.000 NA
ATOM     10  H   UNL     1      43.591   5.331   9.154  0.00  0.00    +0.000 HD
BRANCH   9  11
ATOM     11  C   UNL     1      44.865   3.971   8.412  0.00  0.00    +0.000 C 
ATOM     12  C   UNL     1      45.361   2.578   8.773  0.00  0.00    +0.000 C 
ATOM     13  C   UNL     1      46.296   2.265   7.620  0.00  0.00    +0.000 C 
ATOM     14  C   UNL     1      46.843   3.625   7.205  0.00  0.00    +0.000 C 
ATOM     15  N   UNL     1      46.084   4.615   7.968  0.00  0.00    +0.000 NA
ATOM     16  H   UNL     1      45.843   5.424   7.399  0.00  0.00    +0.000 HD
ENDBRANCH   9  11
ENDBRANCH   8   9
ENDBRANCH   5   8
ENDBRANCH   1   2
BRANCH   1  19
ATOM     17  O   UNL     1      46.872   4.784  18.100  0.00  0.00    +0.000 OA
ATOM     18  C   UNL     1      47.725   5.297  17.380  0.00  0.00    +0.000 C 
ATOM     19  N   UNL     1      47.799   5.049  16.036  0.00  0.00    +0.000 N 
ATOM     20  H   UNL     1      48.626   5.346  15.529  0.00  0.00    +0.000 HD
BRANCH  18  21
ATOM     21  C   UNL     1      48.701   6.256  17.914  0.00  0.00    +0.000 A 
ATOM     22  C   UNL     1      48.264   7.470  18.429  0.00  0.00    +0.000 A 
ATOM     23  S   UNL     1      49.529   8.468  18.989  0.00  0.00    +0.000 S 
ATOM     24  C   UNL     1      50.700   7.293  18.611  0.00  0.00    +0.000 A 
ATOM     25  N   UNL     1      52.017   7.507  18.874  0.00  0.00    +0.000 NA
ATOM     26  C   UNL     1      52.788   6.512  18.580  0.00  0.00    +0.000 A 
ATOM     27  N   UNL     1      52.364   5.329  18.032  0.00  0.00    +0.000 N 
ATOM     28  C   UNL     1      51.057   5.104  17.672  0.00  0.00    +0.000 A 
ATOM     29  O   UNL     1      50.734   4.097  17.049  0.00  0.00    +0.000 OA
ATOM     30  C   UNL     1      50.139   6.168  18.034  0.00  0.00    +0.000 A 
ATOM     31  H   UNL     1      53.023   4.602  17.797  0.00  0.00    +0.000 HD
ENDBRANCH  18  21
ENDBRANCH   1  19
TORSDOF 6
ENDMDL
MODEL 9
REMARK VINA RESULT:    -6.530      2.583      3.101
REMARK INTER + INTRA:         -10.093
REMARK INTER:                  -9.273
REMARK INTRA:                  -0.819
REMARK UNBOUND:                -1.272
REMARK  Name = 
REMARK  6 active torsions:
REMARK  status: ('A' for Active; 'I' for Inactive)
REMARK    1  A    between atoms: C_2  and  C_18
REMARK    2  A    between atoms: N_3  and  C_4
REMARK    3  A    between atoms: C_4  and  C_5
REMARK    4  A    between atoms: C_8  and  C_9
REMARK    5  A    between atoms: C_9  and  N_10
REMARK    6  A    between atoms: N_10  and  C_11
REMARK                            x       y       z     vdW  Elec       q    Type
REMARK                         _______ _______ _______ _____ _____    ______ ____
ROOT
ATOM      1  C   UNL     1      47.318   4.297  15.278  0.00  0.00    +0.000 C 
ENDROOT
BRANCH   1   2
ATOM      2  C   UNL     1      46.767   4.654  13.931  0.00  0.00    +0.000 A 
ATOM      3  C   UNL     1      47.051   5.879  13.329  0.00  0.00    +0.000 A 
ATOM      4  C   UNL     1      46.515   6.178  12.080  0.00  0.00    +0.000 A 
ATOM      5  C   UNL     1      45.700   5.238  11.450  0.00  0.00    +0.000 A 
ATOM      6  N   UNL     1      45.402   4.044  12.023  0.00  0.00    +0.000 NA
ATOM      7  C   UNL     1      45.920   3.790  13.246  0.00  0.00    +0.000 A 
BRANCH   5   8
ATOM      8  C   UNL     1      45.161   5.511  10.055  0.00  0.00    +0.000 C 
BRANCH   8   9
ATOM      9  N   UNL     1      44.263   4.465   9.566  0.00  0.00    +0.000 NA
ATOM     10  H   UNL     1      43.375   4.867   9.279  0.00  0.00    +0.000 HD
BRANCH   9  11
ATOM     11  C   UNL     1      44.811   3.725   8.468  0.00  0.00    +0.000 C 
ATOM     12  C   UNL     1      45.458   2.387   8.797  0.00  0.00    +0.000 C 
ATOM     13  C   UNL     1      46.398   2.191   7.621  0.00  0.00    +0.000 C 
ATOM     14  C   UNL     1      46.791   3.608   7.220  0.00  0.00    +0.000 C 
ATOM     15  N   UNL     1      45.946   4.501   8.013  0.00  0.00    +0.000 NA
ATOM     16  H   UNL     1      45.610   5.289   7.462  0.00  0.00    +0.000 HD
ENDBRANCH   9  11
ENDBRANCH   8   9
ENDBRANCH   5   8
ENDBRANCH   1   2
BRANCH   1  19
ATOM     17  O   UNL     1      49.689   5.207  16.490  0.00  0.00    +0.000 OA
ATOM     18  C   UNL     1      48.664   5.873  16.610  0.00  0.00    +0.000 C 
ATOM     19  N   UNL     1      47.458   5.465  16.106  0.00  0.00    +0.000 N 
ATOM     20  H   UNL     1      46.693   6.131  16.068  0.00  0.00    +0.000 HD
BRANCH  18  21
ATOM     21  C   UNL     1      48.658   7.141  17.351  0.00  0.00    +0.000 A 
ATOM     22  C   UNL     1      49.031   8.316  16.712  0.00  0.00    +0.000 A 
ATOM     23  S   UNL     1      48.983   9.688  17.722  0.00  0.00    +0.000 S 
ATOM     24  C   UNL     1      48.414   8.771  19.038  0.00  0.00    +0.000 A 
ATOM     25  N   UNL     1      48.131   9.357  20.232  0.00  0.00    +0.000 NA
ATOM     26  C   UNL     1      47.661   8.551  21.124  0.00  0.00    +0.000 A 
ATOM     27  N   UNL     1      47.464   7.207  20.938  0.00  0.00    +0.000 N 
ATOM     28  C   UNL     1      47.814   6.559  19.778  0.00  0.00    +0.000 A 
ATOM     29  O   UNL     1      47.764   5.336  19.693  0.00  0.00    +0.000 OA
ATOM     30  C   UNL     1      48.293   7.430  18.720  0.00  0.00    +0.000 A 
ATOM     31  H   UNL     1      47.121   6.625  21.687  0.00  0.00    +0.000 HD
ENDBRANCH  18  21
ENDBRANCH   1  19
TORSDOF 6
ENDMDL
