MODEL 1
REMARK VINA RESULT:    -8.670      0.000      0.000
REMARK INTER + INTRA:         -13.458
REMARK INTER:                 -12.218
REMARK INTRA:                  -1.239
REMARK UNBOUND:                -1.239
REMARK  Name = 
REMARK  7 active torsions:
REMARK  status: ('A' for Active; 'I' for Inactive)
REMARK    1  A    between atoms: C_2  and  C_20
REMARK    2  A    between atoms: N_3  and  C_4
REMARK    3  A    between atoms: C_4  and  C_5
REMARK    4  A    between atoms: C_8  and  C_9
REMARK    5  A    between atoms: C_9  and  N_10
REMARK    6  A    between atoms: N_10  and  C_11
REMARK    7  A    between atoms: C_11  and  C_12
REMARK                            x       y       z     vdW  Elec       q    Type
REMARK                         _______ _______ _______ _____ _____    ______ ____
ROOT
ATOM      1  C   UNL     1      46.634   7.664  12.875  0.00  0.00    +0.000 C 
ENDROOT
BRANCH   1   2
ATOM      2  C   UNL     1      45.234   7.097  12.558  0.00  0.00    +0.000 C 
ATOM      3  C   UNL     1      44.891   7.061  11.055  0.00  0.00    +0.000 C 
ATOM      4  C   UNL     1      45.586   5.919  10.307  0.00  0.00    +0.000 C 
ATOM      5  C   UNL     1      45.274   4.539  10.904  0.00  0.00    +0.000 C 
ATOM      6  C   UNL     1      45.606   4.538  12.413  0.00  0.00    +0.000 C 
ATOM      7  C   UNL     1      45.036   5.717  13.214  0.00  0.00    +0.000 C 
BRANCH   5   8
ATOM      8  C   UNL     1      43.840   4.074  10.544  0.00  0.00    +0.000 C 
BRANCH   8   9
ATOM      9  N   UNL     1      43.874   3.300   9.299  0.00  0.00    +0.000 NA
ATOM     10  H   UNL     1      44.190   3.889   8.527  0.00  0.00    +0.000 HD
BRANCH   9  11
ATOM     11  C   UNL     1      44.730   2.118   9.326  0.00  0.00    +0.000 C 
BRANCH  11  12
ATOM     12  C   UNL     1      45.738   2.191   8.202  0.00  0.00    +0.000 A 
ATOM     13  C   UNL     1      45.842   3.345   7.419  0.00  0.00    +0.000 A 
ATOM     14  C   UNL     1      46.777   3.407   6.392  0.00  0.00    +0.000 A 
ATOM     15  C   UNL     1      47.578   2.302   6.160  0.00  0.00    +0.000 A 
ATOM     16  N   UNL     1      47.520   1.173   6.893  0.00  0.00    +0.000 NA
ATOM     17  C   UNL     1      46.613   1.149   7.901  0.00  0.00    +0.000 A 
ENDBRANCH  11  12
ENDBRANCH   9  11
ENDBRANCH   8   9
ENDBRANCH   5   8
ENDBRANCH   1   2
BRANCH   1  20
ATOM     18  O   UNL     1      49.010   6.221  13.388  0.00  0.00    +0.000 OA
ATOM     19  C   UNL     1      48.323   6.575  14.326  0.00  0.00    +0.000 C 
ATOM     20  N   UNL     1      47.135   7.263  14.174  0.00  0.00    +0.000 N 
ATOM     21  H   UNL     1      46.637   7.542  15.006  0.00  0.00    +0.000 HD
BRANCH  19  22
ATOM     22  C   UNL     1      48.675   6.312  15.726  0.00  0.00    +0.000 A 
ATOM     23  C   UNL     1      49.416   7.155  16.543  0.00  0.00    +0.000 A 
ATOM     24  S   UNL     1      49.592   6.563  18.139  0.00  0.00    +0.000 S 
ATOM     25  C   UNL     1      48.690   5.165  17.777  0.00  0.00    +0.000 A 
ATOM     26  N   UNL     1      48.445   4.217  18.721  0.00  0.00    +0.000 NA
ATOM     27  C   UNL     1      47.751   3.216  18.292  0.00  0.00    +0.000 A 
ATOM     28  N   UNL     1      47.290   3.068  17.010  0.00  0.00    +0.000 N 
ATOM     29  C   UNL     1      47.605   3.944  15.992  0.00  0.00    +0.000 A 
ATOM     30  O   UNL     1      47.372   3.653  14.830  0.00  0.00    +0.000 OA
ATOM     31  C   UNL     1      48.298   5.134  16.454  0.00  0.00    +0.000 A 
ATOM     32  H   UNL     1      46.813   2.231  16.719  0.00  0.00    +0.000 HD
ENDBRANCH  19  22
ENDBRANCH   1  20
TORSDOF 7
ENDMDL
MODEL 2
REMARK VINA RESULT:    -8.385      2.027      2.712
REMARK INTER + INTRA:         -13.056
REMARK INTER:                 -12.726
REMARK INTRA:                  -0.330
REMARK UNBOUND:                -1.239
REMARK  Name = 
REMARK  7 active torsions:
REMARK  status: ('A' for Active; 'I' for Inactive)
REMARK    1  A    between atoms: C_2  and  C_20
REMARK    2  A    between atoms: N_3  and  C_4
REMARK    3  A    between atoms: C_4  and  C_5
REMARK    4  A    between atoms: C_8  and  C_9
REMARK    5  A    between atoms: C_9  and  N_10
REMARK    6  A    between atoms: N_10  and  C_11
REMARK    7  A    between atoms: C_11  and  C_12
REMARK                            x       y       z     vdW  Elec       q    Type
REMARK                         _______ _______ _______ _____ _____    ______ ____
ROOT
ATOM      1  C   UNL     1      46.384   4.751  14.723  0.00  0.00    +0.000 C 
ENDROOT
BRANCH   1   2
ATOM      2  C   UNL     1      46.771   4.464  13.257  0.00  0.00    +0.000 C 
ATOM      3  C   UNL     1      45.929   3.361  12.584  0.00  0.00    +0.000 C 
ATOM      4  C   UNL     1      44.529   3.836  12.182  0.00  0.00    +0.000 C 
ATOM      5  C   UNL     1      44.558   5.055  11.249  0.00  0.00    +0.000 C 
ATOM      6  C   UNL     1      45.396   6.183  11.892  0.00  0.00    +0.000 C 
ATOM      7  C   UNL     1      46.772   5.759  12.423  0.00  0.00    +0.000 C 
BRANCH   5   8
ATOM      8  C   UNL     1      44.978   4.661   9.810  0.00  0.00    +0.000 C 
BRANCH   8   9
ATOM      9  N   UNL     1      44.044   3.660   9.284  0.00  0.00    +0.000 NA
ATOM     10  H   UNL     1      43.723   3.932   8.354  0.00  0.00    +0.000 HD
BRANCH   9  11
ATOM     11  C   UNL     1      44.580   2.306   9.181  0.00  0.00    +0.000 C 
BRANCH  11  12
ATOM     12  C   UNL     1      45.636   2.255   8.101  0.00  0.00    +0.000 A 
ATOM     13  C   UNL     1      45.758   3.300   7.181  0.00  0.00    +0.000 A 
ATOM     14  C   UNL     1      46.738   3.249   6.196  0.00  0.00    +0.000 A 
ATOM     15  C   UNL     1      47.565   2.139   6.142  0.00  0.00    +0.000 A 
ATOM     16  N   UNL     1      47.490   1.113   7.012  0.00  0.00    +0.000 NA
ATOM     17  C   UNL     1      46.539   1.200   7.975  0.00  0.00    +0.000 A 
ENDBRANCH  11  12
ENDBRANCH   9  11
ENDBRANCH   8   9
ENDBRANCH   5   8
ENDBRANCH   1   2
BRANCH   1  20
ATOM     18  O   UNL     1      46.772   3.309  17.124  0.00  0.00    +0.000 OA
ATOM     19  C   UNL     1      47.636   4.080  16.755  0.00  0.00    +0.000 C 
ATOM     20  N   UNL     1      47.526   4.845  15.611  0.00  0.00    +0.000 N 
ATOM     21  H   UNL     1      48.300   5.443  15.362  0.00  0.00    +0.000 HD
BRANCH  19  22
ATOM     22  C   UNL     1      48.892   4.289  17.484  0.00  0.00    +0.000 A 
ATOM     23  C   UNL     1      49.202   5.400  18.255  0.00  0.00    +0.000 A 
ATOM     24  S   UNL     1      50.734   5.290  19.011  0.00  0.00    +0.000 S 
ATOM     25  C   UNL     1      51.022   3.760  18.323  0.00  0.00    +0.000 A 
ATOM     26  N   UNL     1      52.172   3.077  18.574  0.00  0.00    +0.000 NA
ATOM     27  C   UNL     1      52.244   1.933  17.977  0.00  0.00    +0.000 A 
ATOM     28  N   UNL     1      51.284   1.415  17.147  0.00  0.00    +0.000 N 
ATOM     29  C   UNL     1      50.155   2.115  16.775  0.00  0.00    +0.000 A 
ATOM     30  O   UNL     1      49.453   1.715  15.861  0.00  0.00    +0.000 OA
ATOM     31  C   UNL     1      49.987   3.361  17.502  0.00  0.00    +0.000 A 
ATOM     32  H   UNL     1      51.430   0.549  16.656  0.00  0.00    +0.000 HD
ENDBRANCH  19  22
ENDBRANCH   1  20
TORSDOF 7
ENDMDL
MODEL 3
REMARK VINA RESULT:    -7.984      0.923      1.446
REMARK INTER + INTRA:         -12.491
REMARK INTER:                 -11.190
REMARK INTRA:                  -1.301
REMARK UNBOUND:                -1.239
REMARK  Name = 
REMARK  7 active torsions:
REMARK  status: ('A' for Active; 'I' for Inactive)
REMARK    1  A    between atoms: C_2  and  C_20
REMARK    2  A    between atoms: N_3  and  C_4
REMARK    3  A    between atoms: C_4  and  C_5
REMARK    4  A    between atoms: C_8  and  C_9
REMARK    5  A    between atoms: C_9  and  N_10
REMARK    6  A    between atoms: N_10  and  C_11
REMARK    7  A    between atoms: C_11  and  C_12
REMARK                            x       y       z     vdW  Elec       q    Type
REMARK                         _______ _______ _______ _____ _____    ______ ____
ROOT
ATOM      1  C   UNL     1      46.586   6.941  12.994  0.00  0.00    +0.000 C 
ENDROOT
BRANCH   1   2
ATOM      2  C   UNL     1      46.324   5.520  12.453  0.00  0.00    +0.000 C 
ATOM      3  C   UNL     1      45.286   4.716  13.261  0.00  0.00    +0.000 C 
ATOM      4  C   UNL     1      43.843   5.149  12.984  0.00  0.00    +0.000 C 
ATOM      5  C   UNL     1      43.468   5.061  11.498  0.00  0.00    +0.000 C 
ATOM      6  C   UNL     1      44.489   5.857  10.656  0.00  0.00    +0.000 C 
ATOM      7  C   UNL     1      45.965   5.559  10.955  0.00  0.00    +0.000 C 
BRANCH   5   8
ATOM      8  C   UNL     1      43.248   3.592  11.053  0.00  0.00    +0.000 C 
BRANCH   8   9
ATOM      9  N   UNL     1      43.874   3.378   9.744  0.00  0.00    +0.000 NA
ATOM     10  H   UNL     1      44.472   4.171   9.505  0.00  0.00    +0.000 HD
BRANCH   9  11
ATOM     11  C   UNL     1      44.686   2.170   9.635  0.00  0.00    +0.000 C 
BRANCH  11  12
ATOM     12  C   UNL     1      45.616   2.286   8.449  0.00  0.00    +0.000 A 
ATOM     13  C   UNL     1      45.760   3.504   7.779  0.00  0.00    +0.000 A 
ATOM     14  C   UNL     1      46.623   3.603   6.693  0.00  0.00    +0.000 A 
ATOM     15  C   UNL     1      47.313   2.471   6.291  0.00  0.00    +0.000 A 
ATOM     16  N   UNL     1      47.213   1.279   6.912  0.00  0.00    +0.000 NA
ATOM     17  C   UNL     1      46.379   1.218   7.979  0.00  0.00    +0.000 A 
ENDBRANCH  11  12
ENDBRANCH   9  11
ENDBRANCH   8   9
ENDBRANCH   5   8
ENDBRANCH   1   2
BRANCH   1  20
ATOM     18  O   UNL     1      49.368   6.724  13.447  0.00  0.00    +0.000 OA
ATOM     19  C   UNL     1      48.626   6.861  14.400  0.00  0.00    +0.000 C 
ATOM     20  N   UNL     1      47.253   6.952  14.281  0.00  0.00    +0.000 N 
ATOM     21  H   UNL     1      46.711   7.090  15.120  0.00  0.00    +0.000 HD
BRANCH  19  22
ATOM     22  C   UNL     1      49.103   6.944  15.786  0.00  0.00    +0.000 A 
ATOM     23  C   UNL     1      49.864   7.976  16.315  0.00  0.00    +0.000 A 
ATOM     24  S   UNL     1      50.197   7.779  17.983  0.00  0.00    +0.000 S 
ATOM     25  C   UNL     1      49.338   6.310  18.036  0.00  0.00    +0.000 A 
ATOM     26  N   UNL     1      49.216   5.603  19.192  0.00  0.00    +0.000 NA
ATOM     27  C   UNL     1      48.539   4.511  19.070  0.00  0.00    +0.000 A 
ATOM     28  N   UNL     1      47.984   4.053  17.903  0.00  0.00    +0.000 N 
ATOM     29  C   UNL     1      48.173   4.675  16.687  0.00  0.00    +0.000 A 
ATOM     30  O   UNL     1      47.862   4.113  15.649  0.00  0.00    +0.000 OA
ATOM     31  C   UNL     1      48.842   5.959  16.797  0.00  0.00    +0.000 A 
ATOM     32  H   UNL     1      47.527   3.158  17.857  0.00  0.00    +0.000 HD
ENDBRANCH  19  22
ENDBRANCH   1  20
TORSDOF 7
ENDMDL
MODEL 4
REMARK VINA RESULT:    -7.200      1.718      2.768
REMARK INTER + INTRA:         -11.386
REMARK INTER:                 -10.275
REMARK INTRA:                  -1.111
REMARK UNBOUND:                -1.239
REMARK  Name = 
REMARK  7 active torsions:
REMARK  status: ('A' for Active; 'I' for Inactive)
REMARK    1  A    between atoms: C_2  and  C_20
REMARK    2  A    between atoms: N_3  and  C_4
REMARK    3  A    between atoms: C_4  and  C_5
REMARK    4  A    between atoms: C_8  and  C_9
REMARK    5  A    between atoms: C_9  and  N_10
REMARK    6  A    between atoms: N_10  and  C_11
REMARK    7  A    between atoms: C_11  and  C_12
REMARK                            x       y       z     vdW  Elec       q    Type
REMARK                         _______ _______ _______ _____ _____    ______ ____
ROOT
ATOM      1  C   UNL     1      46.759   7.644  12.847  0.00  0.00    +0.000 C 
ENDROOT
BRANCH   1   2
ATOM      2  C   UNL     1      45.342   7.107  12.554  0.00  0.00    +0.000 C 
ATOM      3  C   UNL     1      45.007   6.991  11.054  0.00  0.00    +0.000 C 
ATOM      4  C   UNL     1      45.666   5.781  10.384  0.00  0.00    +0.000 C 
ATOM      5  C   UNL     1      45.303   4.452  11.061  0.00  0.00    +0.000 C 
ATOM      6  C   UNL     1      45.626   4.533  12.570  0.00  0.00    +0.000 C 
ATOM      7  C   UNL     1      45.093   5.778  13.292  0.00  0.00    +0.000 C 
BRANCH   5   8
ATOM      8  C   UNL     1      43.856   4.015  10.719  0.00  0.00    +0.000 C 
BRANCH   8   9
ATOM      9  N   UNL     1      43.850   3.299   9.440  0.00  0.00    +0.000 NA
ATOM     10  H   UNL     1      44.097   3.933   8.679  0.00  0.00    +0.000 HD
BRANCH   9  11
ATOM     11  C   UNL     1      44.753   2.154   9.365  0.00  0.00    +0.000 C 
BRANCH  11  12
ATOM     12  C   UNL     1      45.717   2.339   8.216  0.00  0.00    +0.000 A 
ATOM     13  C   UNL     1      46.626   1.329   7.886  0.00  0.00    +0.000 A 
ATOM     14  C   UNL     1      47.504   1.504   6.822  0.00  0.00    +0.000 A 
ATOM     15  C   UNL     1      47.464   2.698   6.121  0.00  0.00    +0.000 A 
ATOM     16  N   UNL     1      46.600   3.695   6.398  0.00  0.00    +0.000 NA
ATOM     17  C   UNL     1      45.742   3.488   7.426  0.00  0.00    +0.000 A 
ENDBRANCH  11  12
ENDBRANCH   9  11
ENDBRANCH   8   9
ENDBRANCH   5   8
ENDBRANCH   1   2
BRANCH   1  20
ATOM     18  O   UNL     1      49.322   6.651  13.510  0.00  0.00    +0.000 OA
ATOM     19  C   UNL     1      48.520   6.849  14.401  0.00  0.00    +0.000 C 
ATOM     20  N   UNL     1      47.237   7.309  14.174  0.00  0.00    +0.000 N 
ATOM     21  H   UNL     1      46.642   7.471  14.971  0.00  0.00    +0.000 HD
BRANCH  19  22
ATOM     22  C   UNL     1      48.819   6.620  15.819  0.00  0.00    +0.000 A 
ATOM     23  C   UNL     1      48.464   5.492  16.546  0.00  0.00    +0.000 A 
ATOM     24  S   UNL     1      49.023   5.531  18.164  0.00  0.00    +0.000 S 
ATOM     25  C   UNL     1      49.747   7.054  17.933  0.00  0.00    +0.000 A 
ATOM     26  N   UNL     1      50.421   7.676  18.938  0.00  0.00    +0.000 NA
ATOM     27  C   UNL     1      50.910   8.825  18.610  0.00  0.00    +0.000 A 
ATOM     28  N   UNL     1      50.778   9.416  17.380  0.00  0.00    +0.000 N 
ATOM     29  C   UNL     1      50.013   8.878  16.367  0.00  0.00    +0.000 A 
ATOM     30  O   UNL     1      49.735   9.542  15.382  0.00  0.00    +0.000 OA
ATOM     31  C   UNL     1      49.531   7.540  16.660  0.00  0.00    +0.000 A 
ATOM     32  H   UNL     1      51.123  10.345  17.207  0.00  0.00    +0.000 HD
ENDBRANCH  19  22
ENDBRANCH   1  20
TORSDOF 7
ENDMDL
MODEL 5
REMARK VINA RESULT:    -7.129      1.679      2.190
REMARK INTER + INTRA:         -11.285
REMARK INTER:                 -10.259
REMARK INTRA:                  -1.027
REMARK UNBOUND:                -1.239
REMARK  Name = 
REMARK  7 active torsions:
REMARK  status: ('A' for Active; 'I' for Inactive)
REMARK    1  A    between atoms: C_2  and  C_20
REMARK    2  A    between atoms: N_3  and  C_4
REMARK    3  A    between atoms: C_4  and  C_5
REMARK    4  A    between atoms: C_8  and  C_9
REMARK    5  A    between atoms: C_9  and  N_10
REMARK    6  A    between atoms: N_10  and  C_11
REMARK    7  A    between atoms: C_11  and  C_12
REMARK                            x       y       z     vdW  Elec       q    Type
REMARK                         _______ _______ _______ _____ _____    ______ ____
ROOT
ATOM      1  C   UNL     1      47.670   8.471  14.292  0.00  0.00    +0.000 C 
ENDROOT
BRANCH   1   2
ATOM      2  C   UNL     1      47.531   8.223  12.776  0.00  0.00    +0.000 C 
ATOM      3  C   UNL     1      47.858   6.782  12.337  0.00  0.00    +0.000 C 
ATOM      4  C   UNL     1      46.738   5.787  12.660  0.00  0.00    +0.000 C 
ATOM      5  C   UNL     1      45.390   6.184  12.042  0.00  0.00    +0.000 C 
ATOM      6  C   UNL     1      45.030   7.627  12.461  0.00  0.00    +0.000 C 
ATOM      7  C   UNL     1      46.144   8.665  12.270  0.00  0.00    +0.000 C 
BRANCH   5   8
ATOM      8  C   UNL     1      45.363   5.914  10.515  0.00  0.00    +0.000 C 
BRANCH   8   9
ATOM      9  N   UNL     1      45.165   4.482  10.274  0.00  0.00    +0.000 NA
ATOM     10  H   UNL     1      44.508   4.097  10.955  0.00  0.00    +0.000 HD
BRANCH   9  11
ATOM     11  C   UNL     1      44.666   4.140   8.945  0.00  0.00    +0.000 C 
BRANCH  11  12
ATOM     12  C   UNL     1      45.571   3.111   8.309  0.00  0.00    +0.000 A 
ATOM     13  C   UNL     1      46.486   3.488   7.321  0.00  0.00    +0.000 A 
ATOM     14  C   UNL     1      47.321   2.536   6.746  0.00  0.00    +0.000 A 
ATOM     15  C   UNL     1      47.209   1.220   7.162  0.00  0.00    +0.000 A 
ATOM     16  N   UNL     1      46.349   0.812   8.117  0.00  0.00    +0.000 NA
ATOM     17  C   UNL     1      45.562   1.765   8.674  0.00  0.00    +0.000 A 
ENDBRANCH  11  12
ENDBRANCH   9  11
ENDBRANCH   8   9
ENDBRANCH   5   8
ENDBRANCH   1   2
BRANCH   1  20
ATOM     18  O   UNL     1      48.334   8.423  17.040  0.00  0.00    +0.000 OA
ATOM     19  C   UNL     1      48.879   7.637  16.289  0.00  0.00    +0.000 C 
ATOM     20  N   UNL     1      48.638   7.600  14.930  0.00  0.00    +0.000 N 
ATOM     21  H   UNL     1      49.113   6.900  14.381  0.00  0.00    +0.000 HD
BRANCH  19  22
ATOM     22  C   UNL     1      49.855   6.638  16.740  0.00  0.00    +0.000 A 
ATOM     23  C   UNL     1      51.184   6.891  17.047  0.00  0.00    +0.000 A 
ATOM     24  S   UNL     1      52.025   5.505  17.596  0.00  0.00    +0.000 S 
ATOM     25  C   UNL     1      50.637   4.533  17.431  0.00  0.00    +0.000 A 
ATOM     26  N   UNL     1      50.658   3.210  17.749  0.00  0.00    +0.000 NA
ATOM     27  C   UNL     1      49.530   2.609  17.567  0.00  0.00    +0.000 A 
ATOM     28  N   UNL     1      48.390   3.199  17.087  0.00  0.00    +0.000 N 
ATOM     29  C   UNL     1      48.348   4.506  16.648  0.00  0.00    +0.000 A 
ATOM     30  O   UNL     1      47.388   4.917  16.018  0.00  0.00    +0.000 OA
ATOM     31  C   UNL     1      49.567   5.244  16.930  0.00  0.00    +0.000 A 
ATOM     32  H   UNL     1      47.560   2.660  16.901  0.00  0.00    +0.000 HD
ENDBRANCH  19  22
ENDBRANCH   1  20
TORSDOF 7
ENDMDL
MODEL 6
REMARK VINA RESULT:    -6.974      2.833      3.479
REMARK INTER + INTRA:         -11.067
REMARK INTER:                 -10.294
REMARK INTRA:                  -0.774
REMARK UNBOUND:                -1.239
REMARK  Name = 
REMARK  7 active torsions:
REMARK  status: ('A' for Active; 'I' for Inactive)
REMARK    1  A    between atoms: C_2  and  C_20
REMARK    2  A    between atoms: N_3  and  C_4
REMARK    3  A    between atoms: C_4  and  C_5
REMARK    4  A    between atoms: C_8  and  C_9
REMARK    5  A    between atoms: C_9  and  N_10
REMARK    6  A    between atoms: N_10  and  C_11
REMARK    7  A    between atoms: C_11  and  C_12
REMARK                            x       y       z     vdW  Elec       q    Type
REMARK                         _______ _______ _______ _____ _____    ______ ____
ROOT
ATOM      1  C   UNL     1      45.869   7.363  12.720  0.00  0.00    +0.000 C 
ENDROOT
BRANCH   1   2
ATOM      2  C   UNL     1      45.960   5.943  12.120  0.00  0.00    +0.000 C 
ATOM      3  C   UNL     1      45.490   4.823  13.070  0.00  0.00    +0.000 C 
ATOM      4  C   UNL     1      43.965   4.738  13.188  0.00  0.00    +0.000 C 
ATOM      5  C   UNL     1      43.272   4.541  11.832  0.00  0.00    +0.000 C 
ATOM      6  C   UNL     1      43.721   5.648  10.852  0.00  0.00    +0.000 C 
ATOM      7  C   UNL     1      45.237   5.871  10.762  0.00  0.00    +0.000 C 
BRANCH   5   8
ATOM      8  C   UNL     1      43.441   3.091  11.311  0.00  0.00    +0.000 C 
BRANCH   8   9
ATOM      9  N   UNL     1      43.847   3.121   9.902  0.00  0.00    +0.000 NA
ATOM     10  H   UNL     1      44.470   3.911   9.731  0.00  0.00    +0.000 HD
BRANCH   9  11
ATOM     11  C   UNL     1      44.526   1.919   9.427  0.00  0.00    +0.000 C 
BRANCH  11  12
ATOM     12  C   UNL     1      45.592   2.298   8.425  0.00  0.00    +0.000 A 
ATOM     13  C   UNL     1      46.509   1.344   7.973  0.00  0.00    +0.000 A 
ATOM     14  C   UNL     1      47.482   1.699   7.045  0.00  0.00    +0.000 A 
ATOM     15  C   UNL     1      47.527   3.010   6.602  0.00  0.00    +0.000 A 
ATOM     16  N   UNL     1      46.659   3.961   7.003  0.00  0.00    +0.000 NA
ATOM     17  C   UNL     1      45.709   3.581   7.892  0.00  0.00    +0.000 A 
ENDBRANCH  11  12
ENDBRANCH   9  11
ENDBRANCH   8   9
ENDBRANCH   5   8
ENDBRANCH   1   2
BRANCH   1  20
ATOM     18  O   UNL     1      47.449   9.691  12.990  0.00  0.00    +0.000 OA
ATOM     19  C   UNL     1      47.570   8.800  13.808  0.00  0.00    +0.000 C 
ATOM     20  N   UNL     1      46.860   7.617  13.746  0.00  0.00    +0.000 N 
ATOM     21  H   UNL     1      47.000   6.939  14.480  0.00  0.00    +0.000 HD
BRANCH  19  22
ATOM     22  C   UNL     1      48.484   8.878  14.954  0.00  0.00    +0.000 A 
ATOM     23  C   UNL     1      48.138   9.289  16.233  0.00  0.00    +0.000 A 
ATOM     24  S   UNL     1      49.440   9.205  17.342  0.00  0.00    +0.000 S 
ATOM     25  C   UNL     1      50.496   8.625  16.139  0.00  0.00    +0.000 A 
ATOM     26  N   UNL     1      51.794   8.329  16.421  0.00  0.00    +0.000 NA
ATOM     27  C   UNL     1      52.468   7.903  15.404  0.00  0.00    +0.000 A 
ATOM     28  N   UNL     1      51.972   7.757  14.135  0.00  0.00    +0.000 N 
ATOM     29  C   UNL     1      50.698   8.147  13.776  0.00  0.00    +0.000 A 
ATOM     30  O   UNL     1      50.380   8.218  12.600  0.00  0.00    +0.000 OA
ATOM     31  C   UNL     1      49.877   8.536  14.909  0.00  0.00    +0.000 A 
ATOM     32  H   UNL     1      52.566   7.487  13.369  0.00  0.00    +0.000 HD
ENDBRANCH  19  22
ENDBRANCH   1  20
TORSDOF 7
ENDMDL
MODEL 7
REMARK VINA RESULT:    -6.962      1.491      2.210
REMARK INTER + INTRA:         -11.050
REMARK INTER:                 -10.994
REMARK INTRA:                  -0.056
REMARK UNBOUND:                -1.239
REMARK  Name = 
REMARK  7 active torsions:
REMARK  status: ('A' for Active; 'I' for Inactive)
REMARK    1  A    between atoms: C_2  and  C_20
REMARK    2  A    between atoms: N_3  and  C_4
REMARK    3  A    between atoms: C_4  and  C_5
REMARK    4  A    between atoms: C_8  and  C_9
REMARK    5  A    between atoms: C_9  and  N_10
REMARK    6  A    between atoms: N_10  and  C_11
REMARK    7  A    between atoms: C_11  and  C_12
REMARK                            x       y       z     vdW  Elec       q    Type
REMARK                         _______ _______ _______ _____ _____    ______ ____
ROOT
ATOM      1  C   UNL     1      46.355   6.984  12.865  0.00  0.00    +0.000 C 
ENDROOT
BRANCH   1   2
ATOM      2  C   UNL     1      45.690   6.242  11.686  0.00  0.00    +0.000 C 
ATOM      3  C   UNL     1      46.085   4.755  11.571  0.00  0.00    +0.000 C 
ATOM      4  C   UNL     1      45.382   3.866  12.602  0.00  0.00    +0.000 C 
ATOM      5  C   UNL     1      43.852   3.964  12.530  0.00  0.00    +0.000 C 
ATOM      6  C   UNL     1      43.419   5.443  12.642  0.00  0.00    +0.000 C 
ATOM      7  C   UNL     1      44.160   6.418  11.716  0.00  0.00    +0.000 C 
BRANCH   5   8
ATOM      8  C   UNL     1      43.290   3.204  11.302  0.00  0.00    +0.000 C 
BRANCH   8   9
ATOM      9  N   UNL     1      44.260   3.262  10.204  0.00  0.00    +0.000 NA
ATOM     10  H   UNL     1      45.150   3.634  10.538  0.00  0.00    +0.000 HD
BRANCH   9  11
ATOM     11  C   UNL     1      44.538   1.985   9.554  0.00  0.00    +0.000 C 
BRANCH  11  12
ATOM     12  C   UNL     1      45.604   2.170   8.498  0.00  0.00    +0.000 A 
ATOM     13  C   UNL     1      45.859   3.438   7.966  0.00  0.00    +0.000 A 
ATOM     14  C   UNL     1      46.846   3.600   7.000  0.00  0.00    +0.000 A 
ATOM     15  C   UNL     1      47.546   2.484   6.574  0.00  0.00    +0.000 A 
ATOM     16  N   UNL     1      47.340   1.245   7.064  0.00  0.00    +0.000 NA
ATOM     17  C   UNL     1      46.386   1.120   8.020  0.00  0.00    +0.000 A 
ENDBRANCH  11  12
ENDBRANCH   9  11
ENDBRANCH   8   9
ENDBRANCH   5   8
ENDBRANCH   1   2
BRANCH   1  20
ATOM     18  O   UNL     1      48.860   6.273  13.964  0.00  0.00    +0.000 OA
ATOM     19  C   UNL     1      47.847   5.867  14.498  0.00  0.00    +0.000 C 
ATOM     20  N   UNL     1      46.580   6.141  14.021  0.00  0.00    +0.000 N 
ATOM     21  H   UNL     1      45.790   5.786  14.538  0.00  0.00    +0.000 HD
BRANCH  19  22
ATOM     22  C   UNL     1      47.853   5.038  15.709  0.00  0.00    +0.000 A 
ATOM     23  C   UNL     1      47.442   3.714  15.781  0.00  0.00    +0.000 A 
ATOM     24  S   UNL     1      47.635   3.033  17.340  0.00  0.00    +0.000 S 
ATOM     25  C   UNL     1      48.266   4.490  17.956  0.00  0.00    +0.000 A 
ATOM     26  N   UNL     1      48.655   4.599  19.255  0.00  0.00    +0.000 NA
ATOM     27  C   UNL     1      49.108   5.766  19.571  0.00  0.00    +0.000 A 
ATOM     28  N   UNL     1      49.197   6.835  18.719  0.00  0.00    +0.000 N 
ATOM     29  C   UNL     1      48.714   6.808  17.427  0.00  0.00    +0.000 A 
ATOM     30  O   UNL     1      48.601   7.840  16.786  0.00  0.00    +0.000 OA
ATOM     31  C   UNL     1      48.290   5.485  17.001  0.00  0.00    +0.000 A 
ATOM     32  H   UNL     1      49.494   7.740  19.043  0.00  0.00    +0.000 HD
ENDBRANCH  19  22
ENDBRANCH   1  20
TORSDOF 7
ENDMDL
MODEL 8
REMARK VINA RESULT:    -6.945      2.823      8.069
REMARK INTER + INTRA:         -11.027
REMARK INTER:                  -9.618
REMARK INTRA:                  -1.409
REMARK UNBOUND:                -1.239
REMARK  Name = 
REMARK  7 active torsions:
REMARK  status: ('A' for Active; 'I' for Inactive)
REMARK    1  A    between atoms: C_2  and  C_20
REMARK    2  A    between atoms: N_3  and  C_4
REMARK    3  A    between atoms: C_4  and  C_5
REMARK    4  A    between atoms: C_8  and  C_9
REMARK    5  A    between atoms: C_9  and  N_10
REMARK    6  A    between atoms: N_10  and  C_11
REMARK    7  A    between atoms: C_11  and  C_12
REMARK                            x       y       z     vdW  Elec       q    Type
REMARK                         _______ _______ _______ _____ _____    ______ ____
ROOT
ATOM      1  C   UNL     1      47.370   8.083  11.540  0.00  0.00    +0.000 C 
ENDROOT
BRANCH   1   2
ATOM      2  C   UNL     1      48.773   8.015  12.180  0.00  0.00    +0.000 C 
ATOM      3  C   UNL     1      49.105   9.204  13.105  0.00  0.00    +0.000 C 
ATOM      4  C   UNL     1      48.415   9.114  14.469  0.00  0.00    +0.000 C 
ATOM      5  C   UNL     1      48.744   7.815  15.220  0.00  0.00    +0.000 C 
ATOM      6  C   UNL     1      48.423   6.600  14.321  0.00  0.00    +0.000 C 
ATOM      7  C   UNL     1      48.989   6.668  12.895  0.00  0.00    +0.000 C 
BRANCH   5   8
ATOM      8  C   UNL     1      50.180   7.843  15.803  0.00  0.00    +0.000 C 
BRANCH   8   9
ATOM      9  N   UNL     1      50.583   6.484  16.178  0.00  0.00    +0.000 NA
ATOM     10  H   UNL     1      51.592   6.373  16.069  0.00  0.00    +0.000 HD
BRANCH   9  11
ATOM     11  C   UNL     1      50.245   6.090  17.542  0.00  0.00    +0.000 C 
BRANCH  11  12
ATOM     12  C   UNL     1      49.216   4.983  17.515  0.00  0.00    +0.000 A 
ATOM     13  C   UNL     1      49.599   3.669  17.229  0.00  0.00    +0.000 A 
ATOM     14  C   UNL     1      48.647   2.655  17.213  0.00  0.00    +0.000 A 
ATOM     15  C   UNL     1      47.326   2.984  17.468  0.00  0.00    +0.000 A 
ATOM     16  N   UNL     1      46.913   4.234  17.756  0.00  0.00    +0.000 NA
ATOM     17  C   UNL     1      47.865   5.198  17.785  0.00  0.00    +0.000 A 
ENDBRANCH  11  12
ENDBRANCH   9  11
ENDBRANCH   8   9
ENDBRANCH   5   8
ENDBRANCH   1   2
BRANCH   1  20
ATOM     18  O   UNL     1      44.572   7.721  11.374  0.00  0.00    +0.000 OA
ATOM     19  C   UNL     1      45.286   6.743  11.467  0.00  0.00    +0.000 C 
ATOM     20  N   UNL     1      46.661   6.820  11.577  0.00  0.00    +0.000 N 
ATOM     21  H   UNL     1      47.183   5.958  11.624  0.00  0.00    +0.000 HD
BRANCH  19  22
ATOM     22  C   UNL     1      44.772   5.368  11.473  0.00  0.00    +0.000 A 
ATOM     23  C   UNL     1      44.149   4.746  12.546  0.00  0.00    +0.000 A 
ATOM     24  S   UNL     1      43.623   3.157  12.189  0.00  0.00    +0.000 S 
ATOM     25  C   UNL     1      44.219   3.259  10.598  0.00  0.00    +0.000 A 
ATOM     26  N   UNL     1      44.087   2.224   9.726  0.00  0.00    +0.000 NA
ATOM     27  C   UNL     1      44.593   2.452   8.559  0.00  0.00    +0.000 A 
ATOM     28  N   UNL     1      45.226   3.609   8.188  0.00  0.00    +0.000 N 
ATOM     29  C   UNL     1      45.482   4.641   9.067  0.00  0.00    +0.000 A 
ATOM     30  O   UNL     1      46.246   5.542   8.759  0.00  0.00    +0.000 OA
ATOM     31  C   UNL     1      44.842   4.467  10.358  0.00  0.00    +0.000 A 
ATOM     32  H   UNL     1      45.662   3.701   7.285  0.00  0.00    +0.000 HD
ENDBRANCH  19  22
ENDBRANCH   1  20
TORSDOF 7
ENDMDL
MODEL 9
REMARK VINA RESULT:    -6.748      3.493      7.785
REMARK INTER + INTRA:         -10.749
REMARK INTER:                  -8.850
REMARK INTRA:                  -1.899
REMARK UNBOUND:                -1.239
REMARK  Name = 
REMARK  7 active torsions:
REMARK  status: ('A' for Active; 'I' for Inactive)
REMARK    1  A    between atoms: C_2  and  C_20
REMARK    2  A    between atoms: N_3  and  C_4
REMARK    3  A    between atoms: C_4  and  C_5
REMARK    4  A    between atoms: C_8  and  C_9
REMARK    5  A    between atoms: C_9  and  N_10
REMARK    6  A    between atoms: N_10  and  C_11
REMARK    7  A    between atoms: C_11  and  C_12
REMARK                            x       y       z     vdW  Elec       q    Type
REMARK                         _______ _______ _______ _____ _____    ______ ____
ROOT
ATOM      1  C   UNL     1      48.590   8.051  14.135  0.00  0.00    +0.000 C 
ENDROOT
BRANCH   1   2
ATOM      2  C   UNL     1      49.436   7.005  14.891  0.00  0.00    +0.000 C 
ATOM      3  C   UNL     1      50.822   7.514  15.337  0.00  0.00    +0.000 C 
ATOM      4  C   UNL     1      50.758   8.432  16.562  0.00  0.00    +0.000 C 
ATOM      5  C   UNL     1      50.078   7.770  17.769  0.00  0.00    +0.000 C 
ATOM      6  C   UNL     1      48.684   7.245  17.358  0.00  0.00    +0.000 C 
ATOM      7  C   UNL     1      48.649   6.407  16.072  0.00  0.00    +0.000 C 
BRANCH   5   8
ATOM      8  C   UNL     1      51.004   6.723  18.441  0.00  0.00    +0.000 C 
BRANCH   8   9
ATOM      9  N   UNL     1      50.190   5.752  19.179  0.00  0.00    +0.000 NA
ATOM     10  H   UNL     1      49.230   5.761  18.833  0.00  0.00    +0.000 HD
BRANCH   9  11
ATOM     11  C   UNL     1      50.663   4.372  19.116  0.00  0.00    +0.000 C 
BRANCH  11  12
ATOM     12  C   UNL     1      49.816   3.585  18.143  0.00  0.00    +0.000 A 
ATOM     13  C   UNL     1      48.422   3.678  18.184  0.00  0.00    +0.000 A 
ATOM     14  C   UNL     1      47.650   2.956  17.279  0.00  0.00    +0.000 A 
ATOM     15  C   UNL     1      48.293   2.143  16.362  0.00  0.00    +0.000 A 
ATOM     16  N   UNL     1      49.634   2.029  16.279  0.00  0.00    +0.000 NA
ATOM     17  C   UNL     1      50.361   2.760  17.160  0.00  0.00    +0.000 A 
ENDBRANCH  11  12
ENDBRANCH   9  11
ENDBRANCH   8   9
ENDBRANCH   5   8
ENDBRANCH   1   2
BRANCH   1  20
ATOM     18  O   UNL     1      47.983   7.307  11.477  0.00  0.00    +0.000 OA
ATOM     19  C   UNL     1      47.132   7.171  12.334  0.00  0.00    +0.000 C 
ATOM     20  N   UNL     1      47.327   7.528  13.654  0.00  0.00    +0.000 N 
ATOM     21  H   UNL     1      46.578   7.360  14.308  0.00  0.00    +0.000 HD
BRANCH  19  22
ATOM     22  C   UNL     1      45.801   6.614  12.066  0.00  0.00    +0.000 A 
ATOM     23  C   UNL     1      44.720   7.320  11.557  0.00  0.00    +0.000 A 
ATOM     24  S   UNL     1      43.333   6.346  11.316  0.00  0.00    +0.000 S 
ATOM     25  C   UNL     1      44.141   4.961  11.889  0.00  0.00    +0.000 A 
ATOM     26  N   UNL     1      43.520   3.751  11.941  0.00  0.00    +0.000 NA
ATOM     27  C   UNL     1      44.263   2.801  12.403  0.00  0.00    +0.000 A 
ATOM     28  N   UNL     1      45.558   2.946  12.827  0.00  0.00    +0.000 N 
ATOM     29  C   UNL     1      46.192   4.169  12.897  0.00  0.00    +0.000 A 
ATOM     30  O   UNL     1      47.250   4.284  13.494  0.00  0.00    +0.000 OA
ATOM     31  C   UNL     1      45.429   5.247  12.294  0.00  0.00    +0.000 A 
ATOM     32  H   UNL     1      46.062   2.180  13.242  0.00  0.00    +0.000 HD
ENDBRANCH  19  22
ENDBRANCH   1  20
TORSDOF 7
ENDMDL
