MODEL 1
REMARK VINA RESULT:    -7.670      0.000      0.000
REMARK INTER + INTRA:         -12.838
REMARK INTER:                 -11.257
REMARK INTRA:                  -1.582
REMARK UNBOUND:                -1.582
REMARK  Name = 
REMARK  10 active torsions:
REMARK  status: ('A' for Active; 'I' for Inactive)
REMARK    1  A    between atoms: C_1  and  C_2
REMARK    2  A    between atoms: C_2  and  C_3
REMARK    3  A    between atoms: C_2  and  O_4
REMARK    4  A    between atoms: O_4  and  C_5
REMARK    5  A    between atoms: C_7  and  C_8
REMARK    6  A    between atoms: C_13  and  N_14
REMARK    7  A    between atoms: N_14  and  C_15
REMARK    8  A    between atoms: C_15  and  C_16
REMARK    9  A    between atoms: C_20  and  C_21
REMARK   10  A    between atoms: C_24  and  C_25
REMARK                            x       y       z     vdW  Elec       q    Type
REMARK                         _______ _______ _______ _____ _____    ______ ____
ROOT
ATOM      1  N   UNL     1      46.748   7.701  12.678  0.00  0.00    +0.000 N 
ATOM      2  H   UNL     1      47.212   7.731  11.779  0.00  0.00    +0.000 HD
ENDROOT
BRANCH   1   8
ATOM      3  C   UNL     1      48.290   6.738  14.368  0.00  0.00    +0.000 A 
ATOM      4  C   UNL     1      49.159   7.035  15.424  0.00  0.00    +0.000 A 
ATOM      5  C   UNL     1      49.319   8.339  15.883  0.00  0.00    +0.000 A 
ATOM      6  C   UNL     1      48.587   9.317  15.241  0.00  0.00    +0.000 A 
ATOM      7  N   UNL     1      47.742   9.079  14.203  0.00  0.00    +0.000 NA
ATOM      8  C   UNL     1      47.593   7.804  13.758  0.00  0.00    +0.000 A 
BRANCH   5   9
ATOM      9  C   UNL     1      50.244   8.557  17.022  0.00  0.00    +0.000 C 
ATOM     10  N   UNL     1      51.565   8.786  16.778  0.00  0.00    +0.000 N 
ATOM     11  O   UNL     1      49.841   8.537  18.176  0.00  0.00    +0.000 OA
ATOM     12  H   UNL     1      52.011   8.793  15.876  0.00  0.00    +0.000 HD
ATOM     13  H   UNL     1      52.150   8.918  17.596  0.00  0.00    +0.000 HD
ENDBRANCH   5   9
BRANCH   3  14
ATOM     14  O   UNL     1      48.075   5.454  13.931  0.00  0.00    +0.000 OA
BRANCH  14  16
ATOM     15  C   UNL     1      46.707   3.536  13.508  0.00  0.00    +0.000 C 
ATOM     16  C   UNL     1      46.979   4.695  14.462  0.00  0.00    +0.000 C 
ATOM     17  C   UNL     1      47.340   4.176  15.851  0.00  0.00    +0.000 C 
ENDBRANCH  14  16
ENDBRANCH   3  14
ENDBRANCH   1   8
BRANCH   1  18
ATOM     18  C   UNL     1      45.313   7.770  12.746  0.00  0.00    +0.000 C 
BRANCH  18  19
ATOM     19  C   UNL     1      44.652   6.496  12.265  0.00  0.00    +0.000 A 
ATOM     20  C   UNL     1      43.379   6.133  12.716  0.00  0.00    +0.000 A 
ATOM     21  C   UNL     1      42.723   5.038  12.158  0.00  0.00    +0.000 A 
ATOM     22  C   UNL     1      43.333   4.297  11.142  0.00  0.00    +0.000 A 
ATOM     23  C   UNL     1      44.614   4.626  10.662  0.00  0.00    +0.000 A 
ATOM     24  C   UNL     1      45.268   5.716  11.270  0.00  0.00    +0.000 A 
BRANCH  23  25
ATOM     25  C   UNL     1      45.217   3.923   9.505  0.00  0.00    +0.000 A 
ATOM     26  C   UNL     1      45.835   4.640   8.464  0.00  0.00    +0.000 A 
ATOM     27  C   UNL     1      46.470   3.991   7.398  0.00  0.00    +0.000 A 
ATOM     28  C   UNL     1      46.518   2.595   7.344  0.00  0.00    +0.000 A 
ATOM     29  C   UNL     1      45.904   1.865   8.369  0.00  0.00    +0.000 A 
ATOM     30  C   UNL     1      45.257   2.520   9.425  0.00  0.00    +0.000 A 
BRANCH  28  31
ATOM     31  C   UNL     1      47.218   1.881   6.216  0.00  0.00    +0.000 C 
ATOM     32  F   UNL     1      46.994   2.440   4.993  0.00  0.00    +0.000 F 
ATOM     33  F   UNL     1      48.572   1.861   6.371  0.00  0.00    +0.000 F 
ATOM     34  F   UNL     1      46.837   0.579   6.104  0.00  0.00    +0.000 F 
ENDBRANCH  28  31
ENDBRANCH  23  25
ENDBRANCH  18  19
ENDBRANCH   1  18
TORSDOF 8
ENDMDL
MODEL 2
REMARK VINA RESULT:    -7.637      2.089      2.481
REMARK INTER + INTRA:         -12.790
REMARK INTER:                 -10.887
REMARK INTRA:                  -1.903
REMARK UNBOUND:                -1.582
REMARK  Name = 
REMARK  10 active torsions:
REMARK  status: ('A' for Active; 'I' for Inactive)
REMARK    1  A    between atoms: C_1  and  C_2
REMARK    2  A    between atoms: C_2  and  C_3
REMARK    3  A    between atoms: C_2  and  O_4
REMARK    4  A    between atoms: O_4  and  C_5
REMARK    5  A    between atoms: C_7  and  C_8
REMARK    6  A    between atoms: C_13  and  N_14
REMARK    7  A    between atoms: N_14  and  C_15
REMARK    8  A    between atoms: C_15  and  C_16
REMARK    9  A    between atoms: C_20  and  C_21
REMARK   10  A    between atoms: C_24  and  C_25
REMARK                            x       y       z     vdW  Elec       q    Type
REMARK                         _______ _______ _______ _____ _____    ______ ____
ROOT
ATOM      1  N   UNL     1      45.237   8.568  12.836  0.00  0.00    +0.000 N 
ATOM      2  H   UNL     1      44.916   8.763  13.776  0.00  0.00    +0.000 HD
ENDROOT
BRANCH   1   8
ATOM      3  C   UNL     1      47.288   7.197  13.113  0.00  0.00    +0.000 A 
ATOM      4  C   UNL     1      48.665   7.139  12.876  0.00  0.00    +0.000 A 
ATOM      5  C   UNL     1      49.345   8.208  12.301  0.00  0.00    +0.000 A 
ATOM      6  C   UNL     1      48.592   9.317  11.972  0.00  0.00    +0.000 A 
ATOM      7  N   UNL     1      47.251   9.414  12.170  0.00  0.00    +0.000 NA
ATOM      8  C   UNL     1      46.594   8.365  12.729  0.00  0.00    +0.000 A 
BRANCH   5   9
ATOM      9  C   UNL     1      50.809   8.068  12.108  0.00  0.00    +0.000 C 
ATOM     10  N   UNL     1      51.279   7.312  11.076  0.00  0.00    +0.000 N 
ATOM     11  O   UNL     1      51.601   8.620  12.858  0.00  0.00    +0.000 OA
ATOM     12  H   UNL     1      50.723   6.790  10.419  0.00  0.00    +0.000 HD
ATOM     13  H   UNL     1      52.288   7.245  11.000  0.00  0.00    +0.000 HD
ENDBRANCH   5   9
BRANCH   3  14
ATOM     14  O   UNL     1      46.603   6.176  13.726  0.00  0.00    +0.000 OA
BRANCH  14  16
ATOM     15  C   UNL     1      47.376   4.685  15.432  0.00  0.00    +0.000 C 
ATOM     16  C   UNL     1      47.245   4.908  13.929  0.00  0.00    +0.000 C 
ATOM     17  C   UNL     1      46.410   3.803  13.290  0.00  0.00    +0.000 C 
ENDBRANCH  14  16
ENDBRANCH   3  14
ENDBRANCH   1   8
BRANCH   1  18
ATOM     18  C   UNL     1      44.282   8.316  11.790  0.00  0.00    +0.000 C 
BRANCH  18  19
ATOM     19  C   UNL     1      43.980   6.842  11.630  0.00  0.00    +0.000 A 
ATOM     20  C   UNL     1      42.851   6.271  12.228  0.00  0.00    +0.000 A 
ATOM     21  C   UNL     1      42.507   4.949  11.955  0.00  0.00    +0.000 A 
ATOM     22  C   UNL     1      43.285   4.186  11.080  0.00  0.00    +0.000 A 
ATOM     23  C   UNL     1      44.429   4.721  10.461  0.00  0.00    +0.000 A 
ATOM     24  C   UNL     1      44.775   6.048  10.783  0.00  0.00    +0.000 A 
BRANCH  23  25
ATOM     25  C   UNL     1      45.190   3.960   9.440  0.00  0.00    +0.000 A 
ATOM     26  C   UNL     1      45.180   2.553   9.430  0.00  0.00    +0.000 A 
ATOM     27  C   UNL     1      45.835   1.819   8.434  0.00  0.00    +0.000 A 
ATOM     28  C   UNL     1      46.517   2.473   7.403  0.00  0.00    +0.000 A 
ATOM     29  C   UNL     1      46.541   3.873   7.399  0.00  0.00    +0.000 A 
ATOM     30  C   UNL     1      45.896   4.602   8.407  0.00  0.00    +0.000 A 
BRANCH  28  31
ATOM     31  C   UNL     1      47.207   1.697   6.309  0.00  0.00    +0.000 C 
ATOM     32  F   UNL     1      48.567   1.784   6.354  0.00  0.00    +0.000 F 
ATOM     33  F   UNL     1      46.919   0.367   6.351  0.00  0.00    +0.000 F 
ATOM     34  F   UNL     1      46.849   2.117   5.065  0.00  0.00    +0.000 F 
ENDBRANCH  28  31
ENDBRANCH  23  25
ENDBRANCH  18  19
ENDBRANCH   1  18
TORSDOF 8
ENDMDL
MODEL 3
REMARK VINA RESULT:    -7.525      2.247      3.157
REMARK INTER + INTRA:         -12.626
REMARK INTER:                 -11.414
REMARK INTRA:                  -1.213
REMARK UNBOUND:                -1.582
REMARK  Name = 
REMARK  10 active torsions:
REMARK  status: ('A' for Active; 'I' for Inactive)
REMARK    1  A    between atoms: C_1  and  C_2
REMARK    2  A    between atoms: C_2  and  C_3
REMARK    3  A    between atoms: C_2  and  O_4
REMARK    4  A    between atoms: O_4  and  C_5
REMARK    5  A    between atoms: C_7  and  C_8
REMARK    6  A    between atoms: C_13  and  N_14
REMARK    7  A    between atoms: N_14  and  C_15
REMARK    8  A    between atoms: C_15  and  C_16
REMARK    9  A    between atoms: C_20  and  C_21
REMARK   10  A    between atoms: C_24  and  C_25
REMARK                            x       y       z     vdW  Elec       q    Type
REMARK                         _______ _______ _______ _____ _____    ______ ____
ROOT
ATOM      1  N   UNL     1      46.708   4.652  14.357  0.00  0.00    +0.000 N 
ATOM      2  H   UNL     1      47.053   4.006  13.658  0.00  0.00    +0.000 HD
ENDROOT
BRANCH   1   8
ATOM      3  C   UNL     1      48.480   5.463  15.894  0.00  0.00    +0.000 A 
ATOM      4  C   UNL     1      49.027   5.338  17.175  0.00  0.00    +0.000 A 
ATOM      5  C   UNL     1      48.541   4.399  18.080  0.00  0.00    +0.000 A 
ATOM      6  C   UNL     1      47.493   3.610  17.652  0.00  0.00    +0.000 A 
ATOM      7  N   UNL     1      46.920   3.704  16.423  0.00  0.00    +0.000 NA
ATOM      8  C   UNL     1      47.398   4.625  15.546  0.00  0.00    +0.000 A 
BRANCH   5   9
ATOM      9  C   UNL     1      49.197   4.321  19.408  0.00  0.00    +0.000 C 
ATOM     10  N   UNL     1      48.509   3.807  20.466  0.00  0.00    +0.000 N 
ATOM     11  O   UNL     1      50.346   4.709  19.569  0.00  0.00    +0.000 OA
ATOM     12  H   UNL     1      47.554   3.489  20.458  0.00  0.00    +0.000 HD
ATOM     13  H   UNL     1      49.006   3.788  21.350  0.00  0.00    +0.000 HD
ENDBRANCH   5   9
BRANCH   3  14
ATOM     14  O   UNL     1      48.975   6.346  14.966  0.00  0.00    +0.000 OA
BRANCH  14  16
ATOM     15  C   UNL     1      50.316   8.312  15.224  0.00  0.00    +0.000 C 
ATOM     16  C   UNL     1      48.895   7.758  15.211  0.00  0.00    +0.000 C 
ATOM     17  C   UNL     1      48.067   8.422  14.115  0.00  0.00    +0.000 C 
ENDBRANCH  14  16
ENDBRANCH   3  14
ENDBRANCH   1   8
BRANCH   1  18
ATOM     18  C   UNL     1      45.727   5.640  13.996  0.00  0.00    +0.000 C 
BRANCH  18  19
ATOM     19  C   UNL     1      44.812   5.165  12.889  0.00  0.00    +0.000 A 
ATOM     20  C   UNL     1      43.446   5.469  12.906  0.00  0.00    +0.000 A 
ATOM     21  C   UNL     1      42.643   5.151  11.813  0.00  0.00    +0.000 A 
ATOM     22  C   UNL     1      43.198   4.528  10.691  0.00  0.00    +0.000 A 
ATOM     23  C   UNL     1      44.566   4.202  10.635  0.00  0.00    +0.000 A 
ATOM     24  C   UNL     1      45.346   4.503  11.769  0.00  0.00    +0.000 A 
BRANCH  23  25
ATOM     25  C   UNL     1      45.186   3.653   9.405  0.00  0.00    +0.000 A 
ATOM     26  C   UNL     1      45.753   4.505   8.439  0.00  0.00    +0.000 A 
ATOM     27  C   UNL     1      46.403   4.003   7.306  0.00  0.00    +0.000 A 
ATOM     28  C   UNL     1      46.519   2.624   7.106  0.00  0.00    +0.000 A 
ATOM     29  C   UNL     1      45.958   1.762   8.056  0.00  0.00    +0.000 A 
ATOM     30  C   UNL     1      45.295   2.270   9.180  0.00  0.00    +0.000 A 
BRANCH  28  31
ATOM     31  C   UNL     1      47.238   2.067   5.903  0.00  0.00    +0.000 C 
ATOM     32  F   UNL     1      46.800   2.582   4.720  0.00  0.00    +0.000 F 
ATOM     33  F   UNL     1      48.578   2.308   5.938  0.00  0.00    +0.000 F 
ATOM     34  F   UNL     1      47.104   0.717   5.793  0.00  0.00    +0.000 F 
ENDBRANCH  28  31
ENDBRANCH  23  25
ENDBRANCH  18  19
ENDBRANCH   1  18
TORSDOF 8
ENDMDL
MODEL 4
REMARK VINA RESULT:    -7.273      1.517      2.453
REMARK INTER + INTRA:         -12.256
REMARK INTER:                 -10.481
REMARK INTRA:                  -1.775
REMARK UNBOUND:                -1.582
REMARK  Name = 
REMARK  10 active torsions:
REMARK  status: ('A' for Active; 'I' for Inactive)
REMARK    1  A    between atoms: C_1  and  C_2
REMARK    2  A    between atoms: C_2  and  C_3
REMARK    3  A    between atoms: C_2  and  O_4
REMARK    4  A    between atoms: O_4  and  C_5
REMARK    5  A    between atoms: C_7  and  C_8
REMARK    6  A    between atoms: C_13  and  N_14
REMARK    7  A    between atoms: N_14  and  C_15
REMARK    8  A    between atoms: C_15  and  C_16
REMARK    9  A    between atoms: C_20  and  C_21
REMARK   10  A    between atoms: C_24  and  C_25
REMARK                            x       y       z     vdW  Elec       q    Type
REMARK                         _______ _______ _______ _____ _____    ______ ____
ROOT
ATOM      1  N   UNL     1      46.570   4.248  14.244  0.00  0.00    +0.000 N 
ATOM      2  H   UNL     1      46.923   3.588  13.563  0.00  0.00    +0.000 HD
ENDROOT
BRANCH   1   8
ATOM      3  C   UNL     1      48.016   6.264  14.154  0.00  0.00    +0.000 A 
ATOM      4  C   UNL     1      48.946   7.036  14.857  0.00  0.00    +0.000 A 
ATOM      5  C   UNL     1      49.397   6.655  16.117  0.00  0.00    +0.000 A 
ATOM      6  C   UNL     1      48.876   5.486  16.634  0.00  0.00    +0.000 A 
ATOM      7  N   UNL     1      47.962   4.710  15.995  0.00  0.00    +0.000 NA
ATOM      8  C   UNL     1      47.524   5.091  14.767  0.00  0.00    +0.000 A 
BRANCH   5   9
ATOM      9  C   UNL     1      50.401   7.523  16.780  0.00  0.00    +0.000 C 
ATOM     10  N   UNL     1      51.707   7.451  16.396  0.00  0.00    +0.000 N 
ATOM     11  O   UNL     1      50.076   8.305  17.662  0.00  0.00    +0.000 OA
ATOM     12  H   UNL     1      52.091   6.826  15.707  0.00  0.00    +0.000 HD
ATOM     13  H   UNL     1      52.348   8.062  16.891  0.00  0.00    +0.000 HD
ENDBRANCH   5   9
BRANCH   3  14
ATOM     14  O   UNL     1      47.595   6.591  12.888  0.00  0.00    +0.000 OA
BRANCH  14  16
ATOM     15  C   UNL     1      47.752   8.857  12.132  0.00  0.00    +0.000 C 
ATOM     16  C   UNL     1      46.821   7.782  12.681  0.00  0.00    +0.000 C 
ATOM     17  C   UNL     1      45.691   7.494  11.697  0.00  0.00    +0.000 C 
ENDBRANCH  14  16
ENDBRANCH   3  14
ENDBRANCH   1   8
BRANCH   1  18
ATOM     18  C   UNL     1      45.152   4.391  14.436  0.00  0.00    +0.000 C 
BRANCH  18  19
ATOM     19  C   UNL     1      44.396   4.437  13.126  0.00  0.00    +0.000 A 
ATOM     20  C   UNL     1      43.185   5.130  13.020  0.00  0.00    +0.000 A 
ATOM     21  C   UNL     1      42.574   5.286  11.778  0.00  0.00    +0.000 A 
ATOM     22  C   UNL     1      43.168   4.752  10.630  0.00  0.00    +0.000 A 
ATOM     23  C   UNL     1      44.383   4.046  10.694  0.00  0.00    +0.000 A 
ATOM     24  C   UNL     1      44.960   3.873  11.968  0.00  0.00    +0.000 A 
BRANCH  23  25
ATOM     25  C   UNL     1      45.080   3.583   9.470  0.00  0.00    +0.000 A 
ATOM     26  C   UNL     1      45.630   4.503   8.559  0.00  0.00    +0.000 A 
ATOM     27  C   UNL     1      46.351   4.085   7.435  0.00  0.00    +0.000 A 
ATOM     28  C   UNL     1      46.557   2.724   7.190  0.00  0.00    +0.000 A 
ATOM     29  C   UNL     1      46.014   1.794   8.084  0.00  0.00    +0.000 A 
ATOM     30  C   UNL     1      45.280   2.218   9.199  0.00  0.00    +0.000 A 
BRANCH  28  31
ATOM     31  C   UNL     1      47.352   2.257   5.996  0.00  0.00    +0.000 C 
ATOM     32  F   UNL     1      48.686   2.522   6.092  0.00  0.00    +0.000 F 
ATOM     33  F   UNL     1      47.255   0.913   5.798  0.00  0.00    +0.000 F 
ATOM     34  F   UNL     1      46.942   2.836   4.835  0.00  0.00    +0.000 F 
ENDBRANCH  28  31
ENDBRANCH  23  25
ENDBRANCH  18  19
ENDBRANCH   1  18
TORSDOF 8
ENDMDL
MODEL 5
REMARK VINA RESULT:    -7.258      1.738      2.187
REMARK INTER + INTRA:         -12.234
REMARK INTER:                 -10.932
REMARK INTRA:                  -1.303
REMARK UNBOUND:                -1.582
REMARK  Name = 
REMARK  10 active torsions:
REMARK  status: ('A' for Active; 'I' for Inactive)
REMARK    1  A    between atoms: C_1  and  C_2
REMARK    2  A    between atoms: C_2  and  C_3
REMARK    3  A    between atoms: C_2  and  O_4
REMARK    4  A    between atoms: O_4  and  C_5
REMARK    5  A    between atoms: C_7  and  C_8
REMARK    6  A    between atoms: C_13  and  N_14
REMARK    7  A    between atoms: N_14  and  C_15
REMARK    8  A    between atoms: C_15  and  C_16
REMARK    9  A    between atoms: C_20  and  C_21
REMARK   10  A    between atoms: C_24  and  C_25
REMARK                            x       y       z     vdW  Elec       q    Type
REMARK                         _______ _______ _______ _____ _____    ______ ____
ROOT
ATOM      1  N   UNL     1      46.895   4.584  14.119  0.00  0.00    +0.000 N 
ATOM      2  H   UNL     1      47.202   3.755  13.625  0.00  0.00    +0.000 HD
ENDROOT
BRANCH   1   8
ATOM      3  C   UNL     1      48.468   5.901  15.516  0.00  0.00    +0.000 A 
ATOM      4  C   UNL     1      49.493   6.853  15.496  0.00  0.00    +0.000 A 
ATOM      5  C   UNL     1      49.902   7.449  14.308  0.00  0.00    +0.000 A 
ATOM      6  C   UNL     1      49.254   7.048  13.157  0.00  0.00    +0.000 A 
ATOM      7  N   UNL     1      48.264   6.118  13.125  0.00  0.00    +0.000 NA
ATOM      8  C   UNL     1      47.871   5.538  14.289  0.00  0.00    +0.000 A 
BRANCH   5   9
ATOM      9  C   UNL     1      50.981   8.465  14.385  0.00  0.00    +0.000 C 
ATOM     10  N   UNL     1      52.219   8.165  13.900  0.00  0.00    +0.000 N 
ATOM     11  O   UNL     1      50.777   9.567  14.874  0.00  0.00    +0.000 OA
ATOM     12  H   UNL     1      52.507   7.285  13.506  0.00  0.00    +0.000 HD
ATOM     13  H   UNL     1      52.917   8.896  13.989  0.00  0.00    +0.000 HD
ENDBRANCH   5   9
BRANCH   3  14
ATOM     14  O   UNL     1      48.011   5.337  16.682  0.00  0.00    +0.000 OA
BRANCH  14  16
ATOM     15  C   UNL     1      49.336   4.391  18.437  0.00  0.00    +0.000 C 
ATOM     16  C   UNL     1      48.577   4.102  17.146  0.00  0.00    +0.000 C 
ATOM     17  C   UNL     1      47.463   3.088  17.390  0.00  0.00    +0.000 C 
ENDBRANCH  14  16
ENDBRANCH   3  14
ENDBRANCH   1   8
BRANCH   1  18
ATOM     18  C   UNL     1      45.497   4.779  14.392  0.00  0.00    +0.000 C 
BRANCH  18  19
ATOM     19  C   UNL     1      44.647   4.673  13.144  0.00  0.00    +0.000 A 
ATOM     20  C   UNL     1      43.372   5.248  13.092  0.00  0.00    +0.000 A 
ATOM     21  C   UNL     1      42.661   5.268  11.895  0.00  0.00    +0.000 A 
ATOM     22  C   UNL     1      43.217   4.716  10.737  0.00  0.00    +0.000 A 
ATOM     23  C   UNL     1      44.494   4.126  10.747  0.00  0.00    +0.000 A 
ATOM     24  C   UNL     1      45.176   4.087  11.980  0.00  0.00    +0.000 A 
BRANCH  23  25
ATOM     25  C   UNL     1      45.142   3.648   9.502  0.00  0.00    +0.000 A 
ATOM     26  C   UNL     1      45.715   4.555   8.591  0.00  0.00    +0.000 A 
ATOM     27  C   UNL     1      46.390   4.119   7.445  0.00  0.00    +0.000 A 
ATOM     28  C   UNL     1      46.525   2.754   7.176  0.00  0.00    +0.000 A 
ATOM     29  C   UNL     1      45.957   1.837   8.070  0.00  0.00    +0.000 A 
ATOM     30  C   UNL     1      45.270   2.280   9.207  0.00  0.00    +0.000 A 
BRANCH  28  31
ATOM     31  C   UNL     1      47.271   2.267   5.959  0.00  0.00    +0.000 C 
ATOM     32  F   UNL     1      46.861   2.853   4.798  0.00  0.00    +0.000 F 
ATOM     33  F   UNL     1      48.610   2.502   6.039  0.00  0.00    +0.000 F 
ATOM     34  F   UNL     1      47.138   0.927   5.765  0.00  0.00    +0.000 F 
ENDBRANCH  28  31
ENDBRANCH  23  25
ENDBRANCH  18  19
ENDBRANCH   1  18
TORSDOF 8
ENDMDL
MODEL 6
REMARK VINA RESULT:    -7.251      5.480      8.692
REMARK INTER + INTRA:         -12.224
REMARK INTER:                 -11.443
REMARK INTRA:                  -0.781
REMARK UNBOUND:                -1.582
REMARK  Name = 
REMARK  10 active torsions:
REMARK  status: ('A' for Active; 'I' for Inactive)
REMARK    1  A    between atoms: C_1  and  C_2
REMARK    2  A    between atoms: C_2  and  C_3
REMARK    3  A    between atoms: C_2  and  O_4
REMARK    4  A    between atoms: O_4  and  C_5
REMARK    5  A    between atoms: C_7  and  C_8
REMARK    6  A    between atoms: C_13  and  N_14
REMARK    7  A    between atoms: N_14  and  C_15
REMARK    8  A    between atoms: C_15  and  C_16
REMARK    9  A    between atoms: C_20  and  C_21
REMARK   10  A    between atoms: C_24  and  C_25
REMARK                            x       y       z     vdW  Elec       q    Type
REMARK                         _______ _______ _______ _____ _____    ______ ____
ROOT
ATOM      1  N   UNL     1      44.333   5.897  10.041  0.00  0.00    +0.000 N 
ATOM      2  H   UNL     1      44.002   6.540   9.334  0.00  0.00    +0.000 HD
ENDROOT
BRANCH   1   8
ATOM      3  C   UNL     1      44.400   3.420   9.882  0.00  0.00    +0.000 A 
ATOM      4  C   UNL     1      44.993   2.332   9.233  0.00  0.00    +0.000 A 
ATOM      5  C   UNL     1      46.007   2.514   8.298  0.00  0.00    +0.000 A 
ATOM      6  C   UNL     1      46.388   3.815   8.041  0.00  0.00    +0.000 A 
ATOM      7  N   UNL     1      45.833   4.904   8.635  0.00  0.00    +0.000 NA
ATOM      8  C   UNL     1      44.841   4.719   9.545  0.00  0.00    +0.000 A 
BRANCH   5   9
ATOM      9  C   UNL     1      46.593   1.301   7.677  0.00  0.00    +0.000 C 
ATOM     10  N   UNL     1      47.476   1.436   6.647  0.00  0.00    +0.000 N 
ATOM     11  O   UNL     1      46.299   0.182   8.074  0.00  0.00    +0.000 OA
ATOM     12  H   UNL     1      47.766   2.300   6.220  0.00  0.00    +0.000 HD
ATOM     13  H   UNL     1      47.836   0.571   6.257  0.00  0.00    +0.000 HD
ENDBRANCH   5   9
BRANCH   3  14
ATOM     14  O   UNL     1      43.434   3.265  10.846  0.00  0.00    +0.000 OA
BRANCH  14  16
ATOM     15  C   UNL     1      45.331   2.837  12.242  0.00  0.00    +0.000 C 
ATOM     16  C   UNL     1      43.808   2.856  12.170  0.00  0.00    +0.000 C 
ATOM     17  C   UNL     1      43.232   3.833  13.191  0.00  0.00    +0.000 C 
ENDBRANCH  14  16
ENDBRANCH   3  14
ENDBRANCH   1   8
BRANCH   1  18
ATOM     18  C   UNL     1      44.440   6.329  11.409  0.00  0.00    +0.000 C 
BRANCH  18  19
ATOM     19  C   UNL     1      45.878   6.418  11.872  0.00  0.00    +0.000 A 
ATOM     20  C   UNL     1      46.813   7.184  11.168  0.00  0.00    +0.000 A 
ATOM     21  C   UNL     1      48.094   7.374  11.683  0.00  0.00    +0.000 A 
ATOM     22  C   UNL     1      48.451   6.802  12.908  0.00  0.00    +0.000 A 
ATOM     23  C   UNL     1      47.542   6.021  13.645  0.00  0.00    +0.000 A 
ATOM     24  C   UNL     1      46.266   5.816  13.083  0.00  0.00    +0.000 A 
BRANCH  23  25
ATOM     25  C   UNL     1      47.871   5.513  14.998  0.00  0.00    +0.000 A 
ATOM     26  C   UNL     1      48.757   6.212  15.838  0.00  0.00    +0.000 A 
ATOM     27  C   UNL     1      49.026   5.784  17.144  0.00  0.00    +0.000 A 
ATOM     28  C   UNL     1      48.405   4.643  17.659  0.00  0.00    +0.000 A 
ATOM     29  C   UNL     1      47.523   3.932  16.836  0.00  0.00    +0.000 A 
ATOM     30  C   UNL     1      47.269   4.357  15.525  0.00  0.00    +0.000 A 
BRANCH  28  31
ATOM     31  C   UNL     1      48.665   4.182  19.071  0.00  0.00    +0.000 C 
ATOM     32  F   UNL     1      49.977   4.250  19.434  0.00  0.00    +0.000 F 
ATOM     33  F   UNL     1      47.988   4.920  19.994  0.00  0.00    +0.000 F 
ATOM     34  F   UNL     1      48.289   2.890  19.278  0.00  0.00    +0.000 F 
ENDBRANCH  28  31
ENDBRANCH  23  25
ENDBRANCH  18  19
ENDBRANCH   1  18
TORSDOF 8
ENDMDL
MODEL 7
REMARK VINA RESULT:    -6.944      2.050      3.005
REMARK INTER + INTRA:         -11.773
REMARK INTER:                 -10.559
REMARK INTRA:                  -1.214
REMARK UNBOUND:                -1.582
REMARK  Name = 
REMARK  10 active torsions:
REMARK  status: ('A' for Active; 'I' for Inactive)
REMARK    1  A    between atoms: C_1  and  C_2
REMARK    2  A    between atoms: C_2  and  C_3
REMARK    3  A    between atoms: C_2  and  O_4
REMARK    4  A    between atoms: O_4  and  C_5
REMARK    5  A    between atoms: C_7  and  C_8
REMARK    6  A    between atoms: C_13  and  N_14
REMARK    7  A    between atoms: N_14  and  C_15
REMARK    8  A    between atoms: C_15  and  C_16
REMARK    9  A    between atoms: C_20  and  C_21
REMARK   10  A    between atoms: C_24  and  C_25
REMARK                            x       y       z     vdW  Elec       q    Type
REMARK                         _______ _______ _______ _____ _____    ______ ____
ROOT
ATOM      1  N   UNL     1      46.653   7.218  13.669  0.00  0.00    +0.000 N 
ATOM      2  H   UNL     1      46.614   6.506  14.387  0.00  0.00    +0.000 HD
ENDROOT
BRANCH   1   8
ATOM      3  C   UNL     1      49.054   7.644  14.135  0.00  0.00    +0.000 A 
ATOM      4  C   UNL     1      50.290   7.965  13.564  0.00  0.00    +0.000 A 
ATOM      5  C   UNL     1      50.410   8.230  12.203  0.00  0.00    +0.000 A 
ATOM      6  C   UNL     1      49.256   8.153  11.452  0.00  0.00    +0.000 A 
ATOM      7  N   UNL     1      48.036   7.833  11.958  0.00  0.00    +0.000 NA
ATOM      8  C   UNL     1      47.927   7.572  13.287  0.00  0.00    +0.000 A 
BRANCH   5   9
ATOM      9  C   UNL     1      51.757   8.583  11.689  0.00  0.00    +0.000 C 
ATOM     10  N   UNL     1      52.845   7.896  12.137  0.00  0.00    +0.000 N 
ATOM     11  O   UNL     1      51.905   9.478  10.870  0.00  0.00    +0.000 OA
ATOM     12  H   UNL     1      52.846   7.166  12.829  0.00  0.00    +0.000 HD
ATOM     13  H   UNL     1      53.739   8.189  11.757  0.00  0.00    +0.000 HD
ENDBRANCH   5   9
BRANCH   3  14
ATOM     14  O   UNL     1      48.899   7.429  15.482  0.00  0.00    +0.000 OA
BRANCH  14  16
ATOM     15  C   UNL     1      50.352   8.022  17.290  0.00  0.00    +0.000 C 
ATOM     16  C   UNL     1      50.007   6.952  16.260  0.00  0.00    +0.000 C 
ATOM     17  C   UNL     1      49.625   5.644  16.947  0.00  0.00    +0.000 C 
ENDBRANCH  14  16
ENDBRANCH   3  14
ENDBRANCH   1   8
BRANCH   1  18
ATOM     18  C   UNL     1      45.449   7.619  12.991  0.00  0.00    +0.000 C 
BRANCH  18  19
ATOM     19  C   UNL     1      44.728   6.447  12.360  0.00  0.00    +0.000 A 
ATOM     20  C   UNL     1      43.383   6.192  12.651  0.00  0.00    +0.000 A 
ATOM     21  C   UNL     1      42.692   5.202  11.956  0.00  0.00    +0.000 A 
ATOM     22  C   UNL     1      43.337   4.459  10.963  0.00  0.00    +0.000 A 
ATOM     23  C   UNL     1      44.689   4.682  10.643  0.00  0.00    +0.000 A 
ATOM     24  C   UNL     1      45.373   5.665  11.386  0.00  0.00    +0.000 A 
BRANCH  23  25
ATOM     25  C   UNL     1      45.347   3.986   9.511  0.00  0.00    +0.000 A 
ATOM     26  C   UNL     1      45.336   2.581   9.421  0.00  0.00    +0.000 A 
ATOM     27  C   UNL     1      45.891   1.909   8.326  0.00  0.00    +0.000 A 
ATOM     28  C   UNL     1      46.468   2.625   7.272  0.00  0.00    +0.000 A 
ATOM     29  C   UNL     1      46.491   4.023   7.346  0.00  0.00    +0.000 A 
ATOM     30  C   UNL     1      45.947   4.689   8.452  0.00  0.00    +0.000 A 
BRANCH  28  31
ATOM     31  C   UNL     1      47.048   1.917   6.073  0.00  0.00    +0.000 C 
ATOM     32  F   UNL     1      46.874   0.566   6.101  0.00  0.00    +0.000 F 
ATOM     33  F   UNL     1      46.496   2.337   4.901  0.00  0.00    +0.000 F 
ATOM     34  F   UNL     1      48.389   2.117   5.947  0.00  0.00    +0.000 F 
ENDBRANCH  28  31
ENDBRANCH  23  25
ENDBRANCH  18  19
ENDBRANCH   1  18
TORSDOF 8
ENDMDL
MODEL 8
REMARK VINA RESULT:    -6.806      3.932      5.801
REMARK INTER + INTRA:         -11.571
REMARK INTER:                 -10.063
REMARK INTRA:                  -1.509
REMARK UNBOUND:                -1.582
REMARK  Name = 
REMARK  10 active torsions:
REMARK  status: ('A' for Active; 'I' for Inactive)
REMARK    1  A    between atoms: C_1  and  C_2
REMARK    2  A    between atoms: C_2  and  C_3
REMARK    3  A    between atoms: C_2  and  O_4
REMARK    4  A    between atoms: O_4  and  C_5
REMARK    5  A    between atoms: C_7  and  C_8
REMARK    6  A    between atoms: C_13  and  N_14
REMARK    7  A    between atoms: N_14  and  C_15
REMARK    8  A    between atoms: C_15  and  C_16
REMARK    9  A    between atoms: C_20  and  C_21
REMARK   10  A    between atoms: C_24  and  C_25
REMARK                            x       y       z     vdW  Elec       q    Type
REMARK                         _______ _______ _______ _____ _____    ______ ____
ROOT
ATOM      1  N   UNL     1      50.322   6.861  16.246  0.00  0.00    +0.000 N 
ATOM      2  H   UNL     1      49.321   6.926  16.385  0.00  0.00    +0.000 HD
ENDROOT
BRANCH   1   8
ATOM      3  C   UNL     1      50.292   4.558  17.173  0.00  0.00    +0.000 A 
ATOM      4  C   UNL     1      51.065   3.553  17.764  0.00  0.00    +0.000 A 
ATOM      5  C   UNL     1      52.405   3.761  18.074  0.00  0.00    +0.000 A 
ATOM      6  C   UNL     1      52.929   4.999  17.762  0.00  0.00    +0.000 A 
ATOM      7  N   UNL     1      52.222   6.001  17.177  0.00  0.00    +0.000 NA
ATOM      8  C   UNL     1      50.915   5.790  16.874  0.00  0.00    +0.000 A 
BRANCH   5   9
ATOM      9  C   UNL     1      53.141   2.646  18.719  0.00  0.00    +0.000 C 
ATOM     10  N   UNL     1      52.792   1.360  18.435  0.00  0.00    +0.000 N 
ATOM     11  O   UNL     1      54.057   2.862  19.500  0.00  0.00    +0.000 OA
ATOM     12  H   UNL     1      52.039   1.066  17.836  0.00  0.00    +0.000 HD
ATOM     13  H   UNL     1      53.325   0.641  18.914  0.00  0.00    +0.000 HD
ENDBRANCH   5   9
BRANCH   3  14
ATOM     14  O   UNL     1      48.955   4.396  16.905  0.00  0.00    +0.000 OA
BRANCH  14  16
ATOM     15  C   UNL     1      47.263   5.265  18.358  0.00  0.00    +0.000 C 
ATOM     16  C   UNL     1      48.056   4.025  17.961  0.00  0.00    +0.000 C 
ATOM     17  C   UNL     1      47.121   2.921  17.474  0.00  0.00    +0.000 C 
ENDBRANCH  14  16
ENDBRANCH   3  14
ENDBRANCH   1   8
BRANCH   1  18
ATOM     18  C   UNL     1      50.968   7.712  15.284  0.00  0.00    +0.000 C 
BRANCH  18  19
ATOM     19  C   UNL     1      50.174   7.838  14.002  0.00  0.00    +0.000 A 
ATOM     20  C   UNL     1      50.667   8.579  12.923  0.00  0.00    +0.000 A 
ATOM     21  C   UNL     1      49.996   8.569  11.701  0.00  0.00    +0.000 A 
ATOM     22  C   UNL     1      48.829   7.816  11.547  0.00  0.00    +0.000 A 
ATOM     23  C   UNL     1      48.298   7.060  12.608  0.00  0.00    +0.000 A 
ATOM     24  C   UNL     1      48.977   7.118  13.842  0.00  0.00    +0.000 A 
BRANCH  23  25
ATOM     25  C   UNL     1      47.131   6.165  12.420  0.00  0.00    +0.000 A 
ATOM     26  C   UNL     1      46.294   6.294  11.296  0.00  0.00    +0.000 A 
ATOM     27  C   UNL     1      45.230   5.415  11.066  0.00  0.00    +0.000 A 
ATOM     28  C   UNL     1      44.973   4.364  11.952  0.00  0.00    +0.000 A 
ATOM     29  C   UNL     1      45.793   4.223  13.078  0.00  0.00    +0.000 A 
ATOM     30  C   UNL     1      46.848   5.115  13.310  0.00  0.00    +0.000 A 
BRANCH  28  31
ATOM     31  C   UNL     1      43.845   3.393  11.705  0.00  0.00    +0.000 C 
ATOM     32  F   UNL     1      43.551   2.614  12.785  0.00  0.00    +0.000 F 
ATOM     33  F   UNL     1      42.682   4.019  11.372  0.00  0.00    +0.000 F 
ATOM     34  F   UNL     1      44.110   2.531  10.686  0.00  0.00    +0.000 F 
ENDBRANCH  28  31
ENDBRANCH  23  25
ENDBRANCH  18  19
ENDBRANCH   1  18
TORSDOF 8
ENDMDL
MODEL 9
REMARK VINA RESULT:    -6.434      5.036      8.780
REMARK INTER + INTRA:         -11.025
REMARK INTER:                  -9.012
REMARK INTRA:                  -2.013
REMARK UNBOUND:                -1.582
REMARK  Name = 
REMARK  10 active torsions:
REMARK  status: ('A' for Active; 'I' for Inactive)
REMARK    1  A    between atoms: C_1  and  C_2
REMARK    2  A    between atoms: C_2  and  C_3
REMARK    3  A    between atoms: C_2  and  O_4
REMARK    4  A    between atoms: O_4  and  C_5
REMARK    5  A    between atoms: C_7  and  C_8
REMARK    6  A    between atoms: C_13  and  N_14
REMARK    7  A    between atoms: N_14  and  C_15
REMARK    8  A    between atoms: C_15  and  C_16
REMARK    9  A    between atoms: C_20  and  C_21
REMARK   10  A    between atoms: C_24  and  C_25
REMARK                            x       y       z     vdW  Elec       q    Type
REMARK                         _______ _______ _______ _____ _____    ______ ____
ROOT
ATOM      1  N   UNL     1      48.538   6.919  13.347  0.00  0.00    +0.000 N 
ATOM      2  H   UNL     1      49.430   6.526  13.075  0.00  0.00    +0.000 HD
ENDROOT
BRANCH   1   8
ATOM      3  C   UNL     1      47.039   5.040  13.965  0.00  0.00    +0.000 A 
ATOM      4  C   UNL     1      45.882   4.336  13.612  0.00  0.00    +0.000 A 
ATOM      5  C   UNL     1      45.176   4.642  12.454  0.00  0.00    +0.000 A 
ATOM      6  C   UNL     1      45.668   5.673  11.681  0.00  0.00    +0.000 A 
ATOM      7  N   UNL     1      46.778   6.394  11.989  0.00  0.00    +0.000 NA
ATOM      8  C   UNL     1      47.461   6.092  13.123  0.00  0.00    +0.000 A 
BRANCH   5   9
ATOM      9  C   UNL     1      43.973   3.828  12.147  0.00  0.00    +0.000 C 
ATOM     10  N   UNL     1      43.927   2.526  12.548  0.00  0.00    +0.000 N 
ATOM     11  O   UNL     1      43.024   4.306  11.544  0.00  0.00    +0.000 OA
ATOM     12  H   UNL     1      44.658   2.022  13.021  0.00  0.00    +0.000 HD
ATOM     13  H   UNL     1      43.084   2.018  12.302  0.00  0.00    +0.000 HD
ENDBRANCH   5   9
BRANCH   3  14
ATOM     14  O   UNL     1      47.782   4.724  15.075  0.00  0.00    +0.000 OA
BRANCH  14  16
ATOM     15  C   UNL     1      48.039   2.655  16.251  0.00  0.00    +0.000 C 
ATOM     16  C   UNL     1      47.204   3.923  16.117  0.00  0.00    +0.000 C 
ATOM     17  C   UNL     1      47.201   4.708  17.425  0.00  0.00    +0.000 C 
ENDBRANCH  14  16
ENDBRANCH   3  14
ENDBRANCH   1   8
BRANCH   1  18
ATOM     18  C   UNL     1      48.493   8.143  14.099  0.00  0.00    +0.000 C 
BRANCH  18  19
ATOM     19  C   UNL     1      49.004   7.968  15.513  0.00  0.00    +0.000 A 
ATOM     20  C   UNL     1      48.445   8.692  16.573  0.00  0.00    +0.000 A 
ATOM     21  C   UNL     1      48.824   8.417  17.885  0.00  0.00    +0.000 A 
ATOM     22  C   UNL     1      49.763   7.416  18.151  0.00  0.00    +0.000 A 
ATOM     23  C   UNL     1      50.351   6.668  17.114  0.00  0.00    +0.000 A 
ATOM     24  C   UNL     1      49.976   6.992  15.795  0.00  0.00    +0.000 A 
BRANCH  23  25
ATOM     25  C   UNL     1      51.253   5.525  17.393  0.00  0.00    +0.000 A 
ATOM     26  C   UNL     1      50.739   4.235  17.618  0.00  0.00    +0.000 A 
ATOM     27  C   UNL     1      51.577   3.131  17.813  0.00  0.00    +0.000 A 
ATOM     28  C   UNL     1      52.967   3.281  17.780  0.00  0.00    +0.000 A 
ATOM     29  C   UNL     1      53.497   4.559  17.561  0.00  0.00    +0.000 A 
ATOM     30  C   UNL     1      52.652   5.662  17.381  0.00  0.00    +0.000 A 
BRANCH  28  31
ATOM     31  C   UNL     1      53.885   2.099  17.965  0.00  0.00    +0.000 C 
ATOM     32  F   UNL     1      55.110   2.265  17.391  0.00  0.00    +0.000 F 
ATOM     33  F   UNL     1      54.125   1.825  19.278  0.00  0.00    +0.000 F 
ATOM     34  F   UNL     1      53.377   0.954  17.432  0.00  0.00    +0.000 F 
ENDBRANCH  28  31
ENDBRANCH  23  25
ENDBRANCH  18  19
ENDBRANCH   1  18
TORSDOF 8
ENDMDL
