MODEL 1
REMARK VINA RESULT:    -8.492      0.000      0.000
REMARK INTER + INTRA:         -13.310
REMARK INTER:                 -12.464
REMARK INTRA:                  -0.845
REMARK UNBOUND:                -0.845
REMARK  Name = 
REMARK  9 active torsions:
REMARK  status: ('A' for Active; 'I' for Inactive)
REMARK    1  A    between atoms: C_1  and  C_2
REMARK    2  A    between atoms: C_2  and  N_3
REMARK    3  A    between atoms: C_2  and  C_19
REMARK    4  A    between atoms: N_3  and  C_4
REMARK    5  A    between atoms: C_4  and  C_5
REMARK    6  A    between atoms: C_8  and  C_9
REMARK    7  A    between atoms: C_9  and  N_10
REMARK    8  A    between atoms: N_10  and  C_11
REMARK    9  A    between atoms: C_11  and  C_12
REMARK                            x       y       z     vdW  Elec       q    Type
REMARK                         _______ _______ _______ _____ _____    ______ ____
ROOT
ATOM      1  C   UNL     1      47.518   5.179  14.740  0.00  0.00    +0.000 C 
ENDROOT
BRANCH   1   2
ATOM      2  C   UNL     1      46.756   4.994  13.458  0.00  0.00    +0.000 A 
ATOM      3  C   UNL     1      46.584   6.062  12.571  0.00  0.00    +0.000 A 
ATOM      4  C   UNL     1      45.674   5.960  11.529  0.00  0.00    +0.000 A 
ATOM      5  C   UNL     1      44.942   4.785  11.396  0.00  0.00    +0.000 A 
ATOM      6  N   UNL     1      45.141   3.702  12.194  0.00  0.00    +0.000 NA
ATOM      7  C   UNL     1      46.028   3.837  13.209  0.00  0.00    +0.000 A 
BRANCH   5   8
ATOM      8  C   UNL     1      43.854   4.699  10.337  0.00  0.00    +0.000 C 
BRANCH   8   9
ATOM      9  N   UNL     1      44.352   4.365   8.994  0.00  0.00    +0.000 NA
ATOM     10  H   UNL     1      45.284   4.786   8.935  0.00  0.00    +0.000 HD
BRANCH   9  11
ATOM     11  C   UNL     1      44.512   2.913   8.801  0.00  0.00    +0.000 C 
BRANCH  11  12
ATOM     12  C   UNL     1      45.927   2.614   8.277  0.00  0.00    +0.000 C 
ATOM     13  C   UNL     1      46.146   3.095   6.848  0.00  0.00    +0.000 C 
ATOM     14  C   UNL     1      47.412   2.365   6.448  0.00  0.00    +0.000 C 
ATOM     15  C   UNL     1      47.389   1.079   7.266  0.00  0.00    +0.000 C 
ATOM     16  N   UNL     1      46.235   1.180   8.166  0.00  0.00    +0.000 NA
ATOM     17  H   UNL     1      46.458   0.792   9.081  0.00  0.00    +0.000 HD
ENDBRANCH  11  12
ENDBRANCH   9  11
ENDBRANCH   8   9
ENDBRANCH   5   8
ENDBRANCH   1   2
BRANCH   1  18
ATOM     18  N   UNL     1      47.801   3.939  15.471  0.00  0.00    +0.000 NA
ATOM     19  H   UNL     1      48.731   3.634  15.154  0.00  0.00    +0.000 HD
BRANCH  18  21
ATOM     20  C   UNL     1      47.109   3.035  17.650  0.00  0.00    +0.000 C 
ATOM     21  C   UNL     1      47.872   4.173  16.930  0.00  0.00    +0.000 C 
BRANCH  21  22
ATOM     22  C   UNL     1      49.327   4.233  17.416  0.00  0.00    +0.000 A 
ATOM     23  C   UNL     1      49.893   5.383  17.960  0.00  0.00    +0.000 A 
ATOM     24  S   UNL     1      51.471   5.170  18.567  0.00  0.00    +0.000 S 
ATOM     25  C   UNL     1      51.496   3.550  18.058  0.00  0.00    +0.000 A 
ATOM     26  N   UNL     1      52.566   2.756  18.330  0.00  0.00    +0.000 NA
ATOM     27  C   UNL     1      52.454   1.550  17.880  0.00  0.00    +0.000 A 
ATOM     28  N   UNL     1      51.396   1.088  17.136  0.00  0.00    +0.000 N 
ATOM     29  C   UNL     1      50.349   1.891  16.747  0.00  0.00    +0.000 A 
ATOM     30  O   UNL     1      49.533   1.521  15.911  0.00  0.00    +0.000 OA
ATOM     31  C   UNL     1      50.350   3.207  17.362  0.00  0.00    +0.000 A 
ATOM     32  H   UNL     1      51.414   0.160  16.744  0.00  0.00    +0.000 HD
ENDBRANCH  21  22
ENDBRANCH  18  21
ENDBRANCH   1  18
TORSDOF 8
ENDMDL
MODEL 2
REMARK VINA RESULT:    -8.058      2.450      3.297
REMARK INTER + INTRA:         -12.672
REMARK INTER:                 -11.338
REMARK INTRA:                  -1.334
REMARK UNBOUND:                -0.845
REMARK  Name = 
REMARK  9 active torsions:
REMARK  status: ('A' for Active; 'I' for Inactive)
REMARK    1  A    between atoms: C_1  and  C_2
REMARK    2  A    between atoms: C_2  and  N_3
REMARK    3  A    between atoms: C_2  and  C_19
REMARK    4  A    between atoms: N_3  and  C_4
REMARK    5  A    between atoms: C_4  and  C_5
REMARK    6  A    between atoms: C_8  and  C_9
REMARK    7  A    between atoms: C_9  and  N_10
REMARK    8  A    between atoms: N_10  and  C_11
REMARK    9  A    between atoms: C_11  and  C_12
REMARK                            x       y       z     vdW  Elec       q    Type
REMARK                         _______ _______ _______ _____ _____    ______ ____
ROOT
ATOM      1  C   UNL     1      46.522   8.345  12.754  0.00  0.00    +0.000 C 
ENDROOT
BRANCH   1   2
ATOM      2  C   UNL     1      45.952   7.032  12.293  0.00  0.00    +0.000 A 
ATOM      3  C   UNL     1      46.362   6.464  11.083  0.00  0.00    +0.000 A 
ATOM      4  C   UNL     1      45.656   5.399  10.540  0.00  0.00    +0.000 A 
ATOM      5  C   UNL     1      44.540   4.925  11.219  0.00  0.00    +0.000 A 
ATOM      6  N   UNL     1      44.160   5.405  12.433  0.00  0.00    +0.000 NA
ATOM      7  C   UNL     1      44.862   6.451  12.931  0.00  0.00    +0.000 A 
BRANCH   5   8
ATOM      8  C   UNL     1      43.682   3.843  10.582  0.00  0.00    +0.000 C 
BRANCH   8   9
ATOM      9  N   UNL     1      44.315   2.516  10.559  0.00  0.00    +0.000 NA
ATOM     10  H   UNL     1      43.697   1.908  11.104  0.00  0.00    +0.000 HD
BRANCH   9  11
ATOM     11  C   UNL     1      44.393   1.957   9.197  0.00  0.00    +0.000 C 
BRANCH  11  12
ATOM     12  C   UNL     1      45.820   2.133   8.648  0.00  0.00    +0.000 C 
ATOM     13  C   UNL     1      45.895   3.128   7.497  0.00  0.00    +0.000 C 
ATOM     14  C   UNL     1      47.259   2.838   6.903  0.00  0.00    +0.000 C 
ATOM     15  C   UNL     1      47.501   1.363   7.200  0.00  0.00    +0.000 C 
ATOM     16  N   UNL     1      46.380   0.918   8.037  0.00  0.00    +0.000 NA
ATOM     17  H   UNL     1      46.703   0.274   8.757  0.00  0.00    +0.000 HD
ENDBRANCH  11  12
ENDBRANCH   9  11
ENDBRANCH   8   9
ENDBRANCH   5   8
ENDBRANCH   1   2
BRANCH   1  18
ATOM     18  N   UNL     1      47.133   8.313  14.087  0.00  0.00    +0.000 NA
ATOM     19  H   UNL     1      46.467   7.811  14.690  0.00  0.00    +0.000 HD
BRANCH  18  21
ATOM     20  C   UNL     1      49.559   8.526  13.744  0.00  0.00    +0.000 C 
ATOM     21  C   UNL     1      48.404   7.554  14.083  0.00  0.00    +0.000 C 
BRANCH  21  22
ATOM     22  C   UNL     1      48.654   6.878  15.439  0.00  0.00    +0.000 A 
ATOM     23  C   UNL     1      49.450   7.448  16.430  0.00  0.00    +0.000 A 
ATOM     24  S   UNL     1      49.459   6.592  17.902  0.00  0.00    +0.000 S 
ATOM     25  C   UNL     1      48.461   5.380  17.256  0.00  0.00    +0.000 A 
ATOM     26  N   UNL     1      48.029   4.351  18.033  0.00  0.00    +0.000 NA
ATOM     27  C   UNL     1      47.282   3.499  17.411  0.00  0.00    +0.000 A 
ATOM     28  N   UNL     1      46.979   3.555  16.073  0.00  0.00    +0.000 N 
ATOM     29  C   UNL     1      47.486   4.518  15.232  0.00  0.00    +0.000 A 
ATOM     30  O   UNL     1      47.381   4.427  14.015  0.00  0.00    +0.000 OA
ATOM     31  C   UNL     1      48.198   5.586  15.913  0.00  0.00    +0.000 A 
ATOM     32  H   UNL     1      46.461   2.810  15.635  0.00  0.00    +0.000 HD
ENDBRANCH  21  22
ENDBRANCH  18  21
ENDBRANCH   1  18
TORSDOF 8
ENDMDL
MODEL 3
REMARK VINA RESULT:    -7.709      1.280      1.596
REMARK INTER + INTRA:         -12.159
REMARK INTER:                 -11.290
REMARK INTRA:                  -0.869
REMARK UNBOUND:                -0.845
REMARK  Name = 
REMARK  9 active torsions:
REMARK  status: ('A' for Active; 'I' for Inactive)
REMARK    1  A    between atoms: C_1  and  C_2
REMARK    2  A    between atoms: C_2  and  N_3
REMARK    3  A    between atoms: C_2  and  C_19
REMARK    4  A    between atoms: N_3  and  C_4
REMARK    5  A    between atoms: C_4  and  C_5
REMARK    6  A    between atoms: C_8  and  C_9
REMARK    7  A    between atoms: C_9  and  N_10
REMARK    8  A    between atoms: N_10  and  C_11
REMARK    9  A    between atoms: C_11  and  C_12
REMARK                            x       y       z     vdW  Elec       q    Type
REMARK                         _______ _______ _______ _____ _____    ______ ____
ROOT
ATOM      1  C   UNL     1      48.153   5.496  16.155  0.00  0.00    +0.000 C 
ENDROOT
BRANCH   1   2
ATOM      2  C   UNL     1      47.546   5.124  14.831  0.00  0.00    +0.000 A 
ATOM      3  C   UNL     1      47.377   6.086  13.830  0.00  0.00    +0.000 A 
ATOM      4  C   UNL     1      46.591   5.805  12.721  0.00  0.00    +0.000 A 
ATOM      5  C   UNL     1      45.978   4.560  12.638  0.00  0.00    +0.000 A 
ATOM      6  N   UNL     1      46.183   3.577  13.555  0.00  0.00    +0.000 NA
ATOM      7  C   UNL     1      46.947   3.886  14.631  0.00  0.00    +0.000 A 
BRANCH   5   8
ATOM      8  C   UNL     1      45.016   4.276  11.495  0.00  0.00    +0.000 C 
BRANCH   8   9
ATOM      9  N   UNL     1      44.835   2.845  11.208  0.00  0.00    +0.000 NA
ATOM     10  H   UNL     1      44.049   2.545  11.793  0.00  0.00    +0.000 HD
BRANCH   9  11
ATOM     11  C   UNL     1      44.458   2.598   9.805  0.00  0.00    +0.000 C 
BRANCH  11  12
ATOM     12  C   UNL     1      45.721   2.590   8.925  0.00  0.00    +0.000 C 
ATOM     13  C   UNL     1      45.564   3.409   7.650  0.00  0.00    +0.000 C 
ATOM     14  C   UNL     1      46.736   2.937   6.813  0.00  0.00    +0.000 C 
ATOM     15  C   UNL     1      46.980   1.503   7.267  0.00  0.00    +0.000 C 
ATOM     16  N   UNL     1      46.071   1.264   8.394  0.00  0.00    +0.000 NA
ATOM     17  H   UNL     1      46.528   0.702   9.111  0.00  0.00    +0.000 HD
ENDBRANCH  11  12
ENDBRANCH   9  11
ENDBRANCH   8   9
ENDBRANCH   5   8
ENDBRANCH   1   2
BRANCH   1  18
ATOM     18  N   UNL     1      49.418   4.821  16.461  0.00  0.00    +0.000 NA
ATOM     19  H   UNL     1      50.147   5.356  15.971  0.00  0.00    +0.000 HD
BRANCH  18  21
ATOM     20  C   UNL     1      48.620   4.080  18.666  0.00  0.00    +0.000 C 
ATOM     21  C   UNL     1      49.719   4.863  17.909  0.00  0.00    +0.000 C 
BRANCH  21  22
ATOM     22  C   UNL     1      51.103   4.268  18.208  0.00  0.00    +0.000 A 
ATOM     23  C   UNL     1      52.124   4.999  18.811  0.00  0.00    +0.000 A 
ATOM     24  S   UNL     1      53.515   4.090  19.181  0.00  0.00    +0.000 S 
ATOM     25  C   UNL     1      52.845   2.695  18.482  0.00  0.00    +0.000 A 
ATOM     26  N   UNL     1      53.515   1.512  18.517  0.00  0.00    +0.000 NA
ATOM     27  C   UNL     1      52.891   0.537  17.943  0.00  0.00    +0.000 A 
ATOM     28  N   UNL     1      51.689   0.654  17.290  0.00  0.00    +0.000 N 
ATOM     29  C   UNL     1      51.035   1.854  17.138  0.00  0.00    +0.000 A 
ATOM     30  O   UNL     1      50.085   1.975  16.374  0.00  0.00    +0.000 OA
ATOM     31  C   UNL     1      51.614   2.947  17.901  0.00  0.00    +0.000 A 
ATOM     32  H   UNL     1      51.301  -0.131  16.790  0.00  0.00    +0.000 HD
ENDBRANCH  21  22
ENDBRANCH  18  21
ENDBRANCH   1  18
TORSDOF 8
ENDMDL
MODEL 4
REMARK VINA RESULT:    -7.331      1.870      2.318
REMARK INTER + INTRA:         -11.605
REMARK INTER:                 -10.627
REMARK INTRA:                  -0.978
REMARK UNBOUND:                -0.845
REMARK  Name = 
REMARK  9 active torsions:
REMARK  status: ('A' for Active; 'I' for Inactive)
REMARK    1  A    between atoms: C_1  and  C_2
REMARK    2  A    between atoms: C_2  and  N_3
REMARK    3  A    between atoms: C_2  and  C_19
REMARK    4  A    between atoms: N_3  and  C_4
REMARK    5  A    between atoms: C_4  and  C_5
REMARK    6  A    between atoms: C_8  and  C_9
REMARK    7  A    between atoms: C_9  and  N_10
REMARK    8  A    between atoms: N_10  and  C_11
REMARK    9  A    between atoms: C_11  and  C_12
REMARK                            x       y       z     vdW  Elec       q    Type
REMARK                         _______ _______ _______ _____ _____    ______ ____
ROOT
ATOM      1  C   UNL     1      48.445   6.579  14.042  0.00  0.00    +0.000 C 
ENDROOT
BRANCH   1   2
ATOM      2  C   UNL     1      47.349   6.080  13.142  0.00  0.00    +0.000 A 
ATOM      3  C   UNL     1      47.133   6.667  11.891  0.00  0.00    +0.000 A 
ATOM      4  C   UNL     1      45.975   6.384  11.180  0.00  0.00    +0.000 A 
ATOM      5  C   UNL     1      45.043   5.519  11.743  0.00  0.00    +0.000 A 
ATOM      6  N   UNL     1      45.257   4.874  12.921  0.00  0.00    +0.000 NA
ATOM      7  C   UNL     1      46.392   5.179  13.595  0.00  0.00    +0.000 A 
BRANCH   5   8
ATOM      8  C   UNL     1      43.714   5.292  11.040  0.00  0.00    +0.000 C 
BRANCH   8   9
ATOM      9  N   UNL     1      43.824   4.526   9.789  0.00  0.00    +0.000 NA
ATOM     10  H   UNL     1      44.606   4.945   9.278  0.00  0.00    +0.000 HD
BRANCH   9  11
ATOM     11  C   UNL     1      44.163   3.111  10.028  0.00  0.00    +0.000 C 
BRANCH  11  12
ATOM     12  C   UNL     1      45.460   2.758   9.279  0.00  0.00    +0.000 C 
ATOM     13  C   UNL     1      45.632   3.542   7.985  0.00  0.00    +0.000 C 
ATOM     14  C   UNL     1      46.722   2.765   7.274  0.00  0.00    +0.000 C 
ATOM     15  C   UNL     1      46.557   1.333   7.769  0.00  0.00    +0.000 C 
ATOM     16  N   UNL     1      45.516   1.368   8.802  0.00  0.00    +0.000 NA
ATOM     17  H   UNL     1      45.749   0.738   9.568  0.00  0.00    +0.000 HD
ENDBRANCH  11  12
ENDBRANCH   9  11
ENDBRANCH   8   9
ENDBRANCH   5   8
ENDBRANCH   1   2
BRANCH   1  18
ATOM     18  N   UNL     1      47.982   7.172  15.301  0.00  0.00    +0.000 NA
ATOM     19  H   UNL     1      47.082   6.719  15.510  0.00  0.00    +0.000 HD
BRANCH  18  21
ATOM     20  C   UNL     1      48.577   7.811  17.600  0.00  0.00    +0.000 C 
ATOM     21  C   UNL     1      48.911   6.875  16.414  0.00  0.00    +0.000 C 
BRANCH  21  22
ATOM     22  C   UNL     1      48.809   5.405  16.848  0.00  0.00    +0.000 A 
ATOM     23  C   UNL     1      47.591   4.747  17.001  0.00  0.00    +0.000 A 
ATOM     24  S   UNL     1      47.728   3.084  17.341  0.00  0.00    +0.000 S 
ATOM     25  C   UNL     1      49.423   3.185  17.375  0.00  0.00    +0.000 A 
ATOM     26  N   UNL     1      50.180   2.071  17.561  0.00  0.00    +0.000 NA
ATOM     27  C   UNL     1      51.452   2.294  17.571  0.00  0.00    +0.000 A 
ATOM     28  N   UNL     1      52.029   3.536  17.468  0.00  0.00    +0.000 N 
ATOM     29  C   UNL     1      51.295   4.697  17.390  0.00  0.00    +0.000 A 
ATOM     30  O   UNL     1      51.818   5.797  17.517  0.00  0.00    +0.000 OA
ATOM     31  C   UNL     1      49.868   4.486  17.214  0.00  0.00    +0.000 A 
ATOM     32  H   UNL     1      53.026   3.646  17.570  0.00  0.00    +0.000 HD
ENDBRANCH  21  22
ENDBRANCH  18  21
ENDBRANCH   1  18
TORSDOF 8
ENDMDL
MODEL 5
REMARK VINA RESULT:    -7.317      2.560      3.488
REMARK INTER + INTRA:         -11.585
REMARK INTER:                 -10.717
REMARK INTRA:                  -0.868
REMARK UNBOUND:                -0.845
REMARK  Name = 
REMARK  9 active torsions:
REMARK  status: ('A' for Active; 'I' for Inactive)
REMARK    1  A    between atoms: C_1  and  C_2
REMARK    2  A    between atoms: C_2  and  N_3
REMARK    3  A    between atoms: C_2  and  C_19
REMARK    4  A    between atoms: N_3  and  C_4
REMARK    5  A    between atoms: C_4  and  C_5
REMARK    6  A    between atoms: C_8  and  C_9
REMARK    7  A    between atoms: C_9  and  N_10
REMARK    8  A    between atoms: N_10  and  C_11
REMARK    9  A    between atoms: C_11  and  C_12
REMARK                            x       y       z     vdW  Elec       q    Type
REMARK                         _______ _______ _______ _____ _____    ______ ____
ROOT
ATOM      1  C   UNL     1      47.816   6.721  14.095  0.00  0.00    +0.000 C 
ENDROOT
BRANCH   1   2
ATOM      2  C   UNL     1      47.029   5.794  13.211  0.00  0.00    +0.000 A 
ATOM      3  C   UNL     1      46.605   6.208  11.944  0.00  0.00    +0.000 A 
ATOM      4  C   UNL     1      45.670   5.458  11.244  0.00  0.00    +0.000 A 
ATOM      5  C   UNL     1      45.167   4.304  11.833  0.00  0.00    +0.000 A 
ATOM      6  N   UNL     1      45.614   3.834  13.028  0.00  0.00    +0.000 NA
ATOM      7  C   UNL     1      46.518   4.594  13.691  0.00  0.00    +0.000 A 
BRANCH   5   8
ATOM      8  C   UNL     1      44.054   3.536  11.138  0.00  0.00    +0.000 C 
BRANCH   8   9
ATOM      9  N   UNL     1      44.511   2.329  10.433  0.00  0.00    +0.000 NA
ATOM     10  H   UNL     1      43.834   1.598  10.672  0.00  0.00    +0.000 HD
BRANCH   9  11
ATOM     11  C   UNL     1      44.483   2.492   8.968  0.00  0.00    +0.000 C 
BRANCH  11  12
ATOM     12  C   UNL     1      45.917   2.422   8.414  0.00  0.00    +0.000 C 
ATOM     13  C   UNL     1      46.081   3.164   7.094  0.00  0.00    +0.000 C 
ATOM     14  C   UNL     1      47.407   2.635   6.584  0.00  0.00    +0.000 C 
ATOM     15  C   UNL     1      47.507   1.229   7.164  0.00  0.00    +0.000 C 
ATOM     16  N   UNL     1      46.354   1.064   8.056  0.00  0.00    +0.000 NA
ATOM     17  H   UNL     1      46.618   0.543   8.891  0.00  0.00    +0.000 HD
ENDBRANCH  11  12
ENDBRANCH   9  11
ENDBRANCH   8   9
ENDBRANCH   5   8
ENDBRANCH   1   2
BRANCH   1  18
ATOM     18  N   UNL     1      49.272   6.553  14.017  0.00  0.00    +0.000 NA
ATOM     19  H   UNL     1      49.512   6.651  13.022  0.00  0.00    +0.000 HD
BRANCH  18  21
ATOM     20  C   UNL     1      50.001   8.898  13.900  0.00  0.00    +0.000 C 
ATOM     21  C   UNL     1      49.981   7.615  14.765  0.00  0.00    +0.000 C 
BRANCH  21  22
ATOM     22  C   UNL     1      49.307   7.891  16.116  0.00  0.00    +0.000 A 
ATOM     23  C   UNL     1      48.898   9.162  16.510  0.00  0.00    +0.000 A 
ATOM     24  S   UNL     1      48.040   9.202  17.980  0.00  0.00    +0.000 S 
ATOM     25  C   UNL     1      48.244   7.530  18.196  0.00  0.00    +0.000 A 
ATOM     26  N   UNL     1      47.682   6.895  19.259  0.00  0.00    +0.000 NA
ATOM     27  C   UNL     1      47.923   5.626  19.302  0.00  0.00    +0.000 A 
ATOM     28  N   UNL     1      48.720   4.951  18.411  0.00  0.00    +0.000 N 
ATOM     29  C   UNL     1      49.393   5.577  17.388  0.00  0.00    +0.000 A 
ATOM     30  O   UNL     1      50.261   5.000  16.743  0.00  0.00    +0.000 OA
ATOM     31  C   UNL     1      49.028   6.971  17.202  0.00  0.00    +0.000 A 
ATOM     32  H   UNL     1      48.934   3.977  18.554  0.00  0.00    +0.000 HD
ENDBRANCH  21  22
ENDBRANCH  18  21
ENDBRANCH   1  18
TORSDOF 8
ENDMDL
MODEL 6
REMARK VINA RESULT:    -7.111      2.137      2.740
REMARK INTER + INTRA:         -11.282
REMARK INTER:                 -10.310
REMARK INTRA:                  -0.972
REMARK UNBOUND:                -0.845
REMARK  Name = 
REMARK  9 active torsions:
REMARK  status: ('A' for Active; 'I' for Inactive)
REMARK    1  A    between atoms: C_1  and  C_2
REMARK    2  A    between atoms: C_2  and  N_3
REMARK    3  A    between atoms: C_2  and  C_19
REMARK    4  A    between atoms: N_3  and  C_4
REMARK    5  A    between atoms: C_4  and  C_5
REMARK    6  A    between atoms: C_8  and  C_9
REMARK    7  A    between atoms: C_9  and  N_10
REMARK    8  A    between atoms: N_10  and  C_11
REMARK    9  A    between atoms: C_11  and  C_12
REMARK                            x       y       z     vdW  Elec       q    Type
REMARK                         _______ _______ _______ _____ _____    ______ ____
ROOT
ATOM      1  C   UNL     1      48.344   6.807  12.961  0.00  0.00    +0.000 C 
ENDROOT
BRANCH   1   2
ATOM      2  C   UNL     1      47.023   6.265  12.491  0.00  0.00    +0.000 A 
ATOM      3  C   UNL     1      46.533   5.054  12.988  0.00  0.00    +0.000 A 
ATOM      4  C   UNL     1      45.455   4.434  12.371  0.00  0.00    +0.000 A 
ATOM      5  C   UNL     1      44.888   5.040  11.255  0.00  0.00    +0.000 A 
ATOM      6  N   UNL     1      45.291   6.253  10.794  0.00  0.00    +0.000 NA
ATOM      7  C   UNL     1      46.352   6.827  11.411  0.00  0.00    +0.000 A 
BRANCH   5   8
ATOM      8  C   UNL     1      43.788   4.319  10.492  0.00  0.00    +0.000 C 
BRANCH   8   9
ATOM      9  N   UNL     1      44.273   3.222   9.640  0.00  0.00    +0.000 NA
ATOM     10  H   UNL     1      43.464   2.612   9.492  0.00  0.00    +0.000 HD
BRANCH   9  11
ATOM     11  C   UNL     1      44.715   3.696   8.316  0.00  0.00    +0.000 C 
BRANCH  11  12
ATOM     12  C   UNL     1      46.068   3.054   7.963  0.00  0.00    +0.000 C 
ATOM     13  C   UNL     1      46.431   3.200   6.491  0.00  0.00    +0.000 C 
ATOM     14  C   UNL     1      47.551   2.192   6.329  0.00  0.00    +0.000 C 
ATOM     15  C   UNL     1      47.252   1.115   7.365  0.00  0.00    +0.000 C 
ATOM     16  N   UNL     1      46.102   1.594   8.141  0.00  0.00    +0.000 NA
ATOM     17  H   UNL     1      46.211   1.358   9.126  0.00  0.00    +0.000 HD
ENDBRANCH  11  12
ENDBRANCH   9  11
ENDBRANCH   8   9
ENDBRANCH   5   8
ENDBRANCH   1   2
BRANCH   1  18
ATOM     18  N   UNL     1      48.857   6.192  14.190  0.00  0.00    +0.000 NA
ATOM     19  H   UNL     1      49.593   5.538  13.890  0.00  0.00    +0.000 HD
BRANCH  18  21
ATOM     20  C   UNL     1      48.400   8.232  15.484  0.00  0.00    +0.000 C 
ATOM     21  C   UNL     1      49.477   7.197  15.082  0.00  0.00    +0.000 C 
BRANCH  21  22
ATOM     22  C   UNL     1      50.077   6.537  16.332  0.00  0.00    +0.000 A 
ATOM     23  C   UNL     1      51.399   6.730  16.725  0.00  0.00    +0.000 A 
ATOM     24  S   UNL     1      51.799   6.022  18.222  0.00  0.00    +0.000 S 
ATOM     25  C   UNL     1      50.243   5.360  18.374  0.00  0.00    +0.000 A 
ATOM     26  N   UNL     1      49.892   4.666  19.490  0.00  0.00    +0.000 NA
ATOM     27  C   UNL     1      48.681   4.214  19.470  0.00  0.00    +0.000 A 
ATOM     28  N   UNL     1      47.815   4.345  18.413  0.00  0.00    +0.000 N 
ATOM     29  C   UNL     1      48.170   4.943  17.226  0.00  0.00    +0.000 A 
ATOM     30  O   UNL     1      47.463   4.859  16.228  0.00  0.00    +0.000 OA
ATOM     31  C   UNL     1      49.462   5.607  17.258  0.00  0.00    +0.000 A 
ATOM     32  H   UNL     1      46.915   3.893  18.431  0.00  0.00    +0.000 HD
ENDBRANCH  21  22
ENDBRANCH  18  21
ENDBRANCH   1  18
TORSDOF 8
ENDMDL
MODEL 7
REMARK VINA RESULT:    -6.825      2.287      3.002
REMARK INTER + INTRA:         -10.862
REMARK INTER:                 -10.256
REMARK INTRA:                  -0.606
REMARK UNBOUND:                -0.845
REMARK  Name = 
REMARK  9 active torsions:
REMARK  status: ('A' for Active; 'I' for Inactive)
REMARK    1  A    between atoms: C_1  and  C_2
REMARK    2  A    between atoms: C_2  and  N_3
REMARK    3  A    between atoms: C_2  and  C_19
REMARK    4  A    between atoms: N_3  and  C_4
REMARK    5  A    between atoms: C_4  and  C_5
REMARK    6  A    between atoms: C_8  and  C_9
REMARK    7  A    between atoms: C_9  and  N_10
REMARK    8  A    between atoms: N_10  and  C_11
REMARK    9  A    between atoms: C_11  and  C_12
REMARK                            x       y       z     vdW  Elec       q    Type
REMARK                         _______ _______ _______ _____ _____    ______ ____
ROOT
ATOM      1  C   UNL     1      47.129   3.871  14.826  0.00  0.00    +0.000 C 
ENDROOT
BRANCH   1   2
ATOM      2  C   UNL     1      46.463   4.165  13.511  0.00  0.00    +0.000 A 
ATOM      3  C   UNL     1      46.264   5.484  13.092  0.00  0.00    +0.000 A 
ATOM      4  C   UNL     1      45.429   5.754  12.017  0.00  0.00    +0.000 A 
ATOM      5  C   UNL     1      44.798   4.691  11.380  0.00  0.00    +0.000 A 
ATOM      6  N   UNL     1      45.030   3.393  11.714  0.00  0.00    +0.000 NA
ATOM      7  C   UNL     1      45.841   3.163  12.774  0.00  0.00    +0.000 A 
BRANCH   5   8
ATOM      8  C   UNL     1      43.786   4.973  10.281  0.00  0.00    +0.000 C 
BRANCH   8   9
ATOM      9  N   UNL     1      44.066   4.273   9.018  0.00  0.00    +0.000 NA
ATOM     10  H   UNL     1      43.480   4.733   8.314  0.00  0.00    +0.000 HD
BRANCH   9  11
ATOM     11  C   UNL     1      45.468   4.427   8.591  0.00  0.00    +0.000 C 
BRANCH  11  12
ATOM     12  C   UNL     1      45.776   3.431   7.459  0.00  0.00    +0.000 C 
ATOM     13  C   UNL     1      46.410   2.140   7.958  0.00  0.00    +0.000 C 
ATOM     14  C   UNL     1      46.954   1.528   6.683  0.00  0.00    +0.000 C 
ATOM     15  C   UNL     1      47.264   2.722   5.787  0.00  0.00    +0.000 C 
ATOM     16  N   UNL     1      46.779   3.911   6.496  0.00  0.00    +0.000 NA
ATOM     17  H   UNL     1      46.360   4.572   5.844  0.00  0.00    +0.000 HD
ENDBRANCH  11  12
ENDBRANCH   9  11
ENDBRANCH   8   9
ENDBRANCH   5   8
ENDBRANCH   1   2
BRANCH   1  18
ATOM     18  N   UNL     1      47.797   5.021  15.445  0.00  0.00    +0.000 NA
ATOM     19  H   UNL     1      47.245   5.846  15.174  0.00  0.00    +0.000 HD
BRANCH  18  21
ATOM     20  C   UNL     1      47.137   3.580  17.325  0.00  0.00    +0.000 C 
ATOM     21  C   UNL     1      47.780   4.928  16.922  0.00  0.00    +0.000 C 
BRANCH  21  22
ATOM     22  C   UNL     1      49.196   5.041  17.504  0.00  0.00    +0.000 A 
ATOM     23  C   UNL     1      50.136   4.019  17.403  0.00  0.00    +0.000 A 
ATOM     24  S   UNL     1      51.683   4.426  17.987  0.00  0.00    +0.000 S 
ATOM     25  C   UNL     1      51.145   5.961  18.473  0.00  0.00    +0.000 A 
ATOM     26  N   UNL     1      52.012   6.861  19.009  0.00  0.00    +0.000 NA
ATOM     27  C   UNL     1      51.467   7.985  19.339  0.00  0.00    +0.000 A 
ATOM     28  N   UNL     1      50.126   8.265  19.234  0.00  0.00    +0.000 N 
ATOM     29  C   UNL     1      49.202   7.342  18.800  0.00  0.00    +0.000 A 
ATOM     30  O   UNL     1      47.998   7.536  18.918  0.00  0.00    +0.000 OA
ATOM     31  C   UNL     1      49.786   6.123  18.268  0.00  0.00    +0.000 A 
ATOM     32  H   UNL     1      49.756   9.131  19.591  0.00  0.00    +0.000 HD
ENDBRANCH  21  22
ENDBRANCH  18  21
ENDBRANCH   1  18
TORSDOF 8
ENDMDL
MODEL 8
REMARK VINA RESULT:    -6.756      3.572      5.212
REMARK INTER + INTRA:         -10.762
REMARK INTER:                  -9.697
REMARK INTRA:                  -1.065
REMARK UNBOUND:                -0.845
REMARK  Name = 
REMARK  9 active torsions:
REMARK  status: ('A' for Active; 'I' for Inactive)
REMARK    1  A    between atoms: C_1  and  C_2
REMARK    2  A    between atoms: C_2  and  N_3
REMARK    3  A    between atoms: C_2  and  C_19
REMARK    4  A    between atoms: N_3  and  C_4
REMARK    5  A    between atoms: C_4  and  C_5
REMARK    6  A    between atoms: C_8  and  C_9
REMARK    7  A    between atoms: C_9  and  N_10
REMARK    8  A    between atoms: N_10  and  C_11
REMARK    9  A    between atoms: C_11  and  C_12
REMARK                            x       y       z     vdW  Elec       q    Type
REMARK                         _______ _______ _______ _____ _____    ______ ____
ROOT
ATOM      1  C   UNL     1      46.817   4.871  14.983  0.00  0.00    +0.000 C 
ENDROOT
BRANCH   1   2
ATOM      2  C   UNL     1      46.199   4.726  13.620  0.00  0.00    +0.000 A 
ATOM      3  C   UNL     1      45.594   5.820  12.993  0.00  0.00    +0.000 A 
ATOM      4  C   UNL     1      44.807   5.627  11.866  0.00  0.00    +0.000 A 
ATOM      5  C   UNL     1      44.633   4.333  11.388  0.00  0.00    +0.000 A 
ATOM      6  N   UNL     1      45.268   3.259  11.929  0.00  0.00    +0.000 NA
ATOM      7  C   UNL     1      46.021   3.478  13.034  0.00  0.00    +0.000 A 
BRANCH   5   8
ATOM      8  C   UNL     1      43.678   4.086  10.231  0.00  0.00    +0.000 C 
BRANCH   8   9
ATOM      9  N   UNL     1      44.246   3.262   9.153  0.00  0.00    +0.000 NA
ATOM     10  H   UNL     1      43.444   2.933   8.608  0.00  0.00    +0.000 HD
BRANCH   9  11
ATOM     11  C   UNL     1      45.104   4.043   8.245  0.00  0.00    +0.000 C 
BRANCH  11  12
ATOM     12  C   UNL     1      46.327   3.201   7.839  0.00  0.00    +0.000 C 
ATOM     13  C   UNL     1      46.552   3.165   6.333  0.00  0.00    +0.000 C 
ATOM     14  C   UNL     1      47.519   2.010   6.175  0.00  0.00    +0.000 C 
ATOM     15  C   UNL     1      47.200   1.079   7.339  0.00  0.00    +0.000 C 
ATOM     16  N   UNL     1      46.202   1.772   8.163  0.00  0.00    +0.000 NA
ATOM     17  H   UNL     1      46.382   1.613   9.153  0.00  0.00    +0.000 HD
ENDBRANCH  11  12
ENDBRANCH   9  11
ENDBRANCH   8   9
ENDBRANCH   5   8
ENDBRANCH   1   2
BRANCH   1  18
ATOM     18  N   UNL     1      48.262   5.123  14.978  0.00  0.00    +0.000 NA
ATOM     19  H   UNL     1      48.566   4.994  14.003  0.00  0.00    +0.000 HD
BRANCH  18  21
ATOM     20  C   UNL     1      49.806   6.504  16.303  0.00  0.00    +0.000 C 
ATOM     21  C   UNL     1      48.571   6.516  15.371  0.00  0.00    +0.000 C 
BRANCH  21  22
ATOM     22  C   UNL     1      48.837   7.396  14.141  0.00  0.00    +0.000 A 
ATOM     23  C   UNL     1      49.156   6.869  12.892  0.00  0.00    +0.000 A 
ATOM     24  S   UNL     1      49.258   8.026  11.646  0.00  0.00    +0.000 S 
ATOM     25  C   UNL     1      48.956   9.292  12.736  0.00  0.00    +0.000 A 
ATOM     26  N   UNL     1      48.848  10.574  12.296  0.00  0.00    +0.000 NA
ATOM     27  C   UNL     1      48.623  11.436  13.232  0.00  0.00    +0.000 A 
ATOM     28  N   UNL     1      48.555  11.136  14.571  0.00  0.00    +0.000 N 
ATOM     29  C   UNL     1      48.768   9.869  15.064  0.00  0.00    +0.000 A 
ATOM     30  O   UNL     1      48.917   9.665  16.263  0.00  0.00    +0.000 OA
ATOM     31  C   UNL     1      48.864   8.842  14.042  0.00  0.00    +0.000 A 
ATOM     32  H   UNL     1      48.462  11.870  15.255  0.00  0.00    +0.000 HD
ENDBRANCH  21  22
ENDBRANCH  18  21
ENDBRANCH   1  18
TORSDOF 8
ENDMDL
MODEL 9
REMARK VINA RESULT:    -6.656      2.652      3.298
REMARK INTER + INTRA:         -10.614
REMARK INTER:                  -9.774
REMARK INTRA:                  -0.840
REMARK UNBOUND:                -0.845
REMARK  Name = 
REMARK  9 active torsions:
REMARK  status: ('A' for Active; 'I' for Inactive)
REMARK    1  A    between atoms: C_1  and  C_2
REMARK    2  A    between atoms: C_2  and  N_3
REMARK    3  A    between atoms: C_2  and  C_19
REMARK    4  A    between atoms: N_3  and  C_4
REMARK    5  A    between atoms: C_4  and  C_5
REMARK    6  A    between atoms: C_8  and  C_9
REMARK    7  A    between atoms: C_9  and  N_10
REMARK    8  A    between atoms: N_10  and  C_11
REMARK    9  A    between atoms: C_11  and  C_12
REMARK                            x       y       z     vdW  Elec       q    Type
REMARK                         _______ _______ _______ _____ _____    ______ ____
ROOT
ATOM      1  C   UNL     1      46.928   4.143  15.496  0.00  0.00    +0.000 C 
ENDROOT
BRANCH   1   2
ATOM      2  C   UNL     1      46.683   4.492  14.054  0.00  0.00    +0.000 A 
ATOM      3  C   UNL     1      47.115   5.716  13.535  0.00  0.00    +0.000 A 
ATOM      4  C   UNL     1      46.667   6.141  12.292  0.00  0.00    +0.000 A 
ATOM      5  C   UNL     1      45.781   5.331  11.590  0.00  0.00    +0.000 A 
ATOM      6  N   UNL     1      45.402   4.102  12.033  0.00  0.00    +0.000 NA
ATOM      7  C   UNL     1      45.848   3.721  13.254  0.00  0.00    +0.000 A 
BRANCH   5   8
ATOM      8  C   UNL     1      45.183   5.833  10.286  0.00  0.00    +0.000 C 
BRANCH   8   9
ATOM      9  N   UNL     1      45.775   5.225   9.084  0.00  0.00    +0.000 NA
ATOM     10  H   UNL     1      46.591   4.702   9.416  0.00  0.00    +0.000 HD
BRANCH   9  11
ATOM     11  C   UNL     1      44.866   4.263   8.438  0.00  0.00    +0.000 C 
BRANCH  11  12
ATOM     12  C   UNL     1      45.676   3.316   7.533  0.00  0.00    +0.000 C 
ATOM     13  C   UNL     1      46.139   2.056   8.254  0.00  0.00    +0.000 C 
ATOM     14  C   UNL     1      47.196   1.513   7.314  0.00  0.00    +0.000 C 
ATOM     15  C   UNL     1      47.762   2.745   6.617  0.00  0.00    +0.000 C 
ATOM     16  N   UNL     1      46.948   3.883   7.062  0.00  0.00    +0.000 NA
ATOM     17  H   UNL     1      46.787   4.530   6.292  0.00  0.00    +0.000 HD
ENDBRANCH  11  12
ENDBRANCH   9  11
ENDBRANCH   8   9
ENDBRANCH   5   8
ENDBRANCH   1   2
BRANCH   1  18
ATOM     18  N   UNL     1      48.327   4.247  15.923  0.00  0.00    +0.000 NA
ATOM     19  H   UNL     1      48.877   4.350  15.059  0.00  0.00    +0.000 HD
BRANCH  18  21
ATOM     20  C   UNL     1      48.004   5.184  18.173  0.00  0.00    +0.000 C 
ATOM     21  C   UNL     1      48.553   5.452  16.752  0.00  0.00    +0.000 C 
BRANCH  21  22
ATOM     22  C   UNL     1      50.044   5.814  16.814  0.00  0.00    +0.000 A 
ATOM     23  C   UNL     1      50.925   5.230  17.721  0.00  0.00    +0.000 A 
ATOM     24  S   UNL     1      52.555   5.674  17.504  0.00  0.00    +0.000 S 
ATOM     25  C   UNL     1      52.145   6.728  16.237  0.00  0.00    +0.000 A 
ATOM     26  N   UNL     1      53.112   7.398  15.554  0.00  0.00    +0.000 NA
ATOM     27  C   UNL     1      52.659   8.169  14.621  0.00  0.00    +0.000 A 
ATOM     28  N   UNL     1      51.328   8.371  14.351  0.00  0.00    +0.000 N 
ATOM     29  C   UNL     1      50.320   7.796  15.091  0.00  0.00    +0.000 A 
ATOM     30  O   UNL     1      49.154   8.155  14.974  0.00  0.00    +0.000 OA
ATOM     31  C   UNL     1      50.777   6.800  16.044  0.00  0.00    +0.000 A 
ATOM     32  H   UNL     1      51.044   9.052  13.665  0.00  0.00    +0.000 HD
ENDBRANCH  21  22
ENDBRANCH  18  21
ENDBRANCH   1  18
TORSDOF 8
ENDMDL
