MODEL 1
REMARK VINA RESULT:    -8.933      0.000      0.000
REMARK INTER + INTRA:         -12.336
REMARK INTER:                 -11.544
REMARK INTRA:                  -0.791
REMARK UNBOUND:                -0.791
REMARK  Name = 
REMARK  5 active torsions:
REMARK  status: ('A' for Active; 'I' for Inactive)
REMARK    1  A    between atoms: C_2  and  C_4
REMARK    2  A    between atoms: C_7  and  N_8
REMARK    3  A    between atoms: N_8  and  C_9
REMARK    4  A    between atoms: C_9  and  C_10
REMARK    5  A    between atoms: C_12  and  C_13
REMARK                            x       y       z     vdW  Elec       q    Type
REMARK                         _______ _______ _______ _____ _____    ______ ____
ROOT
ATOM      1  N   UNL     1      43.765   4.778   9.970  0.00  0.00    +0.000 N 
ATOM      2  H   UNL     1      43.378   5.563   9.462  0.00  0.00    +0.000 HD
ENDROOT
BRANCH   1   6
ATOM      3  C   UNL     1      46.381   2.314   7.765  0.00  0.00    +0.000 A 
ATOM      4  C   UNL     1      45.478   1.743   8.659  0.00  0.00    +0.000 A 
ATOM      5  C   UNL     1      44.623   2.555   9.411  0.00  0.00    +0.000 A 
ATOM      6  C   UNL     1      44.643   3.950   9.294  0.00  0.00    +0.000 A 
ATOM      7  C   UNL     1      45.558   4.509   8.391  0.00  0.00    +0.000 A 
ATOM      8  C   UNL     1      46.428   3.706   7.638  0.00  0.00    +0.000 A 
BRANCH   3  10
ATOM      9  N   UNL     1      48.452   2.091   6.495  0.00  0.00    +0.000 N 
ATOM     10  C   UNL     1      47.326   1.483   6.973  0.00  0.00    +0.000 C 
ATOM     11  O   UNL     1      47.117   0.292   6.768  0.00  0.00    +0.000 OA
ATOM     12  H   UNL     1      49.116   1.498   6.012  0.00  0.00    +0.000 HD
ATOM     13  H   UNL     1      48.777   2.988   6.827  0.00  0.00    +0.000 HD
ENDBRANCH   3  10
ENDBRANCH   1   6
BRANCH   1  14
ATOM     14  C   UNL     1      43.615   4.796  11.420  0.00  0.00    +0.000 C 
BRANCH  14  15
ATOM     15  C   UNL     1      44.909   5.074  12.170  0.00  0.00    +0.000 A 
ATOM     16  C   UNL     1      45.712   6.154  11.796  0.00  0.00    +0.000 A 
ATOM     17  C   UNL     1      46.849   6.491  12.547  0.00  0.00    +0.000 A 
ATOM     18  C   UNL     1      47.144   5.670  13.643  0.00  0.00    +0.000 A 
ATOM     19  C   UNL     1      46.315   4.597  13.936  0.00  0.00    +0.000 A 
ATOM     20  N   UNL     1      45.201   4.290  13.237  0.00  0.00    +0.000 NA
BRANCH  17  21
ATOM     21  C   UNL     1      47.673   7.680  12.221  0.00  0.00    +0.000 A 
ATOM     22  C   UNL     1      49.034   7.556  11.876  0.00  0.00    +0.000 A 
ATOM     23  C   UNL     1      49.812   8.668  11.537  0.00  0.00    +0.000 A 
ATOM     24  C   UNL     1      49.245   9.936  11.523  0.00  0.00    +0.000 A 
ATOM     25  C   UNL     1      47.905  10.094  11.863  0.00  0.00    +0.000 A 
ATOM     26  C   UNL     1      47.134   8.981  12.217  0.00  0.00    +0.000 A 
ENDBRANCH  17  21
ENDBRANCH  14  15
ENDBRANCH   1  14
TORSDOF 5
ENDMDL
MODEL 2
REMARK VINA RESULT:    -8.369      2.859      6.513
REMARK INTER + INTRA:         -11.606
REMARK INTER:                 -10.728
REMARK INTRA:                  -0.878
REMARK UNBOUND:                -0.791
REMARK  Name = 
REMARK  5 active torsions:
REMARK  status: ('A' for Active; 'I' for Inactive)
REMARK    1  A    between atoms: C_2  and  C_4
REMARK    2  A    between atoms: C_7  and  N_8
REMARK    3  A    between atoms: N_8  and  C_9
REMARK    4  A    between atoms: C_9  and  C_10
REMARK    5  A    between atoms: C_12  and  C_13
REMARK                            x       y       z     vdW  Elec       q    Type
REMARK                         _______ _______ _______ _____ _____    ______ ____
ROOT
ATOM      1  N   UNL     1      43.849   6.666  12.422  0.00  0.00    +0.000 N 
ATOM      2  H   UNL     1      43.300   6.666  13.272  0.00  0.00    +0.000 HD
ENDROOT
BRANCH   1   6
ATOM      3  C   UNL     1      48.034   7.140  12.629  0.00  0.00    +0.000 A 
ATOM      4  C   UNL     1      47.440   5.988  13.140  0.00  0.00    +0.000 A 
ATOM      5  C   UNL     1      46.050   5.834  13.096  0.00  0.00    +0.000 A 
ATOM      6  C   UNL     1      45.219   6.816  12.545  0.00  0.00    +0.000 A 
ATOM      7  C   UNL     1      45.832   7.970  12.036  0.00  0.00    +0.000 A 
ATOM      8  C   UNL     1      47.224   8.141  12.083  0.00  0.00    +0.000 A 
BRANCH   3  10
ATOM      9  N   UNL     1      50.102   7.280  13.914  0.00  0.00    +0.000 N 
ATOM     10  C   UNL     1      49.504   7.351  12.688  0.00  0.00    +0.000 C 
ATOM     11  O   UNL     1      50.164   7.562  11.676  0.00  0.00    +0.000 OA
ATOM     12  H   UNL     1      51.112   7.363  13.930  0.00  0.00    +0.000 HD
ATOM     13  H   UNL     1      49.649   6.887  14.726  0.00  0.00    +0.000 HD
ENDBRANCH   3  10
ENDBRANCH   1   6
BRANCH   1  14
ATOM     14  C   UNL     1      43.188   6.187  11.214  0.00  0.00    +0.000 C 
BRANCH  14  15
ATOM     15  C   UNL     1      43.488   4.733  10.883  0.00  0.00    +0.000 A 
ATOM     16  C   UNL     1      44.268   4.419   9.767  0.00  0.00    +0.000 A 
ATOM     17  C   UNL     1      44.647   3.092   9.513  0.00  0.00    +0.000 A 
ATOM     18  C   UNL     1      44.169   2.120  10.402  0.00  0.00    +0.000 A 
ATOM     19  C   UNL     1      43.375   2.505  11.473  0.00  0.00    +0.000 A 
ATOM     20  N   UNL     1      43.037   3.785  11.740  0.00  0.00    +0.000 NA
BRANCH  17  21
ATOM     21  C   UNL     1      45.541   2.740   8.383  0.00  0.00    +0.000 A 
ATOM     22  C   UNL     1      45.826   3.667   7.359  0.00  0.00    +0.000 A 
ATOM     23  C   UNL     1      46.693   3.355   6.306  0.00  0.00    +0.000 A 
ATOM     24  C   UNL     1      47.306   2.110   6.254  0.00  0.00    +0.000 A 
ATOM     25  C   UNL     1      47.042   1.171   7.246  0.00  0.00    +0.000 A 
ATOM     26  C   UNL     1      46.162   1.480   8.290  0.00  0.00    +0.000 A 
ENDBRANCH  17  21
ENDBRANCH  14  15
ENDBRANCH   1  14
TORSDOF 5
ENDMDL
MODEL 3
REMARK VINA RESULT:    -8.210      1.809      3.716
REMARK INTER + INTRA:         -11.401
REMARK INTER:                 -10.819
REMARK INTRA:                  -0.582
REMARK UNBOUND:                -0.791
REMARK  Name = 
REMARK  5 active torsions:
REMARK  status: ('A' for Active; 'I' for Inactive)
REMARK    1  A    between atoms: C_2  and  C_4
REMARK    2  A    between atoms: C_7  and  N_8
REMARK    3  A    between atoms: N_8  and  C_9
REMARK    4  A    between atoms: C_9  and  C_10
REMARK    5  A    between atoms: C_12  and  C_13
REMARK                            x       y       z     vdW  Elec       q    Type
REMARK                         _______ _______ _______ _____ _____    ______ ____
ROOT
ATOM      1  N   UNL     1      43.951   4.676  10.189  0.00  0.00    +0.000 N 
ATOM      2  H   UNL     1      43.441   5.465   9.815  0.00  0.00    +0.000 HD
ENDROOT
BRANCH   1   6
ATOM      3  C   UNL     1      46.472   2.429   7.664  0.00  0.00    +0.000 A 
ATOM      4  C   UNL     1      46.424   3.817   7.540  0.00  0.00    +0.000 A 
ATOM      5  C   UNL     1      45.573   4.567   8.359  0.00  0.00    +0.000 A 
ATOM      6  C   UNL     1      44.752   3.960   9.317  0.00  0.00    +0.000 A 
ATOM      7  C   UNL     1      44.812   2.564   9.428  0.00  0.00    +0.000 A 
ATOM      8  C   UNL     1      45.654   1.799   8.606  0.00  0.00    +0.000 A 
BRANCH   3  10
ATOM      9  N   UNL     1      48.420   2.209   6.211  0.00  0.00    +0.000 N 
ATOM     10  C   UNL     1      47.342   1.599   6.789  0.00  0.00    +0.000 C 
ATOM     11  O   UNL     1      47.116   0.408   6.603  0.00  0.00    +0.000 OA
ATOM     12  H   UNL     1      49.038   1.616   5.670  0.00  0.00    +0.000 HD
ATOM     13  H   UNL     1      48.772   3.105   6.512  0.00  0.00    +0.000 HD
ENDBRANCH   3  10
ENDBRANCH   1   6
BRANCH   1  14
ATOM     14  C   UNL     1      44.044   4.581  11.641  0.00  0.00    +0.000 C 
BRANCH  14  15
ATOM     15  C   UNL     1      45.271   5.263  12.226  0.00  0.00    +0.000 A 
ATOM     16  C   UNL     1      45.787   4.837  13.452  0.00  0.00    +0.000 A 
ATOM     17  C   UNL     1      46.982   5.379  13.950  0.00  0.00    +0.000 A 
ATOM     18  C   UNL     1      47.587   6.381  13.180  0.00  0.00    +0.000 A 
ATOM     19  C   UNL     1      47.000   6.773  11.986  0.00  0.00    +0.000 A 
ATOM     20  N   UNL     1      45.869   6.230  11.487  0.00  0.00    +0.000 NA
BRANCH  17  21
ATOM     21  C   UNL     1      47.596   4.887  15.208  0.00  0.00    +0.000 A 
ATOM     22  C   UNL     1      48.500   5.682  15.941  0.00  0.00    +0.000 A 
ATOM     23  C   UNL     1      49.060   5.240  17.145  0.00  0.00    +0.000 A 
ATOM     24  C   UNL     1      48.721   3.993  17.653  0.00  0.00    +0.000 A 
ATOM     25  C   UNL     1      47.835   3.181  16.952  0.00  0.00    +0.000 A 
ATOM     26  C   UNL     1      47.289   3.621  15.740  0.00  0.00    +0.000 A 
ENDBRANCH  17  21
ENDBRANCH  14  15
ENDBRANCH   1  14
TORSDOF 5
ENDMDL
MODEL 4
REMARK VINA RESULT:    -7.988      3.166      6.754
REMARK INTER + INTRA:         -11.114
REMARK INTER:                 -10.350
REMARK INTRA:                  -0.764
REMARK UNBOUND:                -0.791
REMARK  Name = 
REMARK  5 active torsions:
REMARK  status: ('A' for Active; 'I' for Inactive)
REMARK    1  A    between atoms: C_2  and  C_4
REMARK    2  A    between atoms: C_7  and  N_8
REMARK    3  A    between atoms: N_8  and  C_9
REMARK    4  A    between atoms: C_9  and  C_10
REMARK    5  A    between atoms: C_12  and  C_13
REMARK                            x       y       z     vdW  Elec       q    Type
REMARK                         _______ _______ _______ _____ _____    ______ ____
ROOT
ATOM      1  N   UNL     1      44.381   6.744  12.612  0.00  0.00    +0.000 N 
ATOM      2  H   UNL     1      43.936   6.464  13.476  0.00  0.00    +0.000 HD
ENDROOT
BRANCH   1   6
ATOM      3  C   UNL     1      48.412   7.980  12.649  0.00  0.00    +0.000 A 
ATOM      4  C   UNL     1      48.103   6.621  12.618  0.00  0.00    +0.000 A 
ATOM      5  C   UNL     1      46.768   6.203  12.629  0.00  0.00    +0.000 A 
ATOM      6  C   UNL     1      45.711   7.120  12.671  0.00  0.00    +0.000 A 
ATOM      7  C   UNL     1      46.040   8.483  12.702  0.00  0.00    +0.000 A 
ATOM      8  C   UNL     1      47.374   8.915  12.702  0.00  0.00    +0.000 A 
BRANCH   3  10
ATOM      9  N   UNL     1      50.777   7.622  12.167  0.00  0.00    +0.000 N 
ATOM     10  C   UNL     1      49.820   8.458  12.670  0.00  0.00    +0.000 C 
ATOM     11  O   UNL     1      50.115   9.566  13.105  0.00  0.00    +0.000 OA
ATOM     12  H   UNL     1      51.721   7.987  12.130  0.00  0.00    +0.000 HD
ATOM     13  H   UNL     1      50.561   6.817  11.598  0.00  0.00    +0.000 HD
ENDBRANCH   3  10
ENDBRANCH   1   6
BRANCH   1  14
ATOM     14  C   UNL     1      43.683   6.413  11.375  0.00  0.00    +0.000 C 
BRANCH  14  15
ATOM     15  C   UNL     1      43.794   4.950  10.978  0.00  0.00    +0.000 A 
ATOM     16  C   UNL     1      44.560   4.584   9.869  0.00  0.00    +0.000 A 
ATOM     17  C   UNL     1      44.764   3.231   9.557  0.00  0.00    +0.000 A 
ATOM     18  C   UNL     1      44.130   2.294  10.382  0.00  0.00    +0.000 A 
ATOM     19  C   UNL     1      43.360   2.732  11.449  0.00  0.00    +0.000 A 
ATOM     20  N   UNL     1      43.189   4.032  11.773  0.00  0.00    +0.000 NA
BRANCH  17  21
ATOM     21  C   UNL     1      45.640   2.814   8.434  0.00  0.00    +0.000 A 
ATOM     22  C   UNL     1      46.141   1.500   8.347  0.00  0.00    +0.000 A 
ATOM     23  C   UNL     1      46.943   1.088   7.275  0.00  0.00    +0.000 A 
ATOM     24  C   UNL     1      47.255   1.979   6.257  0.00  0.00    +0.000 A 
ATOM     25  C   UNL     1      46.779   3.286   6.316  0.00  0.00    +0.000 A 
ATOM     26  C   UNL     1      45.991   3.699   7.397  0.00  0.00    +0.000 A 
ENDBRANCH  17  21
ENDBRANCH  14  15
ENDBRANCH   1  14
TORSDOF 5
ENDMDL
MODEL 5
REMARK VINA RESULT:    -7.663      3.348      7.244
REMARK INTER + INTRA:         -10.694
REMARK INTER:                 -10.183
REMARK INTRA:                  -0.512
REMARK UNBOUND:                -0.791
REMARK  Name = 
REMARK  5 active torsions:
REMARK  status: ('A' for Active; 'I' for Inactive)
REMARK    1  A    between atoms: C_2  and  C_4
REMARK    2  A    between atoms: C_7  and  N_8
REMARK    3  A    between atoms: N_8  and  C_9
REMARK    4  A    between atoms: C_9  and  C_10
REMARK    5  A    between atoms: C_12  and  C_13
REMARK                            x       y       z     vdW  Elec       q    Type
REMARK                         _______ _______ _______ _____ _____    ______ ____
ROOT
ATOM      1  N   UNL     1      46.563   6.675  11.891  0.00  0.00    +0.000 N 
ATOM      2  H   UNL     1      47.185   7.287  11.379  0.00  0.00    +0.000 HD
ENDROOT
BRANCH   1   6
ATOM      3  C   UNL     1      48.038   5.238  15.570  0.00  0.00    +0.000 A 
ATOM      4  C   UNL     1      47.054   4.523  14.890  0.00  0.00    +0.000 A 
ATOM      5  C   UNL     1      46.543   5.005  13.680  0.00  0.00    +0.000 A 
ATOM      6  C   UNL     1      46.995   6.205  13.118  0.00  0.00    +0.000 A 
ATOM      7  C   UNL     1      47.985   6.912  13.815  0.00  0.00    +0.000 A 
ATOM      8  C   UNL     1      48.497   6.445  15.034  0.00  0.00    +0.000 A 
BRANCH   3  10
ATOM      9  N   UNL     1      47.721   4.731  17.935  0.00  0.00    +0.000 N 
ATOM     10  C   UNL     1      48.580   4.770  16.873  0.00  0.00    +0.000 C 
ATOM     11  O   UNL     1      49.748   4.415  16.993  0.00  0.00    +0.000 OA
ATOM     12  H   UNL     1      48.089   4.351  18.800  0.00  0.00    +0.000 HD
ATOM     13  H   UNL     1      46.719   4.789  17.835  0.00  0.00    +0.000 HD
ENDBRANCH   3  10
ENDBRANCH   1   6
BRANCH   1  14
ATOM     14  C   UNL     1      45.176   6.624  11.442  0.00  0.00    +0.000 C 
BRANCH  14  15
ATOM     15  C   UNL     1      44.762   5.275  10.876  0.00  0.00    +0.000 A 
ATOM     16  C   UNL     1      45.414   4.759   9.753  0.00  0.00    +0.000 A 
ATOM     17  C   UNL     1      45.120   3.468   9.287  0.00  0.00    +0.000 A 
ATOM     18  C   UNL     1      44.125   2.763   9.976  0.00  0.00    +0.000 A 
ATOM     19  C   UNL     1      43.500   3.351  11.067  0.00  0.00    +0.000 A 
ATOM     20  N   UNL     1      43.804   4.579  11.539  0.00  0.00    +0.000 NA
BRANCH  17  21
ATOM     21  C   UNL     1      45.854   2.866   8.148  0.00  0.00    +0.000 A 
ATOM     22  C   UNL     1      46.118   3.602   6.975  0.00  0.00    +0.000 A 
ATOM     23  C   UNL     1      46.837   3.052   5.908  0.00  0.00    +0.000 A 
ATOM     24  C   UNL     1      47.321   1.753   5.990  0.00  0.00    +0.000 A 
ATOM     25  C   UNL     1      47.074   0.998   7.132  0.00  0.00    +0.000 A 
ATOM     26  C   UNL     1      46.341   1.545   8.192  0.00  0.00    +0.000 A 
ENDBRANCH  17  21
ENDBRANCH  14  15
ENDBRANCH   1  14
TORSDOF 5
ENDMDL
MODEL 6
REMARK VINA RESULT:    -6.937      3.273      7.135
REMARK INTER + INTRA:          -9.756
REMARK INTER:                  -9.073
REMARK INTRA:                  -0.683
REMARK UNBOUND:                -0.791
REMARK  Name = 
REMARK  5 active torsions:
REMARK  status: ('A' for Active; 'I' for Inactive)
REMARK    1  A    between atoms: C_2  and  C_4
REMARK    2  A    between atoms: C_7  and  N_8
REMARK    3  A    between atoms: N_8  and  C_9
REMARK    4  A    between atoms: C_9  and  C_10
REMARK    5  A    between atoms: C_12  and  C_13
REMARK                            x       y       z     vdW  Elec       q    Type
REMARK                         _______ _______ _______ _____ _____    ______ ____
ROOT
ATOM      1  N   UNL     1      46.999   5.261  13.109  0.00  0.00    +0.000 N 
ATOM      2  H   UNL     1      47.786   4.716  12.782  0.00  0.00    +0.000 HD
ENDROOT
BRANCH   1   6
ATOM      3  C   UNL     1      46.863   9.352  12.100  0.00  0.00    +0.000 A 
ATOM      4  C   UNL     1      48.071   8.662  12.035  0.00  0.00    +0.000 A 
ATOM      5  C   UNL     1      48.129   7.310  12.391  0.00  0.00    +0.000 A 
ATOM      6  C   UNL     1      46.992   6.613  12.817  0.00  0.00    +0.000 A 
ATOM      7  C   UNL     1      45.784   7.323  12.877  0.00  0.00    +0.000 A 
ATOM      8  C   UNL     1      45.715   8.681  12.533  0.00  0.00    +0.000 A 
BRANCH   3  10
ATOM      9  N   UNL     1      45.531  11.303  11.488  0.00  0.00    +0.000 N 
ATOM     10  C   UNL     1      46.771  10.797  11.759  0.00  0.00    +0.000 C 
ATOM     11  O   UNL     1      47.765  11.516  11.738  0.00  0.00    +0.000 OA
ATOM     12  H   UNL     1      45.478  12.301  11.320  0.00  0.00    +0.000 HD
ATOM     13  H   UNL     1      44.677  10.817  11.715  0.00  0.00    +0.000 HD
ENDBRANCH   3  10
ENDBRANCH   1   6
BRANCH   1  14
ATOM     14  C   UNL     1      45.826   4.518  13.554  0.00  0.00    +0.000 C 
BRANCH  14  15
ATOM     15  C   UNL     1      45.079   3.816  12.432  0.00  0.00    +0.000 A 
ATOM     16  C   UNL     1      45.660   3.711  11.166  0.00  0.00    +0.000 A 
ATOM     17  C   UNL     1      45.034   2.970  10.152  0.00  0.00    +0.000 A 
ATOM     18  C   UNL     1      43.798   2.391  10.468  0.00  0.00    +0.000 A 
ATOM     19  C   UNL     1      43.268   2.562  11.739  0.00  0.00    +0.000 A 
ATOM     20  N   UNL     1      43.884   3.246  12.728  0.00  0.00    +0.000 NA
BRANCH  17  21
ATOM     21  C   UNL     1      45.668   2.774   8.825  0.00  0.00    +0.000 A 
ATOM     22  C   UNL     1      45.872   3.856   7.945  0.00  0.00    +0.000 A 
ATOM     23  C   UNL     1      46.497   3.687   6.704  0.00  0.00    +0.000 A 
ATOM     24  C   UNL     1      46.945   2.431   6.316  0.00  0.00    +0.000 A 
ATOM     25  C   UNL     1      46.756   1.341   7.160  0.00  0.00    +0.000 A 
ATOM     26  C   UNL     1      46.115   1.511   8.394  0.00  0.00    +0.000 A 
ENDBRANCH  17  21
ENDBRANCH  14  15
ENDBRANCH   1  14
TORSDOF 5
ENDMDL
MODEL 7
REMARK VINA RESULT:    -6.851      4.274      7.911
REMARK INTER + INTRA:          -9.645
REMARK INTER:                  -9.177
REMARK INTRA:                  -0.469
REMARK UNBOUND:                -0.791
REMARK  Name = 
REMARK  5 active torsions:
REMARK  status: ('A' for Active; 'I' for Inactive)
REMARK    1  A    between atoms: C_2  and  C_4
REMARK    2  A    between atoms: C_7  and  N_8
REMARK    3  A    between atoms: N_8  and  C_9
REMARK    4  A    between atoms: C_9  and  C_10
REMARK    5  A    between atoms: C_12  and  C_13
REMARK                            x       y       z     vdW  Elec       q    Type
REMARK                         _______ _______ _______ _____ _____    ______ ____
ROOT
ATOM      1  N   UNL     1      46.441   4.082  14.830  0.00  0.00    +0.000 N 
ATOM      2  H   UNL     1      46.099   3.190  14.495  0.00  0.00    +0.000 HD
ENDROOT
BRANCH   1   6
ATOM      3  C   UNL     1      49.636   4.112  17.581  0.00  0.00    +0.000 A 
ATOM      4  C   UNL     1      49.055   2.902  17.206  0.00  0.00    +0.000 A 
ATOM      5  C   UNL     1      47.979   2.886  16.311  0.00  0.00    +0.000 A 
ATOM      6  C   UNL     1      47.456   4.066  15.769  0.00  0.00    +0.000 A 
ATOM      7  C   UNL     1      48.052   5.274  16.158  0.00  0.00    +0.000 A 
ATOM      8  C   UNL     1      49.124   5.305  17.062  0.00  0.00    +0.000 A 
BRANCH   3  10
ATOM      9  N   UNL     1      50.461   4.516  19.841  0.00  0.00    +0.000 N 
ATOM     10  C   UNL     1      50.759   4.168  18.553  0.00  0.00    +0.000 C 
ATOM     11  O   UNL     1      51.909   3.897  18.223  0.00  0.00    +0.000 OA
ATOM     12  H   UNL     1      51.226   4.489  20.505  0.00  0.00    +0.000 HD
ATOM     13  H   UNL     1      49.521   4.521  20.207  0.00  0.00    +0.000 HD
ENDBRANCH   3  10
ENDBRANCH   1   6
BRANCH   1  14
ATOM     14  C   UNL     1      46.063   5.261  14.060  0.00  0.00    +0.000 C 
BRANCH  14  15
ATOM     15  C   UNL     1      45.135   4.963  12.892  0.00  0.00    +0.000 A 
ATOM     16  C   UNL     1      45.658   4.473  11.693  0.00  0.00    +0.000 A 
ATOM     17  C   UNL     1      44.805   4.088  10.647  0.00  0.00    +0.000 A 
ATOM     18  C   UNL     1      43.432   4.262  10.860  0.00  0.00    +0.000 A 
ATOM     19  C   UNL     1      42.987   4.781  12.067  0.00  0.00    +0.000 A 
ATOM     20  N   UNL     1      43.803   5.121  13.089  0.00  0.00    +0.000 NA
BRANCH  17  21
ATOM     21  C   UNL     1      45.330   3.489   9.396  0.00  0.00    +0.000 A 
ATOM     22  C   UNL     1      45.805   4.295   8.341  0.00  0.00    +0.000 A 
ATOM     23  C   UNL     1      46.330   3.738   7.169  0.00  0.00    +0.000 A 
ATOM     24  C   UNL     1      46.403   2.359   7.026  0.00  0.00    +0.000 A 
ATOM     25  C   UNL     1      45.938   1.535   8.046  0.00  0.00    +0.000 A 
ATOM     26  C   UNL     1      45.399   2.095   9.210  0.00  0.00    +0.000 A 
ENDBRANCH  17  21
ENDBRANCH  14  15
ENDBRANCH   1  14
TORSDOF 5
ENDMDL
MODEL 8
REMARK VINA RESULT:    -6.253      5.014      8.076
REMARK INTER + INTRA:          -8.872
REMARK INTER:                  -8.135
REMARK INTRA:                  -0.738
REMARK UNBOUND:                -0.791
REMARK  Name = 
REMARK  5 active torsions:
REMARK  status: ('A' for Active; 'I' for Inactive)
REMARK    1  A    between atoms: C_2  and  C_4
REMARK    2  A    between atoms: C_7  and  N_8
REMARK    3  A    between atoms: N_8  and  C_9
REMARK    4  A    between atoms: C_9  and  C_10
REMARK    5  A    between atoms: C_12  and  C_13
REMARK                            x       y       z     vdW  Elec       q    Type
REMARK                         _______ _______ _______ _____ _____    ______ ____
ROOT
ATOM      1  N   UNL     1      48.676   5.542  17.300  0.00  0.00    +0.000 N 
ATOM      2  H   UNL     1      47.703   5.346  17.497  0.00  0.00    +0.000 HD
ENDROOT
BRANCH   1   6
ATOM      3  C   UNL     1      51.283   2.238  17.554  0.00  0.00    +0.000 A 
ATOM      4  C   UNL     1      51.757   3.519  17.830  0.00  0.00    +0.000 A 
ATOM      5  C   UNL     1      50.904   4.623  17.726  0.00  0.00    +0.000 A 
ATOM      6  C   UNL     1      49.564   4.483  17.345  0.00  0.00    +0.000 A 
ATOM      7  C   UNL     1      49.104   3.187  17.070  0.00  0.00    +0.000 A 
ATOM      8  C   UNL     1      49.951   2.073  17.161  0.00  0.00    +0.000 A 
BRANCH   3  10
ATOM      9  N   UNL     1      51.690  -0.059  18.267  0.00  0.00    +0.000 N 
ATOM     10  C   UNL     1      52.170   1.047  17.625  0.00  0.00    +0.000 C 
ATOM     11  O   UNL     1      53.285   1.045  17.112  0.00  0.00    +0.000 OA
ATOM     12  H   UNL     1      52.280  -0.882  18.252  0.00  0.00    +0.000 HD
ATOM     13  H   UNL     1      50.715  -0.183  18.495  0.00  0.00    +0.000 HD
ENDBRANCH   3  10
ENDBRANCH   1   6
BRANCH   1  14
ATOM     14  C   UNL     1      48.974   6.827  16.678  0.00  0.00    +0.000 C 
BRANCH  14  15
ATOM     15  C   UNL     1      48.863   6.819  15.162  0.00  0.00    +0.000 A 
ATOM     16  C   UNL     1      47.853   6.079  14.541  0.00  0.00    +0.000 A 
ATOM     17  C   UNL     1      47.668   6.150  13.151  0.00  0.00    +0.000 A 
ATOM     18  C   UNL     1      48.564   6.956  12.438  0.00  0.00    +0.000 A 
ATOM     19  C   UNL     1      49.561   7.640  13.121  0.00  0.00    +0.000 A 
ATOM     20  N   UNL     1      49.721   7.601  14.461  0.00  0.00    +0.000 NA
BRANCH  17  21
ATOM     21  C   UNL     1      46.554   5.440  12.477  0.00  0.00    +0.000 A 
ATOM     22  C   UNL     1      45.982   4.278  13.035  0.00  0.00    +0.000 A 
ATOM     23  C   UNL     1      44.910   3.619  12.422  0.00  0.00    +0.000 A 
ATOM     24  C   UNL     1      44.375   4.111  11.239  0.00  0.00    +0.000 A 
ATOM     25  C   UNL     1      44.920   5.253  10.659  0.00  0.00    +0.000 A 
ATOM     26  C   UNL     1      46.002   5.901  11.267  0.00  0.00    +0.000 A 
ENDBRANCH  17  21
ENDBRANCH  14  15
ENDBRANCH   1  14
TORSDOF 5
ENDMDL
