MODEL 1
REMARK VINA RESULT:    -9.109      0.000      0.000
REMARK INTER + INTRA:         -12.292
REMARK INTER:                 -11.239
REMARK INTRA:                  -1.053
REMARK UNBOUND:                -1.053
REMARK  Name = 
REMARK  4 active torsions:
REMARK  status: ('A' for Active; 'I' for Inactive)
REMARK    1  A    between atoms: C_2  and  C_4
REMARK    2  A    between atoms: N_8  and  C_9
REMARK    3  A    between atoms: C_9  and  C_10
REMARK    4  A    between atoms: C_14  and  C_15
REMARK                            x       y       z     vdW  Elec       q    Type
REMARK                         _______ _______ _______ _____ _____    ______ ____
ROOT
ATOM      1  C   UNL     1      43.824   4.863  11.394  0.00  0.00    +0.000 C 
ATOM      2  C   UNL     1      42.509   5.101  12.125  0.00  0.00    +0.000 C 
ATOM      3  C   UNL     1      42.940   6.051  11.059  0.00  0.00    +0.000 C 
ENDROOT
BRANCH   1   8
ATOM      4  C   UNL     1      46.577   2.779   7.507  0.00  0.00    +0.000 A 
ATOM      5  C   UNL     1      46.253   4.110   7.725  0.00  0.00    +0.000 A 
ATOM      6  C   UNL     1      45.386   4.445   8.769  0.00  0.00    +0.000 A 
ATOM      7  C   UNL     1      44.848   3.439   9.563  0.00  0.00    +0.000 A 
ATOM      8  N   UNL     1      43.866   3.671  10.531  0.00  0.00    +0.000 N 
ATOM      9  N   UNL     1      45.164   2.141   9.368  0.00  0.00    +0.000 NA
ATOM     10  C   UNL     1      46.010   1.833   8.352  0.00  0.00    +0.000 A 
ATOM     11  H   UNL     1      43.726   2.774  10.992  0.00  0.00    +0.000 HD
BRANCH   4  13
ATOM     12  N   UNL     1      47.337   2.982   5.204  0.00  0.00    +0.000 N 
ATOM     13  C   UNL     1      47.434   2.315   6.394  0.00  0.00    +0.000 C 
ATOM     14  O   UNL     1      48.212   1.379   6.531  0.00  0.00    +0.000 OA
ATOM     15  H   UNL     1      47.981   2.698   4.478  0.00  0.00    +0.000 HD
ATOM     16  H   UNL     1      46.899   3.887   5.113  0.00  0.00    +0.000 HD
ENDBRANCH   4  13
ENDBRANCH   1   8
BRANCH   1  17
ATOM     17  C   UNL     1      45.109   5.077  12.189  0.00  0.00    +0.000 A 
ATOM     18  C   UNL     1      45.593   4.094  13.067  0.00  0.00    +0.000 A 
ATOM     19  C   UNL     1      46.817   4.239  13.719  0.00  0.00    +0.000 A 
ATOM     20  C   UNL     1      47.589   5.380  13.505  0.00  0.00    +0.000 A 
ATOM     21  C   UNL     1      47.151   6.393  12.639  0.00  0.00    +0.000 A 
ATOM     22  C   UNL     1      45.903   6.223  12.008  0.00  0.00    +0.000 A 
BRANCH  21  23
ATOM     23  C   UNL     1      47.995   7.555  12.312  0.00  0.00    +0.000 A 
ATOM     24  C   UNL     1      47.483   8.856  12.241  0.00  0.00    +0.000 A 
ATOM     25  N   UNL     1      48.182   9.946  11.836  0.00  0.00    +0.000 NA
ATOM     26  C   UNL     1      49.473   9.739  11.491  0.00  0.00    +0.000 A 
ATOM     27  C   UNL     1      50.093   8.502  11.552  0.00  0.00    +0.000 A 
ATOM     28 CL   UNL     1      51.736   8.312  11.093  0.00  0.00    +0.000 Cl
ATOM     29  C   UNL     1      49.346   7.403  11.969  0.00  0.00    +0.000 A 
ENDBRANCH  21  23
ENDBRANCH   1  17
TORSDOF 4
ENDMDL
MODEL 2
REMARK VINA RESULT:    -8.880      2.472      3.648
REMARK INTER + INTRA:         -12.009
REMARK INTER:                 -11.523
REMARK INTRA:                  -0.486
REMARK UNBOUND:                -1.053
REMARK  Name = 
REMARK  4 active torsions:
REMARK  status: ('A' for Active; 'I' for Inactive)
REMARK    1  A    between atoms: C_2  and  C_4
REMARK    2  A    between atoms: N_8  and  C_9
REMARK    3  A    between atoms: C_9  and  C_10
REMARK    4  A    between atoms: C_14  and  C_15
REMARK                            x       y       z     vdW  Elec       q    Type
REMARK                         _______ _______ _______ _____ _____    ______ ____
ROOT
ATOM      1  C   UNL     1      43.892   4.874  11.485  0.00  0.00    +0.000 C 
ATOM      2  C   UNL     1      42.732   4.972  12.466  0.00  0.00    +0.000 C 
ATOM      3  C   UNL     1      42.783   5.893  11.293  0.00  0.00    +0.000 C 
ENDROOT
BRANCH   1   8
ATOM      4  C   UNL     1      46.462   2.749   7.496  0.00  0.00    +0.000 A 
ATOM      5  C   UNL     1      46.067   4.067   7.671  0.00  0.00    +0.000 A 
ATOM      6  C   UNL     1      45.265   4.406   8.764  0.00  0.00    +0.000 A 
ATOM      7  C   UNL     1      44.862   3.415   9.651  0.00  0.00    +0.000 A 
ATOM      8  N   UNL     1      43.946   3.640  10.684  0.00  0.00    +0.000 N 
ATOM      9  N   UNL     1      45.248   2.130   9.499  0.00  0.00    +0.000 NA
ATOM     10  C   UNL     1      46.029   1.818   8.434  0.00  0.00    +0.000 A 
ATOM     11  H   UNL     1      43.904   2.763  11.201  0.00  0.00    +0.000 HD
BRANCH   4  13
ATOM     12  N   UNL     1      47.229   3.037   5.205  0.00  0.00    +0.000 N 
ATOM     13  C   UNL     1      47.257   2.277   6.341  0.00  0.00    +0.000 C 
ATOM     14  O   UNL     1      47.927   1.253   6.400  0.00  0.00    +0.000 OA
ATOM     15  H   UNL     1      47.835   2.738   4.452  0.00  0.00    +0.000 HD
ATOM     16  H   UNL     1      46.895   3.989   5.186  0.00  0.00    +0.000 HD
ENDBRANCH   4  13
ENDBRANCH   1   8
BRANCH   1  17
ATOM     17  C   UNL     1      45.261   5.330  11.981  0.00  0.00    +0.000 A 
ATOM     18  C   UNL     1      45.982   6.330  11.308  0.00  0.00    +0.000 A 
ATOM     19  C   UNL     1      47.186   6.823  11.811  0.00  0.00    +0.000 A 
ATOM     20  C   UNL     1      47.698   6.322  13.007  0.00  0.00    +0.000 A 
ATOM     21  C   UNL     1      47.018   5.321  13.718  0.00  0.00    +0.000 A 
ATOM     22  C   UNL     1      45.813   4.835  13.175  0.00  0.00    +0.000 A 
BRANCH  21  23
ATOM     23  C   UNL     1      47.481   4.853  15.036  0.00  0.00    +0.000 A 
ATOM     24  C   UNL     1      47.103   3.614  15.565  0.00  0.00    +0.000 A 
ATOM     25  N   UNL     1      47.402   3.177  16.814  0.00  0.00    +0.000 NA
ATOM     26  C   UNL     1      48.133   4.015  17.584  0.00  0.00    +0.000 A 
ATOM     27  C   UNL     1      48.588   5.250  17.155  0.00  0.00    +0.000 A 
ATOM     28 CL   UNL     1      49.508   6.263  18.191  0.00  0.00    +0.000 Cl
ATOM     29  C   UNL     1      48.261   5.669  15.868  0.00  0.00    +0.000 A 
ENDBRANCH  21  23
ENDBRANCH   1  17
TORSDOF 4
ENDMDL
MODEL 3
REMARK VINA RESULT:    -7.163      4.580      8.249
REMARK INTER + INTRA:          -9.891
REMARK INTER:                  -9.010
REMARK INTRA:                  -0.880
REMARK UNBOUND:                -1.053
REMARK  Name = 
REMARK  4 active torsions:
REMARK  status: ('A' for Active; 'I' for Inactive)
REMARK    1  A    between atoms: C_2  and  C_4
REMARK    2  A    between atoms: N_8  and  C_9
REMARK    3  A    between atoms: C_9  and  C_10
REMARK    4  A    between atoms: C_14  and  C_15
REMARK                            x       y       z     vdW  Elec       q    Type
REMARK                         _______ _______ _______ _____ _____    ______ ____
ROOT
ATOM      1  C   UNL     1      48.744   7.782  12.666  0.00  0.00    +0.000 C 
ATOM      2  C   UNL     1      49.703   8.084  11.521  0.00  0.00    +0.000 C 
ATOM      3  C   UNL     1      49.397   9.145  12.525  0.00  0.00    +0.000 C 
ENDROOT
BRANCH   1   8
ATOM      4  C   UNL     1      48.460   6.686  17.740  0.00  0.00    +0.000 A 
ATOM      5  C   UNL     1      48.539   7.926  17.123  0.00  0.00    +0.000 A 
ATOM      6  C   UNL     1      48.741   7.995  15.741  0.00  0.00    +0.000 A 
ATOM      7  C   UNL     1      48.876   6.821  15.009  0.00  0.00    +0.000 A 
ATOM      8  N   UNL     1      49.222   6.801  13.654  0.00  0.00    +0.000 N 
ATOM      9  N   UNL     1      48.790   5.608  15.596  0.00  0.00    +0.000 NA
ATOM     10  C   UNL     1      48.591   5.559  16.937  0.00  0.00    +0.000 A 
ATOM     11  H   UNL     1      49.173   5.822  13.379  0.00  0.00    +0.000 HD
BRANCH   4  13
ATOM     12  N   UNL     1      47.354   5.628  19.632  0.00  0.00    +0.000 N 
ATOM     13  C   UNL     1      48.310   6.505  19.201  0.00  0.00    +0.000 C 
ATOM     14  O   UNL     1      49.022   7.105  19.997  0.00  0.00    +0.000 OA
ATOM     15  H   UNL     1      47.315   5.463  20.629  0.00  0.00    +0.000 HD
ATOM     16  H   UNL     1      46.917   4.947  19.028  0.00  0.00    +0.000 HD
ENDBRANCH   4  13
ENDBRANCH   1   8
BRANCH   1  17
ATOM     17  C   UNL     1      47.271   7.608  12.309  0.00  0.00    +0.000 A 
ATOM     18  C   UNL     1      46.346   8.644  12.516  0.00  0.00    +0.000 A 
ATOM     19  C   UNL     1      45.020   8.530  12.100  0.00  0.00    +0.000 A 
ATOM     20  C   UNL     1      44.587   7.368  11.464  0.00  0.00    +0.000 A 
ATOM     21  C   UNL     1      45.470   6.302  11.234  0.00  0.00    +0.000 A 
ATOM     22  C   UNL     1      46.799   6.443  11.680  0.00  0.00    +0.000 A 
BRANCH  21  23
ATOM     23  C   UNL     1      45.067   5.109  10.469  0.00  0.00    +0.000 A 
ATOM     24  C   UNL     1      44.215   4.133  10.998  0.00  0.00    +0.000 A 
ATOM     25  N   UNL     1      43.900   2.963  10.388  0.00  0.00    +0.000 NA
ATOM     26  C   UNL     1      44.452   2.751   9.172  0.00  0.00    +0.000 A 
ATOM     27  C   UNL     1      45.283   3.659   8.539  0.00  0.00    +0.000 A 
ATOM     28 CL   UNL     1      45.952   3.320   6.995  0.00  0.00    +0.000 Cl
ATOM     29  C   UNL     1      45.589   4.849   9.193  0.00  0.00    +0.000 A 
ENDBRANCH  21  23
ENDBRANCH   1  17
TORSDOF 4
ENDMDL
MODEL 4
REMARK VINA RESULT:    -6.462      3.150      7.085
REMARK INTER + INTRA:          -9.027
REMARK INTER:                  -8.131
REMARK INTRA:                  -0.896
REMARK UNBOUND:                -1.053
REMARK  Name = 
REMARK  4 active torsions:
REMARK  status: ('A' for Active; 'I' for Inactive)
REMARK    1  A    between atoms: C_2  and  C_4
REMARK    2  A    between atoms: N_8  and  C_9
REMARK    3  A    between atoms: C_9  and  C_10
REMARK    4  A    between atoms: C_14  and  C_15
REMARK                            x       y       z     vdW  Elec       q    Type
REMARK                         _______ _______ _______ _____ _____    ______ ____
ROOT
ATOM      1  C   UNL     1      46.117   5.163  13.268  0.00  0.00    +0.000 C 
ATOM      2  C   UNL     1      45.995   4.205  14.446  0.00  0.00    +0.000 C 
ATOM      3  C   UNL     1      47.248   4.218  13.635  0.00  0.00    +0.000 C 
ENDROOT
BRANCH   1   8
ATOM      4  C   UNL     1      48.269   9.626  11.693  0.00  0.00    +0.000 A 
ATOM      5  C   UNL     1      48.820   8.353  11.702  0.00  0.00    +0.000 A 
ATOM      6  C   UNL     1      48.112   7.302  12.294  0.00  0.00    +0.000 A 
ATOM      7  C   UNL     1      46.876   7.551  12.877  0.00  0.00    +0.000 A 
ATOM      8  N   UNL     1      46.170   6.593  13.613  0.00  0.00    +0.000 N 
ATOM      9  N   UNL     1      46.324   8.783  12.865  0.00  0.00    +0.000 NA
ATOM     10  C   UNL     1      47.022   9.791  12.284  0.00  0.00    +0.000 A 
ATOM     11  H   UNL     1      45.284   7.034  13.848  0.00  0.00    +0.000 HD
BRANCH   4  13
ATOM     12  N   UNL     1      49.999  11.328  11.877  0.00  0.00    +0.000 N 
ATOM     13  C   UNL     1      48.962  10.815  11.149  0.00  0.00    +0.000 C 
ATOM     14  O   UNL     1      48.631  11.316  10.082  0.00  0.00    +0.000 OA
ATOM     15  H   UNL     1      50.506  12.094  11.455  0.00  0.00    +0.000 HD
ATOM     16  H   UNL     1      50.454  10.820  12.623  0.00  0.00    +0.000 HD
ENDBRANCH   4  13
ENDBRANCH   1   8
BRANCH   1  17
ATOM     17  C   UNL     1      45.255   4.870  12.044  0.00  0.00    +0.000 A 
ATOM     18  C   UNL     1      44.045   5.549  11.828  0.00  0.00    +0.000 A 
ATOM     19  C   UNL     1      43.303   5.361  10.662  0.00  0.00    +0.000 A 
ATOM     20  C   UNL     1      43.758   4.482   9.680  0.00  0.00    +0.000 A 
ATOM     21  C   UNL     1      44.960   3.777   9.847  0.00  0.00    +0.000 A 
ATOM     22  C   UNL     1      45.678   3.979  11.042  0.00  0.00    +0.000 A 
BRANCH  21  23
ATOM     23  C   UNL     1      45.518   2.928   8.781  0.00  0.00    +0.000 A 
ATOM     24  C   UNL     1      45.691   1.547   8.937  0.00  0.00    +0.000 A 
ATOM     25  N   UNL     1      46.301   0.734   8.039  0.00  0.00    +0.000 NA
ATOM     26  C   UNL     1      46.757   1.320   6.909  0.00  0.00    +0.000 A 
ATOM     27  C   UNL     1      46.613   2.669   6.634  0.00  0.00    +0.000 A 
ATOM     28 CL   UNL     1      47.222   3.345   5.179  0.00  0.00    +0.000 Cl
ATOM     29  C   UNL     1      45.985   3.477   7.578  0.00  0.00    +0.000 A 
ENDBRANCH  21  23
ENDBRANCH   1  17
TORSDOF 4
ENDMDL
MODEL 5
REMARK VINA RESULT:    -6.354      5.909      8.452
REMARK INTER + INTRA:          -8.893
REMARK INTER:                  -8.176
REMARK INTRA:                  -0.717
REMARK UNBOUND:                -1.053
REMARK  Name = 
REMARK  4 active torsions:
REMARK  status: ('A' for Active; 'I' for Inactive)
REMARK    1  A    between atoms: C_2  and  C_4
REMARK    2  A    between atoms: N_8  and  C_9
REMARK    3  A    between atoms: C_9  and  C_10
REMARK    4  A    between atoms: C_14  and  C_15
REMARK                            x       y       z     vdW  Elec       q    Type
REMARK                         _______ _______ _______ _____ _____    ______ ____
ROOT
ATOM      1  C   UNL     1      48.304   5.050  17.437  0.00  0.00    +0.000 C 
ATOM      2  C   UNL     1      47.163   5.436  18.369  0.00  0.00    +0.000 C 
ATOM      3  C   UNL     1      47.167   4.088  17.728  0.00  0.00    +0.000 C 
ENDROOT
BRANCH   1   8
ATOM      4  C   UNL     1      52.372   1.816  17.580  0.00  0.00    +0.000 A 
ATOM      5  C   UNL     1      51.022   1.509  17.491  0.00  0.00    +0.000 A 
ATOM      6  C   UNL     1      50.076   2.532  17.600  0.00  0.00    +0.000 A 
ATOM      7  C   UNL     1      50.501   3.838  17.811  0.00  0.00    +0.000 A 
ATOM      8  N   UNL     1      49.622   4.895  18.074  0.00  0.00    +0.000 N 
ATOM      9  N   UNL     1      51.812   4.152  17.888  0.00  0.00    +0.000 NA
ATOM     10  C   UNL     1      52.717   3.147  17.778  0.00  0.00    +0.000 A 
ATOM     11  H   UNL     1      50.207   5.727  18.111  0.00  0.00    +0.000 HD
BRANCH   4  13
ATOM     12  N   UNL     1      53.230  -0.375  18.203  0.00  0.00    +0.000 N 
ATOM     13  C   UNL     1      53.448   0.800  17.540  0.00  0.00    +0.000 C 
ATOM     14  O   UNL     1      54.490   0.995  16.926  0.00  0.00    +0.000 OA
ATOM     15  H   UNL     1      53.944  -1.084  18.104  0.00  0.00    +0.000 HD
ATOM     16  H   UNL     1      52.316  -0.672  18.514  0.00  0.00    +0.000 HD
ENDBRANCH   4  13
ENDBRANCH   1   8
BRANCH   1  17
ATOM     17  C   UNL     1      48.368   5.760  16.087  0.00  0.00    +0.000 A 
ATOM     18  C   UNL     1      49.402   6.661  15.788  0.00  0.00    +0.000 A 
ATOM     19  C   UNL     1      49.523   7.236  14.523  0.00  0.00    +0.000 A 
ATOM     20  C   UNL     1      48.606   6.918  13.522  0.00  0.00    +0.000 A 
ATOM     21  C   UNL     1      47.553   6.023  13.770  0.00  0.00    +0.000 A 
ATOM     22  C   UNL     1      47.450   5.473  15.062  0.00  0.00    +0.000 A 
BRANCH  21  23
ATOM     23  C   UNL     1      46.636   5.587  12.702  0.00  0.00    +0.000 A 
ATOM     24  C   UNL     1      46.530   6.268  11.483  0.00  0.00    +0.000 A 
ATOM     25  N   UNL     1      45.628   5.984  10.510  0.00  0.00    +0.000 NA
ATOM     26  C   UNL     1      44.786   4.954  10.753  0.00  0.00    +0.000 A 
ATOM     27  C   UNL     1      44.821   4.191  11.909  0.00  0.00    +0.000 A 
ATOM     28 CL   UNL     1      43.717   2.900  12.150  0.00  0.00    +0.000 Cl
ATOM     29  C   UNL     1      45.758   4.511  12.888  0.00  0.00    +0.000 A 
ENDBRANCH  21  23
ENDBRANCH   1  17
TORSDOF 4
ENDMDL
