MODEL 1
REMARK VINA RESULT:    -8.038      0.000      0.000
REMARK INTER + INTRA:         -11.786
REMARK INTER:                 -10.858
REMARK INTRA:                  -0.928
REMARK UNBOUND:                -0.928
REMARK  Name = 
REMARK  6 active torsions:
REMARK  status: ('A' for Active; 'I' for Inactive)
REMARK    1  A    between atoms: C_2  and  C_3
REMARK    2  A    between atoms: C_6  and  O_7
REMARK    3  A    between atoms: O_7  and  C_8
REMARK    4  A    between atoms: C_11  and  C_12
REMARK    5  A    between atoms: C_12  and  N_13
REMARK    6  A    between atoms: C_14  and  C_16
REMARK                            x       y       z     vdW  Elec       q    Type
REMARK                         _______ _______ _______ _____ _____    ______ ____
ROOT
ATOM      1  C   UNL     1      47.211   8.166  13.755  0.00  0.00    +0.000 C 
ENDROOT
BRANCH   1   5
ATOM      2  C   UNL     1      44.869   5.506  11.398  0.00  0.00    +0.000 A 
ATOM      3  C   UNL     1      44.636   6.872  11.284  0.00  0.00    +0.000 A 
ATOM      4  C   UNL     1      45.388   7.757  12.054  0.00  0.00    +0.000 A 
ATOM      5  C   UNL     1      46.332   7.247  12.946  0.00  0.00    +0.000 A 
ATOM      6  N   UNL     1      46.533   5.914  13.108  0.00  0.00    +0.000 NA
ATOM      7  C   UNL     1      45.786   5.080  12.350  0.00  0.00    +0.000 A 
BRANCH   2   8
ATOM      8  O   UNL     1      44.184   4.653  10.564  0.00  0.00    +0.000 OA
BRANCH   8  12
ATOM      9  C   UNL     1      46.429   2.604   7.697  0.00  0.00    +0.000 A 
ATOM     10  C   UNL     1      45.665   1.913   8.645  0.00  0.00    +0.000 A 
ATOM     11  C   UNL     1      44.905   2.618   9.586  0.00  0.00    +0.000 A 
ATOM     12  C   UNL     1      44.912   4.014   9.579  0.00  0.00    +0.000 A 
ATOM     13  C   UNL     1      45.623   4.701   8.589  0.00  0.00    +0.000 A 
ATOM     14  C   UNL     1      46.405   3.999   7.671  0.00  0.00    +0.000 A 
BRANCH   9  16
ATOM     15  N   UNL     1      47.901   1.330   5.986  0.00  0.00    +0.000 NA
ATOM     16  C   UNL     1      47.233   1.891   6.748  0.00  0.00    +0.000 C 
ENDBRANCH   9  16
ENDBRANCH   8  12
ENDBRANCH   2   8
ENDBRANCH   1   5
BRANCH   1  17
ATOM     17  N   UNL     1      47.763   7.507  14.919  0.00  0.00    +0.000 N 
ATOM     18  C   UNL     1      49.029   6.990  14.949  0.00  0.00    +0.000 C 
ATOM     19  O   UNL     1      49.766   7.018  13.966  0.00  0.00    +0.000 OA
ATOM     20  H   UNL     1      47.100   7.278  15.653  0.00  0.00    +0.000 HD
BRANCH  18  21
ATOM     21  C   UNL     1      49.495   6.473  16.244  0.00  0.00    +0.000 A 
ATOM     22  C   UNL     1      50.612   7.039  16.846  0.00  0.00    +0.000 A 
ATOM     23  S   UNL     1      50.974   6.379  18.376  0.00  0.00    +0.000 S 
ATOM     24  C   UNL     1      49.679   5.279  18.269  0.00  0.00    +0.000 A 
ATOM     25  N   UNL     1      49.430   4.395  19.271  0.00  0.00    +0.000 NA
ATOM     26  C   UNL     1      48.438   3.599  19.045  0.00  0.00    +0.000 A 
ATOM     27  N   UNL     1      47.673   3.609  17.908  0.00  0.00    +0.000 N 
ATOM     28  C   UNL     1      47.866   4.509  16.887  0.00  0.00    +0.000 A 
ATOM     29  O   UNL     1      47.126   4.527  15.908  0.00  0.00    +0.000 OA
ATOM     30  C   UNL     1      48.976   5.421  17.085  0.00  0.00    +0.000 A 
ATOM     31  H   UNL     1      46.904   2.966  17.796  0.00  0.00    +0.000 HD
ENDBRANCH  18  21
ENDBRANCH   1  17
TORSDOF 6
ENDMDL
MODEL 2
REMARK VINA RESULT:    -8.016      2.258      3.923
REMARK INTER + INTRA:         -11.756
REMARK INTER:                 -10.712
REMARK INTRA:                  -1.044
REMARK UNBOUND:                -0.928
REMARK  Name = 
REMARK  6 active torsions:
REMARK  status: ('A' for Active; 'I' for Inactive)
REMARK    1  A    between atoms: C_2  and  C_3
REMARK    2  A    between atoms: C_6  and  O_7
REMARK    3  A    between atoms: O_7  and  C_8
REMARK    4  A    between atoms: C_11  and  C_12
REMARK    5  A    between atoms: C_12  and  N_13
REMARK    6  A    between atoms: C_14  and  C_16
REMARK                            x       y       z     vdW  Elec       q    Type
REMARK                         _______ _______ _______ _____ _____    ______ ____
ROOT
ATOM      1  C   UNL     1      47.125   5.098  15.024  0.00  0.00    +0.000 C 
ENDROOT
BRANCH   1   5
ATOM      2  C   UNL     1      44.891   4.157  11.525  0.00  0.00    +0.000 A 
ATOM      3  C   UNL     1      45.082   5.496  11.849  0.00  0.00    +0.000 A 
ATOM      4  C   UNL     1      45.804   5.822  12.995  0.00  0.00    +0.000 A 
ATOM      5  C   UNL     1      46.287   4.796  13.807  0.00  0.00    +0.000 A 
ATOM      6  N   UNL     1      46.063   3.485  13.534  0.00  0.00    +0.000 NA
ATOM      7  C   UNL     1      45.356   3.199  12.418  0.00  0.00    +0.000 A 
BRANCH   2   8
ATOM      8  O   UNL     1      44.258   3.852  10.343  0.00  0.00    +0.000 OA
BRANCH   8  12
ATOM      9  C   UNL     1      46.725   2.545   7.235  0.00  0.00    +0.000 A 
ATOM     10  C   UNL     1      46.097   1.632   8.091  0.00  0.00    +0.000 A 
ATOM     11  C   UNL     1      45.259   2.090   9.115  0.00  0.00    +0.000 A 
ATOM     12  C   UNL     1      45.052   3.460   9.284  0.00  0.00    +0.000 A 
ATOM     13  C   UNL     1      45.627   4.366   8.385  0.00  0.00    +0.000 A 
ATOM     14  C   UNL     1      46.487   3.913   7.384  0.00  0.00    +0.000 A 
BRANCH   9  16
ATOM     15  N   UNL     1      48.337   1.735   5.373  0.00  0.00    +0.000 NA
ATOM     16  C   UNL     1      47.607   2.089   6.201  0.00  0.00    +0.000 C 
ENDBRANCH   9  16
ENDBRANCH   8  12
ENDBRANCH   2   8
ENDBRANCH   1   5
BRANCH   1  17
ATOM     17  N   UNL     1      47.851   6.342  14.890  0.00  0.00    +0.000 N 
ATOM     18  C   UNL     1      49.070   6.556  15.474  0.00  0.00    +0.000 C 
ATOM     19  O   UNL     1      49.607   5.711  16.187  0.00  0.00    +0.000 OA
ATOM     20  H   UNL     1      47.329   7.120  14.499  0.00  0.00    +0.000 HD
BRANCH  18  21
ATOM     21  C   UNL     1      49.746   7.818  15.137  0.00  0.00    +0.000 A 
ATOM     22  C   UNL     1      50.201   8.644  16.156  0.00  0.00    +0.000 A 
ATOM     23  S   UNL     1      51.029  10.027  15.598  0.00  0.00    +0.000 S 
ATOM     24  C   UNL     1      50.767   9.596  13.973  0.00  0.00    +0.000 A 
ATOM     25  N   UNL     1      51.224  10.379  12.960  0.00  0.00    +0.000 NA
ATOM     26  C   UNL     1      50.929   9.949  11.778  0.00  0.00    +0.000 A 
ATOM     27  N   UNL     1      50.218   8.807  11.519  0.00  0.00    +0.000 N 
ATOM     28  C   UNL     1      49.770   7.966  12.510  0.00  0.00    +0.000 A 
ATOM     29  O   UNL     1      49.185   6.921  12.240  0.00  0.00    +0.000 OA
ATOM     30  C   UNL     1      50.065   8.408  13.859  0.00  0.00    +0.000 A 
ATOM     31  H   UNL     1      50.028   8.520  10.571  0.00  0.00    +0.000 HD
ENDBRANCH  18  21
ENDBRANCH   1  17
TORSDOF 6
ENDMDL
MODEL 3
REMARK VINA RESULT:    -7.704      2.592      3.221
REMARK INTER + INTRA:         -11.335
REMARK INTER:                 -10.483
REMARK INTRA:                  -0.852
REMARK UNBOUND:                -0.928
REMARK  Name = 
REMARK  6 active torsions:
REMARK  status: ('A' for Active; 'I' for Inactive)
REMARK    1  A    between atoms: C_2  and  C_3
REMARK    2  A    between atoms: C_6  and  O_7
REMARK    3  A    between atoms: O_7  and  C_8
REMARK    4  A    between atoms: C_11  and  C_12
REMARK    5  A    between atoms: C_12  and  N_13
REMARK    6  A    between atoms: C_14  and  C_16
REMARK                            x       y       z     vdW  Elec       q    Type
REMARK                         _______ _______ _______ _____ _____    ______ ____
ROOT
ATOM      1  C   UNL     1      47.627   4.737  15.149  0.00  0.00    +0.000 C 
ENDROOT
BRANCH   1   5
ATOM      2  C   UNL     1      45.202   4.243  11.686  0.00  0.00    +0.000 A 
ATOM      3  C   UNL     1      45.590   5.529  12.045  0.00  0.00    +0.000 A 
ATOM      4  C   UNL     1      46.378   5.710  13.180  0.00  0.00    +0.000 A 
ATOM      5  C   UNL     1      46.727   4.599  13.948  0.00  0.00    +0.000 A 
ATOM      6  N   UNL     1      46.311   3.343  13.642  0.00  0.00    +0.000 NA
ATOM      7  C   UNL     1      45.545   3.200  12.537  0.00  0.00    +0.000 A 
BRANCH   2   8
ATOM      8  O   UNL     1      44.505   4.072  10.514  0.00  0.00    +0.000 OA
BRANCH   8  12
ATOM      9  C   UNL     1      46.724   2.649   7.273  0.00  0.00    +0.000 A 
ATOM     10  C   UNL     1      46.094   1.767   8.159  0.00  0.00    +0.000 A 
ATOM     11  C   UNL     1      45.339   2.265   9.228  0.00  0.00    +0.000 A 
ATOM     12  C   UNL     1      45.218   3.643   9.411  0.00  0.00    +0.000 A 
ATOM     13  C   UNL     1      45.793   4.522   8.485  0.00  0.00    +0.000 A 
ATOM     14  C   UNL     1      46.571   4.027   7.438  0.00  0.00    +0.000 A 
BRANCH   9  16
ATOM     15  N   UNL     1      48.181   1.768   5.318  0.00  0.00    +0.000 NA
ATOM     16  C   UNL     1      47.523   2.151   6.191  0.00  0.00    +0.000 C 
ENDBRANCH   9  16
ENDBRANCH   8  12
ENDBRANCH   2   8
ENDBRANCH   1   5
BRANCH   1  17
ATOM     17  N   UNL     1      47.714   6.106  15.611  0.00  0.00    +0.000 N 
ATOM     18  C   UNL     1      48.903   6.713  15.913  0.00  0.00    +0.000 C 
ATOM     19  O   UNL     1      49.974   6.114  15.848  0.00  0.00    +0.000 OA
ATOM     20  H   UNL     1      46.837   6.538  15.882  0.00  0.00    +0.000 HD
BRANCH  18  21
ATOM     21  C   UNL     1      48.843   8.145  16.238  0.00  0.00    +0.000 A 
ATOM     22  C   UNL     1      49.400   9.070  15.365  0.00  0.00    +0.000 A 
ATOM     23  S   UNL     1      49.178  10.690  15.849  0.00  0.00    +0.000 S 
ATOM     24  C   UNL     1      48.369  10.213  17.268  0.00  0.00    +0.000 A 
ATOM     25  N   UNL     1      47.912  11.136  18.155  0.00  0.00    +0.000 NA
ATOM     26  C   UNL     1      47.346  10.634  19.202  0.00  0.00    +0.000 A 
ATOM     27  N   UNL     1      47.197   9.293  19.442  0.00  0.00    +0.000 N 
ATOM     28  C   UNL     1      47.610   8.327  18.556  0.00  0.00    +0.000 A 
ATOM     29  O   UNL     1      47.410   7.136  18.776  0.00  0.00    +0.000 OA
ATOM     30  C   UNL     1      48.264   8.835  17.366  0.00  0.00    +0.000 A 
ATOM     31  H   UNL     1      46.736   8.965  20.276  0.00  0.00    +0.000 HD
ENDBRANCH  18  21
ENDBRANCH   1  17
TORSDOF 6
ENDMDL
MODEL 4
REMARK VINA RESULT:    -7.204      2.226      3.262
REMARK INTER + INTRA:         -10.659
REMARK INTER:                 -10.055
REMARK INTRA:                  -0.605
REMARK UNBOUND:                -0.928
REMARK  Name = 
REMARK  6 active torsions:
REMARK  status: ('A' for Active; 'I' for Inactive)
REMARK    1  A    between atoms: C_2  and  C_3
REMARK    2  A    between atoms: C_6  and  O_7
REMARK    3  A    between atoms: O_7  and  C_8
REMARK    4  A    between atoms: C_11  and  C_12
REMARK    5  A    between atoms: C_12  and  N_13
REMARK    6  A    between atoms: C_14  and  C_16
REMARK                            x       y       z     vdW  Elec       q    Type
REMARK                         _______ _______ _______ _____ _____    ______ ____
ROOT
ATOM      1  C   UNL     1      47.173   4.607  15.181  0.00  0.00    +0.000 C 
ENDROOT
BRANCH   1   5
ATOM      2  C   UNL     1      45.017   4.346  11.521  0.00  0.00    +0.000 A 
ATOM      3  C   UNL     1      45.335   5.607  12.014  0.00  0.00    +0.000 A 
ATOM      4  C   UNL     1      46.034   5.711  13.215  0.00  0.00    +0.000 A 
ATOM      5  C   UNL     1      46.365   4.548  13.910  0.00  0.00    +0.000 A 
ATOM      6  N   UNL     1      46.014   3.312  13.470  0.00  0.00    +0.000 NA
ATOM      7  C   UNL     1      45.334   3.243  12.304  0.00  0.00    +0.000 A 
BRANCH   2   8
ATOM      8  O   UNL     1      44.410   4.258  10.290  0.00  0.00    +0.000 OA
BRANCH   8  12
ATOM      9  C   UNL     1      46.772   2.700   7.216  0.00  0.00    +0.000 A 
ATOM     10  C   UNL     1      46.037   1.858   8.060  0.00  0.00    +0.000 A 
ATOM     11  C   UNL     1      45.237   2.401   9.072  0.00  0.00    +0.000 A 
ATOM     12  C   UNL     1      45.174   3.784   9.242  0.00  0.00    +0.000 A 
ATOM     13  C   UNL     1      45.857   4.626   8.355  0.00  0.00    +0.000 A 
ATOM     14  C   UNL     1      46.679   4.084   7.366  0.00  0.00    +0.000 A 
BRANCH   9  16
ATOM     15  N   UNL     1      48.283   1.719   5.352  0.00  0.00    +0.000 NA
ATOM     16  C   UNL     1      47.616   2.153   6.195  0.00  0.00    +0.000 C 
ENDBRANCH   9  16
ENDBRANCH   8  12
ENDBRANCH   2   8
ENDBRANCH   1   5
BRANCH   1  17
ATOM     17  N   UNL     1      47.889   5.857  15.315  0.00  0.00    +0.000 N 
ATOM     18  C   UNL     1      48.496   6.244  16.479  0.00  0.00    +0.000 C 
ATOM     19  O   UNL     1      48.434   5.564  17.501  0.00  0.00    +0.000 OA
ATOM     20  H   UNL     1      47.760   6.523  14.561  0.00  0.00    +0.000 HD
BRANCH  18  21
ATOM     21  C   UNL     1      49.298   7.474  16.422  0.00  0.00    +0.000 A 
ATOM     22  C   UNL     1      48.662   8.702  16.297  0.00  0.00    +0.000 A 
ATOM     23  S   UNL     1      49.728  10.033  16.324  0.00  0.00    +0.000 S 
ATOM     24  C   UNL     1      51.085   9.013  16.457  0.00  0.00    +0.000 A 
ATOM     25  N   UNL     1      52.341   9.527  16.517  0.00  0.00    +0.000 NA
ATOM     26  C   UNL     1      53.278   8.640  16.585  0.00  0.00    +0.000 A 
ATOM     27  N   UNL     1      53.070   7.286  16.597  0.00  0.00    +0.000 N 
ATOM     28  C   UNL     1      51.816   6.724  16.575  0.00  0.00    +0.000 A 
ATOM     29  O   UNL     1      51.664   5.508  16.645  0.00  0.00    +0.000 OA
ATOM     30  C   UNL     1      50.726   7.676  16.488  0.00  0.00    +0.000 A 
ATOM     31  H   UNL     1      53.845   6.644  16.661  0.00  0.00    +0.000 HD
ENDBRANCH  18  21
ENDBRANCH   1  17
TORSDOF 6
ENDMDL
MODEL 5
REMARK VINA RESULT:    -6.998      3.705      8.464
REMARK INTER + INTRA:         -10.380
REMARK INTER:                  -9.408
REMARK INTRA:                  -0.972
REMARK UNBOUND:                -0.928
REMARK  Name = 
REMARK  6 active torsions:
REMARK  status: ('A' for Active; 'I' for Inactive)
REMARK    1  A    between atoms: C_2  and  C_3
REMARK    2  A    between atoms: C_6  and  O_7
REMARK    3  A    between atoms: O_7  and  C_8
REMARK    4  A    between atoms: C_11  and  C_12
REMARK    5  A    between atoms: C_12  and  N_13
REMARK    6  A    between atoms: C_14  and  C_16
REMARK                            x       y       z     vdW  Elec       q    Type
REMARK                         _______ _______ _______ _____ _____    ______ ____
ROOT
ATOM      1  C   UNL     1      48.298   7.093  13.248  0.00  0.00    +0.000 C 
ENDROOT
BRANCH   1   5
ATOM      2  C   UNL     1      49.513   5.504  17.005  0.00  0.00    +0.000 A 
ATOM      3  C   UNL     1      48.245   5.187  16.531  0.00  0.00    +0.000 A 
ATOM      4  C   UNL     1      47.828   5.705  15.307  0.00  0.00    +0.000 A 
ATOM      5  C   UNL     1      48.681   6.557  14.604  0.00  0.00    +0.000 A 
ATOM      6  N   UNL     1      49.900   6.919  15.079  0.00  0.00    +0.000 NA
ATOM      7  C   UNL     1      50.276   6.405  16.271  0.00  0.00    +0.000 A 
BRANCH   2   8
ATOM      8  O   UNL     1      49.945   4.912  18.169  0.00  0.00    +0.000 OA
BRANCH   8  12
ATOM      9  C   UNL     1      52.497   1.629  17.767  0.00  0.00    +0.000 A 
ATOM     10  C   UNL     1      52.935   2.814  18.370  0.00  0.00    +0.000 A 
ATOM     11  C   UNL     1      52.059   3.896  18.511  0.00  0.00    +0.000 A 
ATOM     12  C   UNL     1      50.746   3.793  18.048  0.00  0.00    +0.000 A 
ATOM     13  C   UNL     1      50.292   2.585  17.507  0.00  0.00    +0.000 A 
ATOM     14  C   UNL     1      51.174   1.517  17.337  0.00  0.00    +0.000 A 
BRANCH   9  16
ATOM     15  N   UNL     1      54.127  -0.365  17.471  0.00  0.00    +0.000 NA
ATOM     16  C   UNL     1      53.394   0.524  17.590  0.00  0.00    +0.000 C 
ENDBRANCH   9  16
ENDBRANCH   8  12
ENDBRANCH   2   8
ENDBRANCH   1   5
BRANCH   1  17
ATOM     17  N   UNL     1      47.454   6.173  12.516  0.00  0.00    +0.000 N 
ATOM     18  C   UNL     1      46.388   6.583  11.763  0.00  0.00    +0.000 C 
ATOM     19  O   UNL     1      46.056   7.764  11.694  0.00  0.00    +0.000 OA
ATOM     20  H   UNL     1      47.575   5.190  12.739  0.00  0.00    +0.000 HD
BRANCH  18  21
ATOM     21  C   UNL     1      45.710   5.548  10.970  0.00  0.00    +0.000 A 
ATOM     22  C   UNL     1      45.780   5.590   9.584  0.00  0.00    +0.000 A 
ATOM     23  S   UNL     1      45.008   4.276   8.817  0.00  0.00    +0.000 S 
ATOM     24  C   UNL     1      44.510   3.628  10.310  0.00  0.00    +0.000 A 
ATOM     25  N   UNL     1      43.780   2.482  10.365  0.00  0.00    +0.000 NA
ATOM     26  C   UNL     1      43.444   2.121  11.558  0.00  0.00    +0.000 A 
ATOM     27  N   UNL     1      43.772   2.802  12.701  0.00  0.00    +0.000 N 
ATOM     28  C   UNL     1      44.539   3.942  12.696  0.00  0.00    +0.000 A 
ATOM     29  O   UNL     1      44.862   4.495  13.743  0.00  0.00    +0.000 OA
ATOM     30  C   UNL     1      44.935   4.400  11.378  0.00  0.00    +0.000 A 
ATOM     31  H   UNL     1      43.486   2.461  13.607  0.00  0.00    +0.000 HD
ENDBRANCH  18  21
ENDBRANCH   1  17
TORSDOF 6
ENDMDL
MODEL 6
REMARK VINA RESULT:    -6.489      3.839      8.757
REMARK INTER + INTRA:          -9.693
REMARK INTER:                  -9.095
REMARK INTRA:                  -0.599
REMARK UNBOUND:                -0.928
REMARK  Name = 
REMARK  6 active torsions:
REMARK  status: ('A' for Active; 'I' for Inactive)
REMARK    1  A    between atoms: C_2  and  C_3
REMARK    2  A    between atoms: C_6  and  O_7
REMARK    3  A    between atoms: O_7  and  C_8
REMARK    4  A    between atoms: C_11  and  C_12
REMARK    5  A    between atoms: C_12  and  N_13
REMARK    6  A    between atoms: C_14  and  C_16
REMARK                            x       y       z     vdW  Elec       q    Type
REMARK                         _______ _______ _______ _____ _____    ______ ____
ROOT
ATOM      1  C   UNL     1      47.150   3.400  16.804  0.00  0.00    +0.000 C 
ENDROOT
BRANCH   1   5
ATOM      2  C   UNL     1      51.158   4.151  18.023  0.00  0.00    +0.000 A 
ATOM      3  C   UNL     1      50.867   2.933  17.419  0.00  0.00    +0.000 A 
ATOM      4  C   UNL     1      49.558   2.667  17.021  0.00  0.00    +0.000 A 
ATOM      5  C   UNL     1      48.567   3.616  17.270  0.00  0.00    +0.000 A 
ATOM      6  N   UNL     1      48.825   4.787  17.909  0.00  0.00    +0.000 NA
ATOM      7  C   UNL     1      50.103   5.015  18.286  0.00  0.00    +0.000 A 
BRANCH   2   8
ATOM      8  O   UNL     1      52.469   4.435  18.325  0.00  0.00    +0.000 OA
BRANCH   8  12
ATOM      9  C   UNL     1      54.529   6.577  15.388  0.00  0.00    +0.000 A 
ATOM     10  C   UNL     1      53.230   6.937  15.767  0.00  0.00    +0.000 A 
ATOM     11  C   UNL     1      52.564   6.218  16.767  0.00  0.00    +0.000 A 
ATOM     12  C   UNL     1      53.196   5.138  17.384  0.00  0.00    +0.000 A 
ATOM     13  C   UNL     1      54.519   4.822  17.051  0.00  0.00    +0.000 A 
ATOM     14  C   UNL     1      55.171   5.519  16.033  0.00  0.00    +0.000 A 
BRANCH   9  16
ATOM     15  N   UNL     1      55.775   7.871  13.519  0.00  0.00    +0.000 NA
ATOM     16  C   UNL     1      55.209   7.288  14.346  0.00  0.00    +0.000 C 
ENDBRANCH   9  16
ENDBRANCH   8  12
ENDBRANCH   2   8
ENDBRANCH   1   5
BRANCH   1  17
ATOM     17  N   UNL     1      46.742   4.383  15.824  0.00  0.00    +0.000 N 
ATOM     18  C   UNL     1      46.762   4.141  14.477  0.00  0.00    +0.000 C 
ATOM     19  O   UNL     1      47.169   3.078  14.014  0.00  0.00    +0.000 OA
ATOM     20  H   UNL     1      46.619   5.329  16.171  0.00  0.00    +0.000 HD
BRANCH  18  21
ATOM     21  C   UNL     1      46.191   5.186  13.616  0.00  0.00    +0.000 A 
ATOM     22  C   UNL     1      46.918   6.343  13.369  0.00  0.00    +0.000 A 
ATOM     23  S   UNL     1      46.151   7.418  12.290  0.00  0.00    +0.000 S 
ATOM     24  C   UNL     1      44.797   6.397  12.149  0.00  0.00    +0.000 A 
ATOM     25  N   UNL     1      43.742   6.740  11.363  0.00  0.00    +0.000 NA
ATOM     26  C   UNL     1      42.770   5.889  11.373  0.00  0.00    +0.000 A 
ATOM     27  N   UNL     1      42.759   4.726  12.099  0.00  0.00    +0.000 N 
ATOM     28  C   UNL     1      43.818   4.322  12.876  0.00  0.00    +0.000 A 
ATOM     29  O   UNL     1      43.797   3.247  13.467  0.00  0.00    +0.000 OA
ATOM     30  C   UNL     1      44.933   5.247  12.909  0.00  0.00    +0.000 A 
ATOM     31  H   UNL     1      41.972   4.097  12.056  0.00  0.00    +0.000 HD
ENDBRANCH  18  21
ENDBRANCH   1  17
TORSDOF 6
ENDMDL
MODEL 7
REMARK VINA RESULT:    -6.369      3.833      5.795
REMARK INTER + INTRA:          -9.531
REMARK INTER:                  -8.789
REMARK INTRA:                  -0.743
REMARK UNBOUND:                -0.928
REMARK  Name = 
REMARK  6 active torsions:
REMARK  status: ('A' for Active; 'I' for Inactive)
REMARK    1  A    between atoms: C_2  and  C_3
REMARK    2  A    between atoms: C_6  and  O_7
REMARK    3  A    between atoms: O_7  and  C_8
REMARK    4  A    between atoms: C_11  and  C_12
REMARK    5  A    between atoms: C_12  and  N_13
REMARK    6  A    between atoms: C_14  and  C_16
REMARK                            x       y       z     vdW  Elec       q    Type
REMARK                         _______ _______ _______ _____ _____    ______ ____
ROOT
ATOM      1  C   UNL     1      47.522   3.494  17.141  0.00  0.00    +0.000 C 
ENDROOT
BRANCH   1   5
ATOM      2  C   UNL     1      47.533   5.781  13.551  0.00  0.00    +0.000 A 
ATOM      3  C   UNL     1      48.208   6.283  14.659  0.00  0.00    +0.000 A 
ATOM      4  C   UNL     1      48.208   5.551  15.844  0.00  0.00    +0.000 A 
ATOM      5  C   UNL     1      47.501   4.350  15.900  0.00  0.00    +0.000 A 
ATOM      6  N   UNL     1      46.792   3.873  14.845  0.00  0.00    +0.000 NA
ATOM      7  C   UNL     1      46.808   4.607  13.710  0.00  0.00    +0.000 A 
BRANCH   2   8
ATOM      8  O   UNL     1      47.620   6.468  12.364  0.00  0.00    +0.000 OA
BRANCH   8  12
ATOM      9  C   UNL     1      44.795   9.444  11.576  0.00  0.00    +0.000 A 
ATOM     10  C   UNL     1      44.504   8.093  11.350  0.00  0.00    +0.000 A 
ATOM     11  C   UNL     1      45.457   7.110  11.638  0.00  0.00    +0.000 A 
ATOM     12  C   UNL     1      46.703   7.478  12.149  0.00  0.00    +0.000 A 
ATOM     13  C   UNL     1      46.967   8.823  12.437  0.00  0.00    +0.000 A 
ATOM     14  C   UNL     1      46.028   9.805  12.121  0.00  0.00    +0.000 A 
BRANCH   9  16
ATOM     15  N   UNL     1      43.047  11.274  11.018  0.00  0.00    +0.000 NA
ATOM     16  C   UNL     1      43.836  10.461  11.258  0.00  0.00    +0.000 C 
ENDBRANCH   9  16
ENDBRANCH   8  12
ENDBRANCH   2   8
ENDBRANCH   1   5
BRANCH   1  17
ATOM     17  N   UNL     1      48.869   3.215  17.589  0.00  0.00    +0.000 N 
ATOM     18  C   UNL     1      49.709   2.359  16.930  0.00  0.00    +0.000 C 
ATOM     19  O   UNL     1      49.352   1.739  15.931  0.00  0.00    +0.000 OA
ATOM     20  H   UNL     1      49.101   3.539  18.523  0.00  0.00    +0.000 HD
BRANCH  18  21
ATOM     21  C   UNL     1      51.090   2.283  17.428  0.00  0.00    +0.000 A 
ATOM     22  C   UNL     1      51.741   1.057  17.456  0.00  0.00    +0.000 A 
ATOM     23  S   UNL     1      53.359   1.152  17.987  0.00  0.00    +0.000 S 
ATOM     24  C   UNL     1      53.234   2.830  18.244  0.00  0.00    +0.000 A 
ATOM     25  N   UNL     1      54.289   3.545  18.715  0.00  0.00    +0.000 NA
ATOM     26  C   UNL     1      54.046   4.801  18.892  0.00  0.00    +0.000 A 
ATOM     27  N   UNL     1      52.842   5.406  18.640  0.00  0.00    +0.000 N 
ATOM     28  C   UNL     1      51.761   4.730  18.128  0.00  0.00    +0.000 A 
ATOM     29  O   UNL     1      50.715   5.314  17.861  0.00  0.00    +0.000 OA
ATOM     30  C   UNL     1      51.976   3.311  17.920  0.00  0.00    +0.000 A 
ATOM     31  H   UNL     1      52.719   6.395  18.791  0.00  0.00    +0.000 HD
ENDBRANCH  18  21
ENDBRANCH   1  17
TORSDOF 6
ENDMDL
MODEL 8
REMARK VINA RESULT:    -6.153      2.630      3.496
REMARK INTER + INTRA:          -9.239
REMARK INTER:                  -7.887
REMARK INTRA:                  -1.353
REMARK UNBOUND:                -0.928
REMARK  Name = 
REMARK  6 active torsions:
REMARK  status: ('A' for Active; 'I' for Inactive)
REMARK    1  A    between atoms: C_2  and  C_3
REMARK    2  A    between atoms: C_6  and  O_7
REMARK    3  A    between atoms: O_7  and  C_8
REMARK    4  A    between atoms: C_11  and  C_12
REMARK    5  A    between atoms: C_12  and  N_13
REMARK    6  A    between atoms: C_14  and  C_16
REMARK                            x       y       z     vdW  Elec       q    Type
REMARK                         _______ _______ _______ _____ _____    ______ ____
ROOT
ATOM      1  C   UNL     1      50.450   8.338  14.570  0.00  0.00    +0.000 C 
ENDROOT
BRANCH   1   5
ATOM      2  C   UNL     1      46.967   8.141  12.132  0.00  0.00    +0.000 A 
ATOM      3  C   UNL     1      48.054   7.342  11.799  0.00  0.00    +0.000 A 
ATOM      4  C   UNL     1      49.206   7.400  12.581  0.00  0.00    +0.000 A 
ATOM      5  C   UNL     1      49.251   8.284  13.659  0.00  0.00    +0.000 A 
ATOM      6  N   UNL     1      48.217   9.110  13.965  0.00  0.00    +0.000 NA
ATOM      7  C   UNL     1      47.115   9.035  13.186  0.00  0.00    +0.000 A 
BRANCH   2   8
ATOM      8  O   UNL     1      45.806   8.005  11.408  0.00  0.00    +0.000 OA
BRANCH   8  12
ATOM      9  C   UNL     1      44.013   4.235  11.577  0.00  0.00    +0.000 A 
ATOM     10  C   UNL     1      43.852   5.159  12.617  0.00  0.00    +0.000 A 
ATOM     11  C   UNL     1      44.446   6.424  12.533  0.00  0.00    +0.000 A 
ATOM     12  C   UNL     1      45.202   6.763  11.410  0.00  0.00    +0.000 A 
ATOM     13  C   UNL     1      45.306   5.862  10.343  0.00  0.00    +0.000 A 
ATOM     14  C   UNL     1      44.740   4.591  10.440  0.00  0.00    +0.000 A 
BRANCH   9  16
ATOM     15  N   UNL     1      42.973   1.868  11.762  0.00  0.00    +0.000 NA
ATOM     16  C   UNL     1      43.433   2.927  11.667  0.00  0.00    +0.000 C 
ENDBRANCH   9  16
ENDBRANCH   8  12
ENDBRANCH   2   8
ENDBRANCH   1   5
BRANCH   1  17
ATOM     17  N   UNL     1      50.390   7.336  15.612  0.00  0.00    +0.000 N 
ATOM     18  C   UNL     1      49.851   7.580  16.846  0.00  0.00    +0.000 C 
ATOM     19  O   UNL     1      49.420   8.687  17.159  0.00  0.00    +0.000 OA
ATOM     20  H   UNL     1      50.937   6.496  15.450  0.00  0.00    +0.000 HD
BRANCH  18  21
ATOM     21  C   UNL     1      49.738   6.428  17.751  0.00  0.00    +0.000 A 
ATOM     22  C   UNL     1      50.383   6.455  18.980  0.00  0.00    +0.000 A 
ATOM     23  S   UNL     1      50.088   5.077  19.941  0.00  0.00    +0.000 S 
ATOM     24  C   UNL     1      49.124   4.371  18.729  0.00  0.00    +0.000 A 
ATOM     25  N   UNL     1      48.555   3.151  18.912  0.00  0.00    +0.000 NA
ATOM     26  C   UNL     1      47.876   2.721  17.900  0.00  0.00    +0.000 A 
ATOM     27  N   UNL     1      47.715   3.404  16.723  0.00  0.00    +0.000 N 
ATOM     28  C   UNL     1      48.240   4.656  16.509  0.00  0.00    +0.000 A 
ATOM     29  O   UNL     1      48.028   5.262  15.463  0.00  0.00    +0.000 OA
ATOM     30  C   UNL     1      49.023   5.181  17.610  0.00  0.00    +0.000 A 
ATOM     31  H   UNL     1      47.163   3.017  15.972  0.00  0.00    +0.000 HD
ENDBRANCH  18  21
ENDBRANCH   1  17
TORSDOF 6
ENDMDL
MODEL 9
REMARK VINA RESULT:    -6.111      3.027      4.312
REMARK INTER + INTRA:          -9.182
REMARK INTER:                  -8.265
REMARK INTRA:                  -0.916
REMARK UNBOUND:                -0.928
REMARK  Name = 
REMARK  6 active torsions:
REMARK  status: ('A' for Active; 'I' for Inactive)
REMARK    1  A    between atoms: C_2  and  C_3
REMARK    2  A    between atoms: C_6  and  O_7
REMARK    3  A    between atoms: O_7  and  C_8
REMARK    4  A    between atoms: C_11  and  C_12
REMARK    5  A    between atoms: C_12  and  N_13
REMARK    6  A    between atoms: C_14  and  C_16
REMARK                            x       y       z     vdW  Elec       q    Type
REMARK                         _______ _______ _______ _____ _____    ______ ____
ROOT
ATOM      1  C   UNL     1      49.486   7.793  17.083  0.00  0.00    +0.000 C 
ENDROOT
BRANCH   1   5
ATOM      2  C   UNL     1      47.503   7.774  13.317  0.00  0.00    +0.000 A 
ATOM      3  C   UNL     1      48.174   6.624  13.718  0.00  0.00    +0.000 A 
ATOM      4  C   UNL     1      48.835   6.615  14.944  0.00  0.00    +0.000 A 
ATOM      5  C   UNL     1      48.836   7.773  15.723  0.00  0.00    +0.000 A 
ATOM      6  N   UNL     1      48.232   8.920  15.322  0.00  0.00    +0.000 NA
ATOM      7  C   UNL     1      47.602   8.900  14.126  0.00  0.00    +0.000 A 
BRANCH   2   8
ATOM      8  O   UNL     1      46.778   7.737  12.150  0.00  0.00    +0.000 OA
BRANCH   8  12
ATOM      9  C   UNL     1      44.362   4.361  11.680  0.00  0.00    +0.000 A 
ATOM     10  C   UNL     1      44.302   5.135  12.845  0.00  0.00    +0.000 A 
ATOM     11  C   UNL     1      45.106   6.273  12.975  0.00  0.00    +0.000 A 
ATOM     12  C   UNL     1      45.972   6.635  11.941  0.00  0.00    +0.000 A 
ATOM     13  C   UNL     1      45.980   5.897  10.751  0.00  0.00    +0.000 A 
ATOM     14  C   UNL     1      45.202   4.745  10.634  0.00  0.00    +0.000 A 
BRANCH   9  16
ATOM     15  N   UNL     1      42.907   2.226  11.462  0.00  0.00    +0.000 NA
ATOM     16  C   UNL     1      43.563   3.177  11.548  0.00  0.00    +0.000 C 
ENDBRANCH   9  16
ENDBRANCH   8  12
ENDBRANCH   2   8
ENDBRANCH   1   5
BRANCH   1  17
ATOM     17  N   UNL     1      50.454   6.728  17.241  0.00  0.00    +0.000 N 
ATOM     18  C   UNL     1      50.816   6.230  18.463  0.00  0.00    +0.000 C 
ATOM     19  O   UNL     1      50.368   6.689  19.511  0.00  0.00    +0.000 OA
ATOM     20  H   UNL     1      50.993   6.495  16.414  0.00  0.00    +0.000 HD
BRANCH  18  21
ATOM     21  C   UNL     1      51.707   5.061  18.456  0.00  0.00    +0.000 A 
ATOM     22  C   UNL     1      52.989   5.173  18.978  0.00  0.00    +0.000 A 
ATOM     23  S   UNL     1      53.864   3.709  18.965  0.00  0.00    +0.000 S 
ATOM     24  C   UNL     1      52.578   2.883  18.218  0.00  0.00    +0.000 A 
ATOM     25  N   UNL     1      52.681   1.562  17.911  0.00  0.00    +0.000 NA
ATOM     26  C   UNL     1      51.643   1.070  17.319  0.00  0.00    +0.000 A 
ATOM     27  N   UNL     1      50.513   1.780  17.007  0.00  0.00    +0.000 N 
ATOM     28  C   UNL     1      50.351   3.105  17.332  0.00  0.00    +0.000 A 
ATOM     29  O   UNL     1      49.303   3.695  17.089  0.00  0.00    +0.000 OA
ATOM     30  C   UNL     1      51.493   3.712  17.989  0.00  0.00    +0.000 A 
ATOM     31  H   UNL     1      49.732   1.334  16.552  0.00  0.00    +0.000 HD
ENDBRANCH  18  21
ENDBRANCH   1  17
TORSDOF 6
ENDMDL
