MODEL 1
REMARK VINA RESULT:    -7.569      0.000      0.000
REMARK INTER + INTRA:         -11.354
REMARK INTER:                 -10.446
REMARK INTRA:                  -0.908
REMARK UNBOUND:                -0.908
REMARK  Name = 
REMARK  7 active torsions:
REMARK  status: ('A' for Active; 'I' for Inactive)
REMARK    1  A    between atoms: N_1  and  C_2
REMARK    2  A    between atoms: C_2  and  C_3
REMARK    3  A    between atoms: C_6  and  O_7
REMARK    4  A    between atoms: O_7  and  C_8
REMARK    5  A    between atoms: C_8  and  C_9
REMARK    6  A    between atoms: C_12  and  O_13
REMARK    7  A    between atoms: O_13  and  C_14
REMARK                            x       y       z     vdW  Elec       q    Type
REMARK                         _______ _______ _______ _____ _____    ______ ____
ROOT
ATOM      1  C   UNL     1      43.570   3.943  11.346  0.00  0.00    +0.000 C 
ENDROOT
BRANCH   1   2
ATOM      2  C   UNL     1      44.769   4.224  12.216  0.00  0.00    +0.000 A 
ATOM      3  C   UNL     1      44.951   5.523  12.707  0.00  0.00    +0.000 A 
ATOM      4  C   UNL     1      46.007   5.822  13.557  0.00  0.00    +0.000 A 
ATOM      5  C   UNL     1      46.877   4.819  13.985  0.00  0.00    +0.000 A 
ATOM      6  C   UNL     1      46.715   3.525  13.484  0.00  0.00    +0.000 A 
ATOM      7  C   UNL     1      45.663   3.225  12.617  0.00  0.00    +0.000 A 
BRANCH   5   8
ATOM      8  O   UNL     1      47.922   4.990  14.843  0.00  0.00    +0.000 OA
BRANCH   8   9
ATOM      9  C   UNL     1      47.849   4.396  16.124  0.00  0.00    +0.000 C 
ATOM     10  F   UNL     1      48.310   3.133  16.198  0.00  0.00    +0.000 F 
ATOM     11  F   UNL     1      48.580   5.139  16.987  0.00  0.00    +0.000 F 
ATOM     12  F   UNL     1      46.563   4.409  16.546  0.00  0.00    +0.000 F 
ENDBRANCH   8   9
ENDBRANCH   5   8
ENDBRANCH   1   2
BRANCH   1  13
ATOM     13  O   UNL     1      43.766   4.401  10.010  0.00  0.00    +0.000 OA
BRANCH  13  17
ATOM     14  C   UNL     1      46.496   2.323   7.610  0.00  0.00    +0.000 A 
ATOM     15  C   UNL     1      45.659   1.601   8.468  0.00  0.00    +0.000 A 
ATOM     16  C   UNL     1      44.732   2.255   9.283  0.00  0.00    +0.000 A 
ATOM     17  C   UNL     1      44.623   3.648   9.250  0.00  0.00    +0.000 A 
ATOM     18  C   UNL     1      45.442   4.372   8.385  0.00  0.00    +0.000 A 
ATOM     19  C   UNL     1      46.374   3.718   7.570  0.00  0.00    +0.000 A 
BRANCH  14  20
ATOM     20  C   UNL     1      47.524   1.608   6.771  0.00  0.00    +0.000 C 
BRANCH  20  21
ATOM     21  N   UNL     1      48.632   2.485   6.417  0.00  0.00    +0.000 NA
ATOM     22  H   UNL     1      48.395   3.001   5.574  0.00  0.00    +0.000 HD
ATOM     23  H   UNL     1      49.445   1.912   6.191  0.00  0.00    +0.000 HD
ENDBRANCH  20  21
ENDBRANCH  14  20
ENDBRANCH  13  17
ENDBRANCH   1  13
TORSDOF 7
ENDMDL
MODEL 2
REMARK VINA RESULT:    -7.509      1.624      1.886
REMARK INTER + INTRA:         -11.271
REMARK INTER:                 -10.297
REMARK INTRA:                  -0.974
REMARK UNBOUND:                -0.908
REMARK  Name = 
REMARK  7 active torsions:
REMARK  status: ('A' for Active; 'I' for Inactive)
REMARK    1  A    between atoms: N_1  and  C_2
REMARK    2  A    between atoms: C_2  and  C_3
REMARK    3  A    between atoms: C_6  and  O_7
REMARK    4  A    between atoms: O_7  and  C_8
REMARK    5  A    between atoms: C_8  and  C_9
REMARK    6  A    between atoms: C_12  and  O_13
REMARK    7  A    between atoms: O_13  and  C_14
REMARK                            x       y       z     vdW  Elec       q    Type
REMARK                         _______ _______ _______ _____ _____    ______ ____
ROOT
ATOM      1  C   UNL     1      43.494   3.913  11.286  0.00  0.00    +0.000 C 
ENDROOT
BRANCH   1   2
ATOM      2  C   UNL     1      44.697   4.378  12.067  0.00  0.00    +0.000 A 
ATOM      3  C   UNL     1      44.834   5.746  12.334  0.00  0.00    +0.000 A 
ATOM      4  C   UNL     1      45.894   6.221  13.096  0.00  0.00    +0.000 A 
ATOM      5  C   UNL     1      46.813   5.335  13.659  0.00  0.00    +0.000 A 
ATOM      6  C   UNL     1      46.696   3.971  13.380  0.00  0.00    +0.000 A 
ATOM      7  C   UNL     1      45.640   3.494  12.602  0.00  0.00    +0.000 A 
BRANCH   5   8
ATOM      8  O   UNL     1      47.867   5.684  14.449  0.00  0.00    +0.000 OA
BRANCH   8   9
ATOM      9  C   UNL     1      48.700   6.749  14.033  0.00  0.00    +0.000 C 
ATOM     10  F   UNL     1      48.147   7.974  14.111  0.00  0.00    +0.000 F 
ATOM     11  F   UNL     1      49.807   6.761  14.811  0.00  0.00    +0.000 F 
ATOM     12  F   UNL     1      49.088   6.534  12.755  0.00  0.00    +0.000 F 
ENDBRANCH   8   9
ENDBRANCH   5   8
ENDBRANCH   1   2
BRANCH   1  13
ATOM     13  O   UNL     1      43.597   4.249   9.905  0.00  0.00    +0.000 OA
BRANCH  13  17
ATOM     14  C   UNL     1      46.527   2.283   7.653  0.00  0.00    +0.000 A 
ATOM     15  C   UNL     1      45.690   1.529   8.483  0.00  0.00    +0.000 A 
ATOM     16  C   UNL     1      44.697   2.145   9.247  0.00  0.00    +0.000 A 
ATOM     17  C   UNL     1      44.522   3.530   9.192  0.00  0.00    +0.000 A 
ATOM     18  C   UNL     1      45.342   4.286   8.354  0.00  0.00    +0.000 A 
ATOM     19  C   UNL     1      46.340   3.670   7.589  0.00  0.00    +0.000 A 
BRANCH  14  20
ATOM     20  C   UNL     1      47.625   1.611   6.868  0.00  0.00    +0.000 C 
BRANCH  20  21
ATOM     21  N   UNL     1      48.600   2.574   6.374  0.00  0.00    +0.000 NA
ATOM     22  H   UNL     1      48.838   2.347   5.413  0.00  0.00    +0.000 HD
ATOM     23  H   UNL     1      49.457   2.482   6.919  0.00  0.00    +0.000 HD
ENDBRANCH  20  21
ENDBRANCH  14  20
ENDBRANCH  13  17
ENDBRANCH   1  13
TORSDOF 7
ENDMDL
MODEL 3
REMARK VINA RESULT:    -7.411      2.395      3.049
REMARK INTER + INTRA:         -11.136
REMARK INTER:                  -9.930
REMARK INTRA:                  -1.206
REMARK UNBOUND:                -0.908
REMARK  Name = 
REMARK  7 active torsions:
REMARK  status: ('A' for Active; 'I' for Inactive)
REMARK    1  A    between atoms: N_1  and  C_2
REMARK    2  A    between atoms: C_2  and  C_3
REMARK    3  A    between atoms: C_6  and  O_7
REMARK    4  A    between atoms: O_7  and  C_8
REMARK    5  A    between atoms: C_8  and  C_9
REMARK    6  A    between atoms: C_12  and  O_13
REMARK    7  A    between atoms: O_13  and  C_14
REMARK                            x       y       z     vdW  Elec       q    Type
REMARK                         _______ _______ _______ _____ _____    ______ ____
ROOT
ATOM      1  C   UNL     1      43.734   3.623  11.451  0.00  0.00    +0.000 C 
ENDROOT
BRANCH   1   2
ATOM      2  C   UNL     1      44.665   4.673  12.003  0.00  0.00    +0.000 A 
ATOM      3  C   UNL     1      45.800   4.257  12.709  0.00  0.00    +0.000 A 
ATOM      4  C   UNL     1      46.719   5.180  13.191  0.00  0.00    +0.000 A 
ATOM      5  C   UNL     1      46.558   6.541  12.928  0.00  0.00    +0.000 A 
ATOM      6  C   UNL     1      45.417   6.967  12.242  0.00  0.00    +0.000 A 
ATOM      7  C   UNL     1      44.485   6.041  11.772  0.00  0.00    +0.000 A 
BRANCH   5   8
ATOM      8  O   UNL     1      47.411   7.529  13.319  0.00  0.00    +0.000 OA
BRANCH   8   9
ATOM      9  C   UNL     1      48.591   7.739  12.567  0.00  0.00    +0.000 C 
ATOM     10  F   UNL     1      48.513   7.390  11.269  0.00  0.00    +0.000 F 
ATOM     11  F   UNL     1      48.900   9.056  12.608  0.00  0.00    +0.000 F 
ATOM     12  F   UNL     1      49.607   7.052  13.137  0.00  0.00    +0.000 F 
ENDBRANCH   8   9
ENDBRANCH   5   8
ENDBRANCH   1   2
BRANCH   1  13
ATOM     13  O   UNL     1      43.492   3.809  10.059  0.00  0.00    +0.000 OA
BRANCH  13  17
ATOM     14  C   UNL     1      46.506   2.296   7.579  0.00  0.00    +0.000 A 
ATOM     15  C   UNL     1      46.221   3.665   7.542  0.00  0.00    +0.000 A 
ATOM     16  C   UNL     1      45.226   4.211   8.356  0.00  0.00    +0.000 A 
ATOM     17  C   UNL     1      44.499   3.394   9.226  0.00  0.00    +0.000 A 
ATOM     18  C   UNL     1      44.789   2.031   9.280  0.00  0.00    +0.000 A 
ATOM     19  C   UNL     1      45.784   1.482   8.462  0.00  0.00    +0.000 A 
BRANCH  14  20
ATOM     20  C   UNL     1      47.550   1.712   6.662  0.00  0.00    +0.000 C 
BRANCH  20  21
ATOM     21  N   UNL     1      48.628   2.658   6.405  0.00  0.00    +0.000 NA
ATOM     22  H   UNL     1      49.048   2.936   7.288  0.00  0.00    +0.000 HD
ATOM     23  H   UNL     1      48.233   3.501   5.989  0.00  0.00    +0.000 HD
ENDBRANCH  20  21
ENDBRANCH  14  20
ENDBRANCH  13  17
ENDBRANCH   1  13
TORSDOF 7
ENDMDL
MODEL 4
REMARK VINA RESULT:    -7.077      4.678      7.117
REMARK INTER + INTRA:         -10.675
REMARK INTER:                 -10.269
REMARK INTRA:                  -0.406
REMARK UNBOUND:                -0.908
REMARK  Name = 
REMARK  7 active torsions:
REMARK  status: ('A' for Active; 'I' for Inactive)
REMARK    1  A    between atoms: N_1  and  C_2
REMARK    2  A    between atoms: C_2  and  C_3
REMARK    3  A    between atoms: C_6  and  O_7
REMARK    4  A    between atoms: O_7  and  C_8
REMARK    5  A    between atoms: C_8  and  C_9
REMARK    6  A    between atoms: C_12  and  O_13
REMARK    7  A    between atoms: O_13  and  C_14
REMARK                            x       y       z     vdW  Elec       q    Type
REMARK                         _______ _______ _______ _____ _____    ______ ____
ROOT
ATOM      1  C   UNL     1      43.406   3.141  11.467  0.00  0.00    +0.000 C 
ENDROOT
BRANCH   1   2
ATOM      2  C   UNL     1      44.258   3.203  10.225  0.00  0.00    +0.000 A 
ATOM      3  C   UNL     1      44.693   2.002   9.651  0.00  0.00    +0.000 A 
ATOM      4  C   UNL     1      45.433   2.000   8.476  0.00  0.00    +0.000 A 
ATOM      5  C   UNL     1      45.710   3.196   7.812  0.00  0.00    +0.000 A 
ATOM      6  C   UNL     1      45.298   4.401   8.390  0.00  0.00    +0.000 A 
ATOM      7  C   UNL     1      44.567   4.405   9.578  0.00  0.00    +0.000 A 
BRANCH   5   8
ATOM      8  O   UNL     1      46.395   3.311   6.640  0.00  0.00    +0.000 OA
BRANCH   8   9
ATOM      9  C   UNL     1      47.321   2.299   6.297  0.00  0.00    +0.000 C 
ATOM     10  F   UNL     1      46.827   1.046   6.290  0.00  0.00    +0.000 F 
ATOM     11  F   UNL     1      47.792   2.548   5.053  0.00  0.00    +0.000 F 
ATOM     12  F   UNL     1      48.365   2.344   7.157  0.00  0.00    +0.000 F 
ENDBRANCH   8   9
ENDBRANCH   5   8
ENDBRANCH   1   2
BRANCH   1  13
ATOM     13  O   UNL     1      44.194   3.195  12.654  0.00  0.00    +0.000 OA
BRANCH  13  17
ATOM     14  C   UNL     1      46.559   6.600  13.236  0.00  0.00    +0.000 A 
ATOM     15  C   UNL     1      45.202   6.759  12.935  0.00  0.00    +0.000 A 
ATOM     16  C   UNL     1      44.377   5.650  12.737  0.00  0.00    +0.000 A 
ATOM     17  C   UNL     1      44.897   4.357  12.841  0.00  0.00    +0.000 A 
ATOM     18  C   UNL     1      46.245   4.191  13.157  0.00  0.00    +0.000 A 
ATOM     19  C   UNL     1      47.074   5.302  13.352  0.00  0.00    +0.000 A 
BRANCH  14  20
ATOM     20  C   UNL     1      47.448   7.806  13.401  0.00  0.00    +0.000 C 
BRANCH  20  21
ATOM     21  N   UNL     1      46.789   8.859  14.163  0.00  0.00    +0.000 NA
ATOM     22  H   UNL     1      46.482   9.590  13.527  0.00  0.00    +0.000 HD
ATOM     23  H   UNL     1      47.470   9.284  14.792  0.00  0.00    +0.000 HD
ENDBRANCH  20  21
ENDBRANCH  14  20
ENDBRANCH  13  17
ENDBRANCH   1  13
TORSDOF 7
ENDMDL
MODEL 5
REMARK VINA RESULT:    -6.779      4.501      6.815
REMARK INTER + INTRA:         -10.263
REMARK INTER:                  -9.563
REMARK INTRA:                  -0.700
REMARK UNBOUND:                -0.908
REMARK  Name = 
REMARK  7 active torsions:
REMARK  status: ('A' for Active; 'I' for Inactive)
REMARK    1  A    between atoms: N_1  and  C_2
REMARK    2  A    between atoms: C_2  and  C_3
REMARK    3  A    between atoms: C_6  and  O_7
REMARK    4  A    between atoms: O_7  and  C_8
REMARK    5  A    between atoms: C_8  and  C_9
REMARK    6  A    between atoms: C_12  and  O_13
REMARK    7  A    between atoms: O_13  and  C_14
REMARK                            x       y       z     vdW  Elec       q    Type
REMARK                         _______ _______ _______ _____ _____    ______ ____
ROOT
ATOM      1  C   UNL     1      43.315   4.988  11.085  0.00  0.00    +0.000 C 
ENDROOT
BRANCH   1   2
ATOM      2  C   UNL     1      44.112   4.138  10.129  0.00  0.00    +0.000 A 
ATOM      3  C   UNL     1      44.967   4.773   9.220  0.00  0.00    +0.000 A 
ATOM      4  C   UNL     1      45.764   4.035   8.355  0.00  0.00    +0.000 A 
ATOM      5  C   UNL     1      45.771   2.641   8.415  0.00  0.00    +0.000 A 
ATOM      6  C   UNL     1      44.905   1.998   9.305  0.00  0.00    +0.000 A 
ATOM      7  C   UNL     1      44.092   2.739  10.163  0.00  0.00    +0.000 A 
BRANCH   5   8
ATOM      8  O   UNL     1      46.536   1.819   7.643  0.00  0.00    +0.000 OA
BRANCH   8   9
ATOM      9  C   UNL     1      47.231   2.378   6.545  0.00  0.00    +0.000 C 
ATOM     10  F   UNL     1      46.508   3.208   5.771  0.00  0.00    +0.000 F 
ATOM     11  F   UNL     1      48.284   3.086   7.015  0.00  0.00    +0.000 F 
ATOM     12  F   UNL     1      47.711   1.377   5.771  0.00  0.00    +0.000 F 
ENDBRANCH   8   9
ENDBRANCH   5   8
ENDBRANCH   1   2
BRANCH   1  13
ATOM     13  O   UNL     1      43.731   4.800  12.435  0.00  0.00    +0.000 OA
BRANCH  13  17
ATOM     14  C   UNL     1      47.326   6.722  13.385  0.00  0.00    +0.000 A 
ATOM     15  C   UNL     1      47.220   5.342  13.589  0.00  0.00    +0.000 A 
ATOM     16  C   UNL     1      46.040   4.662  13.282  0.00  0.00    +0.000 A 
ATOM     17  C   UNL     1      44.943   5.352  12.760  0.00  0.00    +0.000 A 
ATOM     18  C   UNL     1      45.047   6.725  12.538  0.00  0.00    +0.000 A 
ATOM     19  C   UNL     1      46.229   7.409  12.849  0.00  0.00    +0.000 A 
BRANCH  14  20
ATOM     20  C   UNL     1      48.589   7.452  13.765  0.00  0.00    +0.000 C 
BRANCH  20  21
ATOM     21  N   UNL     1      49.760   6.865  13.127  0.00  0.00    +0.000 NA
ATOM     22  H   UNL     1      50.083   6.076  13.680  0.00  0.00    +0.000 HD
ATOM     23  H   UNL     1      50.514   7.553  13.129  0.00  0.00    +0.000 HD
ENDBRANCH  20  21
ENDBRANCH  14  20
ENDBRANCH  13  17
ENDBRANCH   1  13
TORSDOF 7
ENDMDL
MODEL 6
REMARK VINA RESULT:    -6.372      4.677      7.474
REMARK INTER + INTRA:          -9.702
REMARK INTER:                  -8.980
REMARK INTRA:                  -0.722
REMARK UNBOUND:                -0.908
REMARK  Name = 
REMARK  7 active torsions:
REMARK  status: ('A' for Active; 'I' for Inactive)
REMARK    1  A    between atoms: N_1  and  C_2
REMARK    2  A    between atoms: C_2  and  C_3
REMARK    3  A    between atoms: C_6  and  O_7
REMARK    4  A    between atoms: O_7  and  C_8
REMARK    5  A    between atoms: C_8  and  C_9
REMARK    6  A    between atoms: C_12  and  O_13
REMARK    7  A    between atoms: O_13  and  C_14
REMARK                            x       y       z     vdW  Elec       q    Type
REMARK                         _______ _______ _______ _____ _____    ______ ____
ROOT
ATOM      1  C   UNL     1      44.948   4.693  12.962  0.00  0.00    +0.000 C 
ENDROOT
BRANCH   1   2
ATOM      2  C   UNL     1      44.972   4.456  11.474  0.00  0.00    +0.000 A 
ATOM      3  C   UNL     1      45.582   5.411  10.652  0.00  0.00    +0.000 A 
ATOM      4  C   UNL     1      45.680   5.215   9.281  0.00  0.00    +0.000 A 
ATOM      5  C   UNL     1      45.220   4.032   8.701  0.00  0.00    +0.000 A 
ATOM      6  C   UNL     1      44.590   3.083   9.510  0.00  0.00    +0.000 A 
ATOM      7  C   UNL     1      44.478   3.285  10.886  0.00  0.00    +0.000 A 
BRANCH   5   8
ATOM      8  O   UNL     1      45.296   3.718   7.377  0.00  0.00    +0.000 OA
BRANCH   8   9
ATOM      9  C   UNL     1      46.413   2.980   6.920  0.00  0.00    +0.000 C 
ATOM     10  F   UNL     1      46.484   1.712   7.366  0.00  0.00    +0.000 F 
ATOM     11  F   UNL     1      46.371   2.926   5.569  0.00  0.00    +0.000 F 
ATOM     12  F   UNL     1      47.546   3.626   7.280  0.00  0.00    +0.000 F 
ENDBRANCH   8   9
ENDBRANCH   5   8
ENDBRANCH   1   2
BRANCH   1  13
ATOM     13  O   UNL     1      45.912   3.893  13.642  0.00  0.00    +0.000 OA
BRANCH  13  17
ATOM     14  C   UNL     1      48.664   6.191  15.804  0.00  0.00    +0.000 A 
ATOM     15  C   UNL     1      48.139   5.033  16.388  0.00  0.00    +0.000 A 
ATOM     16  C   UNL     1      47.222   4.236  15.699  0.00  0.00    +0.000 A 
ATOM     17  C   UNL     1      46.815   4.583  14.409  0.00  0.00    +0.000 A 
ATOM     18  C   UNL     1      47.347   5.727  13.814  0.00  0.00    +0.000 A 
ATOM     19  C   UNL     1      48.264   6.529  14.504  0.00  0.00    +0.000 A 
BRANCH  14  20
ATOM     20  C   UNL     1      49.618   7.067  16.575  0.00  0.00    +0.000 C 
BRANCH  20  21
ATOM     21  N   UNL     1      50.853   6.364  16.895  0.00  0.00    +0.000 NA
ATOM     22  H   UNL     1      50.865   6.143  17.887  0.00  0.00    +0.000 HD
ATOM     23  H   UNL     1      51.640   6.989  16.724  0.00  0.00    +0.000 HD
ENDBRANCH  20  21
ENDBRANCH  14  20
ENDBRANCH  13  17
ENDBRANCH   1  13
TORSDOF 7
ENDMDL
MODEL 7
REMARK VINA RESULT:    -6.129      4.813      8.187
REMARK INTER + INTRA:          -9.366
REMARK INTER:                  -8.736
REMARK INTRA:                  -0.630
REMARK UNBOUND:                -0.908
REMARK  Name = 
REMARK  7 active torsions:
REMARK  status: ('A' for Active; 'I' for Inactive)
REMARK    1  A    between atoms: N_1  and  C_2
REMARK    2  A    between atoms: C_2  and  C_3
REMARK    3  A    between atoms: C_6  and  O_7
REMARK    4  A    between atoms: O_7  and  C_8
REMARK    5  A    between atoms: C_8  and  C_9
REMARK    6  A    between atoms: C_12  and  O_13
REMARK    7  A    between atoms: O_13  and  C_14
REMARK                            x       y       z     vdW  Elec       q    Type
REMARK                         _______ _______ _______ _____ _____    ______ ____
ROOT
ATOM      1  C   UNL     1      46.767   5.018  14.313  0.00  0.00    +0.000 C 
ENDROOT
BRANCH   1   2
ATOM      2  C   UNL     1      46.100   4.782  12.982  0.00  0.00    +0.000 A 
ATOM      3  C   UNL     1      46.098   5.818  12.040  0.00  0.00    +0.000 A 
ATOM      4  C   UNL     1      45.547   5.636  10.780  0.00  0.00    +0.000 A 
ATOM      5  C   UNL     1      45.033   4.393  10.405  0.00  0.00    +0.000 A 
ATOM      6  C   UNL     1      45.011   3.360  11.346  0.00  0.00    +0.000 A 
ATOM      7  C   UNL     1      45.551   3.547  12.618  0.00  0.00    +0.000 A 
BRANCH   5   8
ATOM      8  O   UNL     1      44.502   4.091   9.187  0.00  0.00    +0.000 OA
BRANCH   8   9
ATOM      9  C   UNL     1      45.349   3.536   8.199  0.00  0.00    +0.000 C 
ATOM     10  F   UNL     1      45.892   2.344   8.512  0.00  0.00    +0.000 F 
ATOM     11  F   UNL     1      44.633   3.363   7.064  0.00  0.00    +0.000 F 
ATOM     12  F   UNL     1      46.350   4.408   7.935  0.00  0.00    +0.000 F 
ENDBRANCH   8   9
ENDBRANCH   5   8
ENDBRANCH   1   2
BRANCH   1  13
ATOM     13  O   UNL     1      46.912   3.809  15.055  0.00  0.00    +0.000 OA
BRANCH  13  17
ATOM     14  C   UNL     1      48.801   4.457  18.734  0.00  0.00    +0.000 A 
ATOM     15  C   UNL     1      48.234   3.205  18.474  0.00  0.00    +0.000 A 
ATOM     16  C   UNL     1      47.598   2.946  17.258  0.00  0.00    +0.000 A 
ATOM     17  C   UNL     1      47.521   3.938  16.276  0.00  0.00    +0.000 A 
ATOM     18  C   UNL     1      48.099   5.183  16.522  0.00  0.00    +0.000 A 
ATOM     19  C   UNL     1      48.734   5.445  17.743  0.00  0.00    +0.000 A 
BRANCH  14  20
ATOM     20  C   UNL     1      49.444   4.738  20.068  0.00  0.00    +0.000 C 
BRANCH  20  21
ATOM     21  N   UNL     1      50.882   4.508  20.030  0.00  0.00    +0.000 NA
ATOM     22  H   UNL     1      51.365   5.402  20.031  0.00  0.00    +0.000 HD
ATOM     23  H   UNL     1      51.118   4.047  19.151  0.00  0.00    +0.000 HD
ENDBRANCH  20  21
ENDBRANCH  14  20
ENDBRANCH  13  17
ENDBRANCH   1  13
TORSDOF 7
ENDMDL
MODEL 8
REMARK VINA RESULT:    -5.930      4.730      7.035
REMARK INTER + INTRA:          -9.091
REMARK INTER:                  -8.372
REMARK INTRA:                  -0.720
REMARK UNBOUND:                -0.908
REMARK  Name = 
REMARK  7 active torsions:
REMARK  status: ('A' for Active; 'I' for Inactive)
REMARK    1  A    between atoms: N_1  and  C_2
REMARK    2  A    between atoms: C_2  and  C_3
REMARK    3  A    between atoms: C_6  and  O_7
REMARK    4  A    between atoms: O_7  and  C_8
REMARK    5  A    between atoms: C_8  and  C_9
REMARK    6  A    between atoms: C_12  and  O_13
REMARK    7  A    between atoms: O_13  and  C_14
REMARK                            x       y       z     vdW  Elec       q    Type
REMARK                         _______ _______ _______ _____ _____    ______ ____
ROOT
ATOM      1  C   UNL     1      45.127   5.333  12.900  0.00  0.00    +0.000 C 
ENDROOT
BRANCH   1   2
ATOM      2  C   UNL     1      45.089   4.772  11.501  0.00  0.00    +0.000 A 
ATOM      3  C   UNL     1      45.483   5.594  10.439  0.00  0.00    +0.000 A 
ATOM      4  C   UNL     1      45.520   5.111   9.138  0.00  0.00    +0.000 A 
ATOM      5  C   UNL     1      45.218   3.775   8.870  0.00  0.00    +0.000 A 
ATOM      6  C   UNL     1      44.802   2.953   9.921  0.00  0.00    +0.000 A 
ATOM      7  C   UNL     1      44.750   3.442  11.227  0.00  0.00    +0.000 A 
BRANCH   5   8
ATOM      8  O   UNL     1      45.255   3.186   7.643  0.00  0.00    +0.000 OA
BRANCH   8   9
ATOM      9  C   UNL     1      46.506   2.772   7.129  0.00  0.00    +0.000 C 
ATOM     10  F   UNL     1      47.512   3.652   7.291  0.00  0.00    +0.000 F 
ATOM     11  F   UNL     1      46.872   1.628   7.752  0.00  0.00    +0.000 F 
ATOM     12  F   UNL     1      46.376   2.507   5.808  0.00  0.00    +0.000 F 
ENDBRANCH   8   9
ENDBRANCH   5   8
ENDBRANCH   1   2
BRANCH   1  13
ATOM     13  O   UNL     1      46.463   5.535  13.354  0.00  0.00    +0.000 OA
BRANCH  13  17
ATOM     14  C   UNL     1      48.385   9.076  12.215  0.00  0.00    +0.000 A 
ATOM     15  C   UNL     1      47.061   9.137  12.665  0.00  0.00    +0.000 A 
ATOM     16  C   UNL     1      46.385   7.979  13.058  0.00  0.00    +0.000 A 
ATOM     17  C   UNL     1      47.024   6.738  13.011  0.00  0.00    +0.000 A 
ATOM     18  C   UNL     1      48.349   6.673  12.579  0.00  0.00    +0.000 A 
ATOM     19  C   UNL     1      49.027   7.831  12.182  0.00  0.00    +0.000 A 
BRANCH  14  20
ATOM     20  C   UNL     1      49.088  10.326  11.751  0.00  0.00    +0.000 C 
BRANCH  20  21
ATOM     21  N   UNL     1      50.423  10.035  11.246  0.00  0.00    +0.000 NA
ATOM     22  H   UNL     1      51.069   9.964  12.028  0.00  0.00    +0.000 HD
ATOM     23  H   UNL     1      50.737  10.821  10.677  0.00  0.00    +0.000 HD
ENDBRANCH  20  21
ENDBRANCH  14  20
ENDBRANCH  13  17
ENDBRANCH   1  13
TORSDOF 7
ENDMDL
MODEL 9
REMARK VINA RESULT:    -5.491      4.891      6.788
REMARK INTER + INTRA:          -8.485
REMARK INTER:                  -7.698
REMARK INTRA:                  -0.788
REMARK UNBOUND:                -0.908
REMARK  Name = 
REMARK  7 active torsions:
REMARK  status: ('A' for Active; 'I' for Inactive)
REMARK    1  A    between atoms: N_1  and  C_2
REMARK    2  A    between atoms: C_2  and  C_3
REMARK    3  A    between atoms: C_6  and  O_7
REMARK    4  A    between atoms: O_7  and  C_8
REMARK    5  A    between atoms: C_8  and  C_9
REMARK    6  A    between atoms: C_12  and  O_13
REMARK    7  A    between atoms: O_13  and  C_14
REMARK                            x       y       z     vdW  Elec       q    Type
REMARK                         _______ _______ _______ _____ _____    ______ ____
ROOT
ATOM      1  C   UNL     1      47.053   6.408  13.426  0.00  0.00    +0.000 C 
ENDROOT
BRANCH   1   2
ATOM      2  C   UNL     1      46.198   5.458  12.627  0.00  0.00    +0.000 A 
ATOM      3  C   UNL     1      45.680   5.891  11.401  0.00  0.00    +0.000 A 
ATOM      4  C   UNL     1      44.933   5.039  10.600  0.00  0.00    +0.000 A 
ATOM      5  C   UNL     1      44.730   3.710  10.977  0.00  0.00    +0.000 A 
ATOM      6  C   UNL     1      45.225   3.275  12.209  0.00  0.00    +0.000 A 
ATOM      7  C   UNL     1      45.964   4.136  13.022  0.00  0.00    +0.000 A 
BRANCH   5   8
ATOM      8  O   UNL     1      44.047   2.778  10.256  0.00  0.00    +0.000 OA
BRANCH   8   9
ATOM      9  C   UNL     1      44.672   2.207   9.123  0.00  0.00    +0.000 C 
ATOM     10  F   UNL     1      44.333   0.930   8.863  0.00  0.00    +0.000 F 
ATOM     11  F   UNL     1      44.342   2.937   8.033  0.00  0.00    +0.000 F 
ATOM     12  F   UNL     1      46.015   2.271   9.280  0.00  0.00    +0.000 F 
ENDBRANCH   8   9
ENDBRANCH   5   8
ENDBRANCH   1   2
BRANCH   1  13
ATOM     13  O   UNL     1      46.928   7.750  12.963  0.00  0.00    +0.000 OA
BRANCH  13  17
ATOM     14  C   UNL     1      50.480   9.154  11.249  0.00  0.00    +0.000 A 
ATOM     15  C   UNL     1      49.430  10.053  11.466  0.00  0.00    +0.000 A 
ATOM     16  C   UNL     1      48.230   9.626  12.039  0.00  0.00    +0.000 A 
ATOM     17  C   UNL     1      48.060   8.290  12.409  0.00  0.00    +0.000 A 
ATOM     18  C   UNL     1      49.108   7.392  12.211  0.00  0.00    +0.000 A 
ATOM     19  C   UNL     1      50.311   7.817  11.633  0.00  0.00    +0.000 A 
BRANCH  14  20
ATOM     20  C   UNL     1      51.753   9.617  10.588  0.00  0.00    +0.000 C 
BRANCH  20  21
ATOM     21  N   UNL     1      52.677   8.512  10.367  0.00  0.00    +0.000 NA
ATOM     22  H   UNL     1      53.443   8.579  11.031  0.00  0.00    +0.000 HD
ATOM     23  H   UNL     1      53.085   8.607   9.437  0.00  0.00    +0.000 HD
ENDBRANCH  20  21
ENDBRANCH  14  20
ENDBRANCH  13  17
ENDBRANCH   1  13
TORSDOF 7
ENDMDL
