MODEL 1
REMARK VINA RESULT:    -8.808      0.000      0.000
REMARK INTER + INTRA:         -12.484
REMARK INTER:                 -11.897
REMARK INTRA:                  -0.587
REMARK UNBOUND:                -0.587
REMARK  Name = 
REMARK  6 active torsions:
REMARK  status: ('A' for Active; 'I' for Inactive)
REMARK    1  A    between atoms: C_2  and  C_4
REMARK    2  A    between atoms: N_8  and  C_9
REMARK    3  A    between atoms: C_9  and  C_10
REMARK    4  A    between atoms: C_10  and  C_11
REMARK    5  A    between atoms: C_15  and  O_16
REMARK    6  A    between atoms: O_16  and  C_17
REMARK                            x       y       z     vdW  Elec       q    Type
REMARK                         _______ _______ _______ _____ _____    ______ ____
ROOT
ATOM      1  C   UNL     1      46.413   2.491   7.744  0.00  0.00    +0.000 A 
ATOM      2  C   UNL     1      45.680   1.883   8.754  0.00  0.00    +0.000 A 
ATOM      3  C   UNL     1      44.824   2.661   9.534  0.00  0.00    +0.000 A 
ATOM      4  C   UNL     1      44.716   4.031   9.303  0.00  0.00    +0.000 A 
ATOM      5  N   UNL     1      43.879   4.844  10.019  0.00  0.00    +0.000 N 
ATOM      6  N   UNL     1      45.436   4.633   8.337  0.00  0.00    +0.000 NA
ATOM      7  C   UNL     1      46.271   3.862   7.584  0.00  0.00    +0.000 A 
ATOM      8  H   UNL     1      43.944   5.826   9.771  0.00  0.00    +0.000 HD
ENDROOT
BRANCH   1  10
ATOM      9  N   UNL     1      48.434   2.418   6.397  0.00  0.00    +0.000 N 
ATOM     10  C   UNL     1      47.341   1.745   6.868  0.00  0.00    +0.000 C 
ATOM     11  O   UNL     1      47.157   0.567   6.594  0.00  0.00    +0.000 OA
ATOM     12  H   UNL     1      49.109   1.875   5.872  0.00  0.00    +0.000 HD
ATOM     13  H   UNL     1      48.746   3.299   6.786  0.00  0.00    +0.000 HD
ENDBRANCH   1  10
BRANCH   5  14
ATOM     14  C   UNL     1      43.064   4.397  11.131  0.00  0.00    +0.000 C 
BRANCH  14  15
ATOM     15  C   UNL     1      43.219   5.304  12.353  0.00  0.00    +0.000 C 
BRANCH  15  16
ATOM     16  C   UNL     1      44.673   5.600  12.646  0.00  0.00    +0.000 A 
ATOM     17  C   UNL     1      45.266   6.790  12.209  0.00  0.00    +0.000 A 
ATOM     18  C   UNL     1      46.605   7.060  12.501  0.00  0.00    +0.000 A 
ATOM     19  C   UNL     1      47.372   6.146  13.230  0.00  0.00    +0.000 A 
ATOM     20  C   UNL     1      46.790   4.962  13.673  0.00  0.00    +0.000 A 
ATOM     21  C   UNL     1      45.444   4.699  13.394  0.00  0.00    +0.000 A 
BRANCH  20  22
ATOM     22  O   UNL     1      47.420   4.001  14.423  0.00  0.00    +0.000 OA
BRANCH  22  23
ATOM     23  C   UNL     1      47.312   4.040  15.861  0.00  0.00    +0.000 C 
ATOM     24  C   UNL     1      48.246   4.977  16.642  0.00  0.00    +0.000 C 
ATOM     25  O   UNL     1      48.659   3.897  17.519  0.00  0.00    +0.000 OA
ATOM     26  C   UNL     1      48.093   2.935  16.594  0.00  0.00    +0.000 C 
ENDBRANCH  22  23
ENDBRANCH  20  22
ENDBRANCH  15  16
ENDBRANCH  14  15
ENDBRANCH   5  14
TORSDOF 6
ENDMDL
MODEL 2
REMARK VINA RESULT:    -8.222      2.011      3.392
REMARK INTER + INTRA:         -11.693
REMARK INTER:                 -10.835
REMARK INTRA:                  -0.859
REMARK UNBOUND:                -0.587
REMARK  Name = 
REMARK  6 active torsions:
REMARK  status: ('A' for Active; 'I' for Inactive)
REMARK    1  A    between atoms: C_2  and  C_4
REMARK    2  A    between atoms: N_8  and  C_9
REMARK    3  A    between atoms: C_9  and  C_10
REMARK    4  A    between atoms: C_10  and  C_11
REMARK    5  A    between atoms: C_15  and  O_16
REMARK    6  A    between atoms: O_16  and  C_17
REMARK                            x       y       z     vdW  Elec       q    Type
REMARK                         _______ _______ _______ _____ _____    ______ ____
ROOT
ATOM      1  C   UNL     1      46.380   2.370   7.776  0.00  0.00    +0.000 A 
ATOM      2  C   UNL     1      45.552   1.857   8.765  0.00  0.00    +0.000 A 
ATOM      3  C   UNL     1      44.734   2.728   9.486  0.00  0.00    +0.000 A 
ATOM      4  C   UNL     1      44.756   4.095   9.216  0.00  0.00    +0.000 A 
ATOM      5  N   UNL     1      43.963   4.998   9.872  0.00  0.00    +0.000 N 
ATOM      6  N   UNL     1      45.569   4.604   8.270  0.00  0.00    +0.000 NA
ATOM      7  C   UNL     1      46.366   3.743   7.576  0.00  0.00    +0.000 A 
ATOM      8  H   UNL     1      44.125   5.963   9.603  0.00  0.00    +0.000 HD
ENDROOT
BRANCH   1  10
ATOM      9  N   UNL     1      48.368   2.124   6.401  0.00  0.00    +0.000 N 
ATOM     10  C   UNL     1      47.276   1.522   6.962  0.00  0.00    +0.000 C 
ATOM     11  O   UNL     1      47.069   0.325   6.816  0.00  0.00    +0.000 OA
ATOM     12  H   UNL     1      49.023   1.518   5.921  0.00  0.00    +0.000 HD
ATOM     13  H   UNL     1      48.702   3.035   6.689  0.00  0.00    +0.000 HD
ENDBRANCH   1  10
BRANCH   5  14
ATOM     14  C   UNL     1      43.065   4.654  10.956  0.00  0.00    +0.000 C 
BRANCH  14  15
ATOM     15  C   UNL     1      43.249   5.576  12.164  0.00  0.00    +0.000 C 
BRANCH  15  16
ATOM     16  C   UNL     1      44.665   5.527  12.690  0.00  0.00    +0.000 A 
ATOM     17  C   UNL     1      45.248   4.312  13.070  0.00  0.00    +0.000 A 
ATOM     18  C   UNL     1      46.563   4.276  13.539  0.00  0.00    +0.000 A 
ATOM     19  C   UNL     1      47.315   5.452  13.637  0.00  0.00    +0.000 A 
ATOM     20  C   UNL     1      46.745   6.664  13.258  0.00  0.00    +0.000 A 
ATOM     21  C   UNL     1      45.433   6.697  12.773  0.00  0.00    +0.000 A 
BRANCH  20  22
ATOM     22  O   UNL     1      47.383   7.879  13.274  0.00  0.00    +0.000 OA
BRANCH  22  23
ATOM     23  C   UNL     1      47.684   8.538  12.026  0.00  0.00    +0.000 C 
ATOM     24  C   UNL     1      49.156   8.780  11.659  0.00  0.00    +0.000 C 
ATOM     25  O   UNL     1      48.900  10.185  11.399  0.00  0.00    +0.000 OA
ATOM     26  C   UNL     1      47.626  10.074  12.081  0.00  0.00    +0.000 C 
ENDBRANCH  22  23
ENDBRANCH  20  22
ENDBRANCH  15  16
ENDBRANCH  14  15
ENDBRANCH   5  14
TORSDOF 6
ENDMDL
MODEL 3
REMARK VINA RESULT:    -7.698      2.119      2.444
REMARK INTER + INTRA:         -10.984
REMARK INTER:                 -10.243
REMARK INTRA:                  -0.741
REMARK UNBOUND:                -0.587
REMARK  Name = 
REMARK  6 active torsions:
REMARK  status: ('A' for Active; 'I' for Inactive)
REMARK    1  A    between atoms: C_2  and  C_4
REMARK    2  A    between atoms: N_8  and  C_9
REMARK    3  A    between atoms: C_9  and  C_10
REMARK    4  A    between atoms: C_10  and  C_11
REMARK    5  A    between atoms: C_15  and  O_16
REMARK    6  A    between atoms: O_16  and  C_17
REMARK                            x       y       z     vdW  Elec       q    Type
REMARK                         _______ _______ _______ _____ _____    ______ ____
ROOT
ATOM      1  C   UNL     1      46.435   2.786   7.384  0.00  0.00    +0.000 A 
ATOM      2  C   UNL     1      45.910   3.959   7.909  0.00  0.00    +0.000 A 
ATOM      3  C   UNL     1      45.109   3.893   9.049  0.00  0.00    +0.000 A 
ATOM      4  C   UNL     1      44.837   2.663   9.645  0.00  0.00    +0.000 A 
ATOM      5  N   UNL     1      44.077   2.534  10.777  0.00  0.00    +0.000 N 
ATOM      6  N   UNL     1      45.328   1.518   9.133  0.00  0.00    +0.000 NA
ATOM      7  C   UNL     1      46.106   1.596   8.016  0.00  0.00    +0.000 A 
ATOM      8  H   UNL     1      43.925   1.573  11.066  0.00  0.00    +0.000 HD
ENDROOT
BRANCH   1  10
ATOM      9  N   UNL     1      48.629   2.525   6.372  0.00  0.00    +0.000 N 
ATOM     10  C   UNL     1      47.296   2.762   6.182  0.00  0.00    +0.000 C 
ATOM     11  O   UNL     1      46.835   2.919   5.059  0.00  0.00    +0.000 OA
ATOM     12  H   UNL     1      49.194   2.422   5.538  0.00  0.00    +0.000 HD
ATOM     13  H   UNL     1      49.004   2.157   7.237  0.00  0.00    +0.000 HD
ENDBRANCH   1  10
BRANCH   5  14
ATOM     14  C   UNL     1      43.419   3.638  11.445  0.00  0.00    +0.000 C 
BRANCH  14  15
ATOM     15  C   UNL     1      44.168   4.071  12.707  0.00  0.00    +0.000 C 
BRANCH  15  16
ATOM     16  C   UNL     1      45.103   5.226  12.430  0.00  0.00    +0.000 A 
ATOM     17  C   UNL     1      44.672   6.340  11.700  0.00  0.00    +0.000 A 
ATOM     18  C   UNL     1      45.539   7.409  11.465  0.00  0.00    +0.000 A 
ATOM     19  C   UNL     1      46.849   7.382  11.953  0.00  0.00    +0.000 A 
ATOM     20  C   UNL     1      47.286   6.281  12.684  0.00  0.00    +0.000 A 
ATOM     21  C   UNL     1      46.412   5.217  12.932  0.00  0.00    +0.000 A 
BRANCH  20  22
ATOM     22  O   UNL     1      48.531   6.145  13.244  0.00  0.00    +0.000 OA
BRANCH  22  23
ATOM     23  C   UNL     1      49.133   7.271  13.916  0.00  0.00    +0.000 C 
ATOM     24  C   UNL     1      49.981   7.010  15.171  0.00  0.00    +0.000 C 
ATOM     25  O   UNL     1      49.237   8.002  15.926  0.00  0.00    +0.000 OA
ATOM     26  C   UNL     1      48.208   8.000  14.904  0.00  0.00    +0.000 C 
ENDBRANCH  22  23
ENDBRANCH  20  22
ENDBRANCH  15  16
ENDBRANCH  14  15
ENDBRANCH   5  14
TORSDOF 6
ENDMDL
MODEL 4
REMARK VINA RESULT:    -7.188      2.873      8.042
REMARK INTER + INTRA:         -10.296
REMARK INTER:                 -10.062
REMARK INTRA:                  -0.235
REMARK UNBOUND:                -0.587
REMARK  Name = 
REMARK  6 active torsions:
REMARK  status: ('A' for Active; 'I' for Inactive)
REMARK    1  A    between atoms: C_2  and  C_4
REMARK    2  A    between atoms: N_8  and  C_9
REMARK    3  A    between atoms: C_9  and  C_10
REMARK    4  A    between atoms: C_10  and  C_11
REMARK    5  A    between atoms: C_15  and  O_16
REMARK    6  A    between atoms: O_16  and  C_17
REMARK                            x       y       z     vdW  Elec       q    Type
REMARK                         _______ _______ _______ _____ _____    ______ ____
ROOT
ATOM      1  C   UNL     1      48.264   4.368  16.661  0.00  0.00    +0.000 A 
ATOM      2  C   UNL     1      48.312   5.633  16.093  0.00  0.00    +0.000 A 
ATOM      3  C   UNL     1      47.751   5.833  14.832  0.00  0.00    +0.000 A 
ATOM      4  C   UNL     1      47.157   4.771  14.152  0.00  0.00    +0.000 A 
ATOM      5  N   UNL     1      46.571   4.907  12.922  0.00  0.00    +0.000 N 
ATOM      6  N   UNL     1      47.121   3.536  14.687  0.00  0.00    +0.000 NA
ATOM      7  C   UNL     1      47.677   3.353  15.919  0.00  0.00    +0.000 A 
ATOM      8  H   UNL     1      46.225   4.037  12.531  0.00  0.00    +0.000 HD
ENDROOT
BRANCH   1  10
ATOM      9  N   UNL     1      48.013   4.248  19.075  0.00  0.00    +0.000 N 
ATOM     10  C   UNL     1      48.830   4.066  17.993  0.00  0.00    +0.000 C 
ATOM     11  O   UNL     1      49.971   3.644  18.125  0.00  0.00    +0.000 OA
ATOM     12  H   UNL     1      48.379   3.954  19.973  0.00  0.00    +0.000 HD
ATOM     13  H   UNL     1      47.011   4.359  18.994  0.00  0.00    +0.000 HD
ENDBRANCH   1  10
BRANCH   5  14
ATOM     14  C   UNL     1      46.554   6.139  12.161  0.00  0.00    +0.000 C 
BRANCH  14  15
ATOM     15  C   UNL     1      45.305   6.251  11.283  0.00  0.00    +0.000 C 
BRANCH  15  16
ATOM     16  C   UNL     1      45.106   5.012  10.439  0.00  0.00    +0.000 A 
ATOM     17  C   UNL     1      44.307   3.955  10.893  0.00  0.00    +0.000 A 
ATOM     18  C   UNL     1      44.116   2.823  10.098  0.00  0.00    +0.000 A 
ATOM     19  C   UNL     1      44.720   2.728   8.840  0.00  0.00    +0.000 A 
ATOM     20  C   UNL     1      45.512   3.775   8.378  0.00  0.00    +0.000 A 
ATOM     21  C   UNL     1      45.691   4.916   9.169  0.00  0.00    +0.000 A 
BRANCH  20  22
ATOM     22  O   UNL     1      46.131   3.821   7.155  0.00  0.00    +0.000 OA
BRANCH  22  23
ATOM     23  C   UNL     1      46.481   2.590   6.490  0.00  0.00    +0.000 C 
ATOM     24  C   UNL     1      47.582   1.710   7.103  0.00  0.00    +0.000 C 
ATOM     25  O   UNL     1      48.285   1.641   5.835  0.00  0.00    +0.000 OA
ATOM     26  C   UNL     1      47.488   2.745   5.338  0.00  0.00    +0.000 C 
ENDBRANCH  22  23
ENDBRANCH  20  22
ENDBRANCH  15  16
ENDBRANCH  14  15
ENDBRANCH   5  14
TORSDOF 6
ENDMDL
MODEL 5
REMARK VINA RESULT:    -6.965      3.114      7.273
REMARK INTER + INTRA:          -9.995
REMARK INTER:                  -9.175
REMARK INTRA:                  -0.821
REMARK UNBOUND:                -0.587
REMARK  Name = 
REMARK  6 active torsions:
REMARK  status: ('A' for Active; 'I' for Inactive)
REMARK    1  A    between atoms: C_2  and  C_4
REMARK    2  A    between atoms: N_8  and  C_9
REMARK    3  A    between atoms: C_9  and  C_10
REMARK    4  A    between atoms: C_10  and  C_11
REMARK    5  A    between atoms: C_15  and  O_16
REMARK    6  A    between atoms: O_16  and  C_17
REMARK                            x       y       z     vdW  Elec       q    Type
REMARK                         _______ _______ _______ _____ _____    ______ ____
ROOT
ATOM      1  C   UNL     1      47.674   4.164  16.165  0.00  0.00    +0.000 A 
ATOM      2  C   UNL     1      47.034   3.928  14.956  0.00  0.00    +0.000 A 
ATOM      3  C   UNL     1      47.130   4.878  13.939  0.00  0.00    +0.000 A 
ATOM      4  C   UNL     1      47.856   6.051  14.142  0.00  0.00    +0.000 A 
ATOM      5  N   UNL     1      48.006   7.011  13.177  0.00  0.00    +0.000 N 
ATOM      6  N   UNL     1      48.466   6.297  15.317  0.00  0.00    +0.000 NA
ATOM      7  C   UNL     1      48.360   5.362  16.304  0.00  0.00    +0.000 A 
ATOM      8  H   UNL     1      48.519   7.831  13.486  0.00  0.00    +0.000 HD
ENDROOT
BRANCH   1  10
ATOM      9  N   UNL     1      48.797   2.980  17.965  0.00  0.00    +0.000 N 
ATOM     10  C   UNL     1      47.628   3.213  17.295  0.00  0.00    +0.000 C 
ATOM     11  O   UNL     1      46.584   2.674  17.638  0.00  0.00    +0.000 OA
ATOM     12  H   UNL     1      48.737   2.398  18.791  0.00  0.00    +0.000 HD
ATOM     13  H   UNL     1      49.611   3.574  17.871  0.00  0.00    +0.000 HD
ENDBRANCH   1  10
BRANCH   5  14
ATOM     14  C   UNL     1      47.384   6.956  11.870  0.00  0.00    +0.000 C 
BRANCH  14  15
ATOM     15  C   UNL     1      45.939   7.458  11.904  0.00  0.00    +0.000 C 
BRANCH  15  16
ATOM     16  C   UNL     1      44.953   6.330  11.701  0.00  0.00    +0.000 A 
ATOM     17  C   UNL     1      43.966   6.059  12.656  0.00  0.00    +0.000 A 
ATOM     18  C   UNL     1      43.049   5.026  12.450  0.00  0.00    +0.000 A 
ATOM     19  C   UNL     1      43.106   4.247  11.290  0.00  0.00    +0.000 A 
ATOM     20  C   UNL     1      44.081   4.511  10.332  0.00  0.00    +0.000 A 
ATOM     21  C   UNL     1      44.989   5.557  10.532  0.00  0.00    +0.000 A 
BRANCH  20  22
ATOM     22  O   UNL     1      44.223   3.847   9.141  0.00  0.00    +0.000 OA
BRANCH  22  23
ATOM     23  C   UNL     1      45.524   3.361   8.750  0.00  0.00    +0.000 C 
ATOM     24  C   UNL     1      45.849   3.254   7.252  0.00  0.00    +0.000 C 
ATOM     25  O   UNL     1      46.284   1.878   7.405  0.00  0.00    +0.000 OA
ATOM     26  C   UNL     1      45.652   1.828   8.709  0.00  0.00    +0.000 C 
ENDBRANCH  22  23
ENDBRANCH  20  22
ENDBRANCH  15  16
ENDBRANCH  14  15
ENDBRANCH   5  14
TORSDOF 6
ENDMDL
MODEL 6
REMARK VINA RESULT:    -6.676      3.710      7.592
REMARK INTER + INTRA:          -9.604
REMARK INTER:                  -9.293
REMARK INTRA:                  -0.311
REMARK UNBOUND:                -0.587
REMARK  Name = 
REMARK  6 active torsions:
REMARK  status: ('A' for Active; 'I' for Inactive)
REMARK    1  A    between atoms: C_2  and  C_4
REMARK    2  A    between atoms: N_8  and  C_9
REMARK    3  A    between atoms: C_9  and  C_10
REMARK    4  A    between atoms: C_10  and  C_11
REMARK    5  A    between atoms: C_15  and  O_16
REMARK    6  A    between atoms: O_16  and  C_17
REMARK                            x       y       z     vdW  Elec       q    Type
REMARK                         _______ _______ _______ _____ _____    ______ ____
ROOT
ATOM      1  C   UNL     1      49.486   8.180  13.310  0.00  0.00    +0.000 A 
ATOM      2  C   UNL     1      49.109   7.041  12.613  0.00  0.00    +0.000 A 
ATOM      3  C   UNL     1      47.758   6.699  12.550  0.00  0.00    +0.000 A 
ATOM      4  C   UNL     1      46.804   7.490  13.187  0.00  0.00    +0.000 A 
ATOM      5  N   UNL     1      45.462   7.220  13.145  0.00  0.00    +0.000 N 
ATOM      6  N   UNL     1      47.161   8.587  13.881  0.00  0.00    +0.000 NA
ATOM      7  C   UNL     1      48.486   8.908  13.937  0.00  0.00    +0.000 A 
ATOM      8  H   UNL     1      44.895   7.856  13.696  0.00  0.00    +0.000 HD
ENDROOT
BRANCH   1  10
ATOM      9  N   UNL     1      51.839   7.858  12.798  0.00  0.00    +0.000 N 
ATOM     10  C   UNL     1      50.892   8.620  13.426  0.00  0.00    +0.000 C 
ATOM     11  O   UNL     1      51.199   9.636  14.034  0.00  0.00    +0.000 OA
ATOM     12  H   UNL     1      52.787   8.216  12.807  0.00  0.00    +0.000 HD
ATOM     13  H   UNL     1      51.610   7.164  12.098  0.00  0.00    +0.000 HD
ENDBRANCH   1  10
BRANCH   5  14
ATOM     14  C   UNL     1      44.886   6.060  12.497  0.00  0.00    +0.000 C 
BRANCH  14  15
ATOM     15  C   UNL     1      45.006   6.138  10.973  0.00  0.00    +0.000 C 
BRANCH  15  16
ATOM     16  C   UNL     1      44.884   4.773  10.335  0.00  0.00    +0.000 A 
ATOM     17  C   UNL     1      44.299   3.706  11.027  0.00  0.00    +0.000 A 
ATOM     18  C   UNL     1      44.176   2.454  10.421  0.00  0.00    +0.000 A 
ATOM     19  C   UNL     1      44.636   2.247   9.117  0.00  0.00    +0.000 A 
ATOM     20  C   UNL     1      45.216   3.303   8.418  0.00  0.00    +0.000 A 
ATOM     21  C   UNL     1      45.325   4.561   9.021  0.00  0.00    +0.000 A 
BRANCH  20  22
ATOM     22  O   UNL     1      45.675   3.242   7.127  0.00  0.00    +0.000 OA
BRANCH  22  23
ATOM     23  C   UNL     1      47.079   3.013   6.884  0.00  0.00    +0.000 C 
ATOM     24  C   UNL     1      47.538   2.727   5.446  0.00  0.00    +0.000 C 
ATOM     25  O   UNL     1      48.255   1.539   5.870  0.00  0.00    +0.000 OA
ATOM     26  C   UNL     1      47.548   1.570   7.135  0.00  0.00    +0.000 C 
ENDBRANCH  22  23
ENDBRANCH  20  22
ENDBRANCH  15  16
ENDBRANCH  14  15
ENDBRANCH   5  14
TORSDOF 6
ENDMDL
MODEL 7
REMARK VINA RESULT:    -6.552      3.511      8.334
REMARK INTER + INTRA:          -9.438
REMARK INTER:                  -8.817
REMARK INTRA:                  -0.620
REMARK UNBOUND:                -0.587
REMARK  Name = 
REMARK  6 active torsions:
REMARK  status: ('A' for Active; 'I' for Inactive)
REMARK    1  A    between atoms: C_2  and  C_4
REMARK    2  A    between atoms: N_8  and  C_9
REMARK    3  A    between atoms: C_9  and  C_10
REMARK    4  A    between atoms: C_10  and  C_11
REMARK    5  A    between atoms: C_15  and  O_16
REMARK    6  A    between atoms: O_16  and  C_17
REMARK                            x       y       z     vdW  Elec       q    Type
REMARK                         _______ _______ _______ _____ _____    ______ ____
ROOT
ATOM      1  C   UNL     1      48.374   4.820  18.272  0.00  0.00    +0.000 A 
ATOM      2  C   UNL     1      48.893   5.669  17.304  0.00  0.00    +0.000 A 
ATOM      3  C   UNL     1      48.434   5.563  15.991  0.00  0.00    +0.000 A 
ATOM      4  C   UNL     1      47.472   4.611  15.659  0.00  0.00    +0.000 A 
ATOM      5  N   UNL     1      46.966   4.471  14.394  0.00  0.00    +0.000 N 
ATOM      6  N   UNL     1      46.975   3.771  16.587  0.00  0.00    +0.000 NA
ATOM      7  C   UNL     1      47.435   3.883  17.866  0.00  0.00    +0.000 A 
ATOM      8  H   UNL     1      46.309   3.704  14.294  0.00  0.00    +0.000 HD
ENDROOT
BRANCH   1  10
ATOM      9  N   UNL     1      48.606   3.734  20.433  0.00  0.00    +0.000 N 
ATOM     10  C   UNL     1      48.799   4.863  19.687  0.00  0.00    +0.000 C 
ATOM     11  O   UNL     1      49.328   5.857  20.167  0.00  0.00    +0.000 OA
ATOM     12  H   UNL     1      48.981   3.743  21.374  0.00  0.00    +0.000 HD
ATOM     13  H   UNL     1      48.401   2.832  20.022  0.00  0.00    +0.000 HD
ENDBRANCH   1  10
BRANCH   5  14
ATOM     14  C   UNL     1      47.410   5.242  13.251  0.00  0.00    +0.000 C 
BRANCH  14  15
ATOM     15  C   UNL     1      46.398   6.321  12.861  0.00  0.00    +0.000 C 
BRANCH  15  16
ATOM     16  C   UNL     1      45.131   5.717  12.298  0.00  0.00    +0.000 A 
ATOM     17  C   UNL     1      43.910   5.855  12.970  0.00  0.00    +0.000 A 
ATOM     18  C   UNL     1      42.743   5.308  12.432  0.00  0.00    +0.000 A 
ATOM     19  C   UNL     1      42.777   4.614  11.219  0.00  0.00    +0.000 A 
ATOM     20  C   UNL     1      43.984   4.476  10.541  0.00  0.00    +0.000 A 
ATOM     21  C   UNL     1      45.151   5.037  11.072  0.00  0.00    +0.000 A 
BRANCH  20  22
ATOM     22  O   UNL     1      44.147   3.850   9.331  0.00  0.00    +0.000 OA
BRANCH  22  23
ATOM     23  C   UNL     1      45.463   3.414   8.929  0.00  0.00    +0.000 C 
ATOM     24  C   UNL     1      45.838   3.486   7.441  0.00  0.00    +0.000 C 
ATOM     25  O   UNL     1      46.273   2.101   7.445  0.00  0.00    +0.000 OA
ATOM     26  C   UNL     1      45.598   1.897   8.712  0.00  0.00    +0.000 C 
ENDBRANCH  22  23
ENDBRANCH  20  22
ENDBRANCH  15  16
ENDBRANCH  14  15
ENDBRANCH   5  14
TORSDOF 6
ENDMDL
MODEL 8
REMARK VINA RESULT:    -6.541      2.906      4.127
REMARK INTER + INTRA:          -9.422
REMARK INTER:                  -8.327
REMARK INTRA:                  -1.096
REMARK UNBOUND:                -0.587
REMARK  Name = 
REMARK  6 active torsions:
REMARK  status: ('A' for Active; 'I' for Inactive)
REMARK    1  A    between atoms: C_2  and  C_4
REMARK    2  A    between atoms: N_8  and  C_9
REMARK    3  A    between atoms: C_9  and  C_10
REMARK    4  A    between atoms: C_10  and  C_11
REMARK    5  A    between atoms: C_15  and  O_16
REMARK    6  A    between atoms: O_16  and  C_17
REMARK                            x       y       z     vdW  Elec       q    Type
REMARK                         _______ _______ _______ _____ _____    ______ ____
ROOT
ATOM      1  C   UNL     1      43.883   4.284  11.053  0.00  0.00    +0.000 A 
ATOM      2  C   UNL     1      45.019   4.993  10.690  0.00  0.00    +0.000 A 
ATOM      3  C   UNL     1      45.038   6.378  10.857  0.00  0.00    +0.000 A 
ATOM      4  C   UNL     1      43.924   7.037  11.375  0.00  0.00    +0.000 A 
ATOM      5  N   UNL     1      43.887   8.390  11.582  0.00  0.00    +0.000 N 
ATOM      6  N   UNL     1      42.810   6.360  11.713  0.00  0.00    +0.000 NA
ATOM      7  C   UNL     1      42.804   5.007  11.541  0.00  0.00    +0.000 A 
ATOM      8  H   UNL     1      42.993   8.733  11.917  0.00  0.00    +0.000 HD
ENDROOT
BRANCH   1  10
ATOM      9  N   UNL     1      44.665   2.201  10.076  0.00  0.00    +0.000 N 
ATOM     10  C   UNL     1      43.777   2.816  10.914  0.00  0.00    +0.000 C 
ATOM     11  O   UNL     1      42.948   2.170  11.543  0.00  0.00    +0.000 OA
ATOM     12  H   UNL     1      44.643   1.189  10.057  0.00  0.00    +0.000 HD
ATOM     13  H   UNL     1      45.502   2.656   9.734  0.00  0.00    +0.000 HD
ENDBRANCH   1  10
BRANCH   5  14
ATOM     14  C   UNL     1      44.962   9.296  11.232  0.00  0.00    +0.000 C 
BRANCH  14  15
ATOM     15  C   UNL     1      45.812   9.669  12.449  0.00  0.00    +0.000 C 
BRANCH  15  16
ATOM     16  C   UNL     1      47.147   8.959  12.435  0.00  0.00    +0.000 A 
ATOM     17  C   UNL     1      48.193   9.412  11.622  0.00  0.00    +0.000 A 
ATOM     18  C   UNL     1      49.427   8.758  11.630  0.00  0.00    +0.000 A 
ATOM     19  C   UNL     1      49.634   7.642  12.447  0.00  0.00    +0.000 A 
ATOM     20  C   UNL     1      48.602   7.186  13.261  0.00  0.00    +0.000 A 
ATOM     21  C   UNL     1      47.371   7.851  13.265  0.00  0.00    +0.000 A 
BRANCH  20  22
ATOM     22  O   UNL     1      48.686   6.127  14.130  0.00  0.00    +0.000 OA
BRANCH  22  23
ATOM     23  C   UNL     1      47.476   5.489  14.589  0.00  0.00    +0.000 C 
ATOM     24  C   UNL     1      47.564   4.514  15.773  0.00  0.00    +0.000 C 
ATOM     25  O   UNL     1      46.852   3.489  15.032  0.00  0.00    +0.000 OA
ATOM     26  C   UNL     1      47.078   4.227  13.804  0.00  0.00    +0.000 C 
ENDBRANCH  22  23
ENDBRANCH  20  22
ENDBRANCH  15  16
ENDBRANCH  14  15
ENDBRANCH   5  14
TORSDOF 6
ENDMDL
MODEL 9
REMARK VINA RESULT:    -6.395      3.000      4.466
REMARK INTER + INTRA:          -9.225
REMARK INTER:                  -8.477
REMARK INTRA:                  -0.748
REMARK UNBOUND:                -0.587
REMARK  Name = 
REMARK  6 active torsions:
REMARK  status: ('A' for Active; 'I' for Inactive)
REMARK    1  A    between atoms: C_2  and  C_4
REMARK    2  A    between atoms: N_8  and  C_9
REMARK    3  A    between atoms: C_9  and  C_10
REMARK    4  A    between atoms: C_10  and  C_11
REMARK    5  A    between atoms: C_15  and  O_16
REMARK    6  A    between atoms: O_16  and  C_17
REMARK                            x       y       z     vdW  Elec       q    Type
REMARK                         _______ _______ _______ _____ _____    ______ ____
ROOT
ATOM      1  C   UNL     1      44.499   4.295  11.308  0.00  0.00    +0.000 A 
ATOM      2  C   UNL     1      45.360   5.160  10.647  0.00  0.00    +0.000 A 
ATOM      3  C   UNL     1      45.759   6.337  11.280  0.00  0.00    +0.000 A 
ATOM      4  C   UNL     1      45.291   6.640  12.558  0.00  0.00    +0.000 A 
ATOM      5  N   UNL     1      45.662   7.767  13.240  0.00  0.00    +0.000 N 
ATOM      6  N   UNL     1      44.442   5.815  13.200  0.00  0.00    +0.000 NA
ATOM      7  C   UNL     1      44.057   4.670  12.568  0.00  0.00    +0.000 A 
ATOM      8  H   UNL     1      45.202   7.877  14.138  0.00  0.00    +0.000 HD
ENDROOT
BRANCH   1  10
ATOM      9  N   UNL     1      43.392   2.145  11.547  0.00  0.00    +0.000 N 
ATOM     10  C   UNL     1      44.028   3.026  10.715  0.00  0.00    +0.000 C 
ATOM     11  O   UNL     1      44.173   2.781   9.525  0.00  0.00    +0.000 OA
ATOM     12  H   UNL     1      42.994   1.321  11.113  0.00  0.00    +0.000 HD
ATOM     13  H   UNL     1      43.043   2.406  12.460  0.00  0.00    +0.000 HD
ENDBRANCH   1  10
BRANCH   5  14
ATOM     14  C   UNL     1      46.522   8.799  12.700  0.00  0.00    +0.000 C 
BRANCH  14  15
ATOM     15  C   UNL     1      48.004   8.468  12.895  0.00  0.00    +0.000 C 
BRANCH  15  16
ATOM     16  C   UNL     1      48.316   8.146  14.339  0.00  0.00    +0.000 A 
ATOM     17  C   UNL     1      48.213   9.128  15.332  0.00  0.00    +0.000 A 
ATOM     18  C   UNL     1      48.487   8.815  16.665  0.00  0.00    +0.000 A 
ATOM     19  C   UNL     1      48.871   7.520  17.026  0.00  0.00    +0.000 A 
ATOM     20  C   UNL     1      48.972   6.536  16.047  0.00  0.00    +0.000 A 
ATOM     21  C   UNL     1      48.682   6.846  14.714  0.00  0.00    +0.000 A 
BRANCH  20  22
ATOM     22  O   UNL     1      49.304   5.224  16.273  0.00  0.00    +0.000 OA
BRANCH  22  23
ATOM     23  C   UNL     1      48.569   4.465  17.255  0.00  0.00    +0.000 C 
ATOM     24  C   UNL     1      48.543   2.933  17.131  0.00  0.00    +0.000 C 
ATOM     25  O   UNL     1      47.095   2.912  17.226  0.00  0.00    +0.000 OA
ATOM     26  C   UNL     1      47.062   4.339  16.973  0.00  0.00    +0.000 C 
ENDBRANCH  22  23
ENDBRANCH  20  22
ENDBRANCH  15  16
ENDBRANCH  14  15
ENDBRANCH   5  14
TORSDOF 6
ENDMDL
