MODEL 1
REMARK VINA RESULT:    -9.001      0.000      0.000
REMARK INTER + INTRA:         -12.842
REMARK INTER:                 -11.632
REMARK INTRA:                  -1.211
REMARK UNBOUND:                -1.211
REMARK  Name = 
REMARK  5 active torsions:
REMARK  status: ('A' for Active; 'I' for Inactive)
REMARK    1  A    between atoms: C_2  and  C_4
REMARK    2  A    between atoms: C_7  and  N_8
REMARK    3  A    between atoms: N_8  and  C_9
REMARK    4  A    between atoms: C_9  and  C_10
REMARK    5  A    between atoms: C_14  and  C_15
REMARK                            x       y       z     vdW  Elec       q    Type
REMARK                         _______ _______ _______ _____ _____    ______ ____
ROOT
ATOM      1  C   UNL     1      43.538   4.678  11.272  0.00  0.00    +0.000 C 
ENDROOT
BRANCH   1   2
ATOM      2  C   UNL     1      44.775   5.037  12.057  0.00  0.00    +0.000 A 
ATOM      3  C   UNL     1      45.351   4.112  12.933  0.00  0.00    +0.000 A 
ATOM      4  C   UNL     1      46.547   4.416  13.575  0.00  0.00    +0.000 A 
ATOM      5  C   UNL     1      47.174   5.644  13.350  0.00  0.00    +0.000 A 
ATOM      6  C   UNL     1      46.628   6.604  12.479  0.00  0.00    +0.000 A 
ATOM      7  C   UNL     1      45.403   6.282  11.863  0.00  0.00    +0.000 A 
BRANCH   6   8
ATOM      8  C   UNL     1      47.326   7.883  12.195  0.00  0.00    +0.000 A 
ATOM      9  C   UNL     1      48.635   7.906  11.667  0.00  0.00    +0.000 A 
ATOM     10  C   UNL     1      49.294   9.112  11.405  0.00  0.00    +0.000 A 
ATOM     11  C   UNL     1      48.653  10.317  11.657  0.00  0.00    +0.000 A 
ATOM     12  F   UNL     1      49.281  11.470  11.393  0.00  0.00    +0.000 F 
ATOM     13  C   UNL     1      47.372  10.341  12.181  0.00  0.00    +0.000 A 
ATOM     14  C   UNL     1      46.728   9.135  12.451  0.00  0.00    +0.000 A 
ATOM     15  F   UNL     1      45.502   9.207  12.994  0.00  0.00    +0.000 F 
ENDBRANCH   6   8
ENDBRANCH   1   2
BRANCH   1  16
ATOM     16  N   UNL     1      43.727   4.879   9.846  0.00  0.00    +0.000 N 
ATOM     17  H   UNL     1      42.889   5.160   9.343  0.00  0.00    +0.000 HD
BRANCH  16  21
ATOM     18  C   UNL     1      46.382   2.284   7.827  0.00  0.00    +0.000 A 
ATOM     19  C   UNL     1      45.429   1.753   8.693  0.00  0.00    +0.000 A 
ATOM     20  C   UNL     1      44.528   2.602   9.344  0.00  0.00    +0.000 A 
ATOM     21  C   UNL     1      44.534   3.989   9.132  0.00  0.00    +0.000 A 
ATOM     22  C   UNL     1      45.510   4.506   8.266  0.00  0.00    +0.000 A 
ATOM     23  C   UNL     1      46.429   3.666   7.621  0.00  0.00    +0.000 A 
BRANCH  18  25
ATOM     24  N   UNL     1      48.444   2.041   6.549  0.00  0.00    +0.000 N 
ATOM     25  C   UNL     1      47.390   1.420   7.160  0.00  0.00    +0.000 C 
ATOM     26  O   UNL     1      47.302   0.197   7.173  0.00  0.00    +0.000 OA
ATOM     27  H   UNL     1      49.168   1.439   6.182  0.00  0.00    +0.000 HD
ATOM     28  H   UNL     1      48.681   3.007   6.730  0.00  0.00    +0.000 HD
ENDBRANCH  18  25
ENDBRANCH  16  21
ENDBRANCH   1  16
TORSDOF 5
ENDMDL
MODEL 2
REMARK VINA RESULT:    -8.607      2.569      4.148
REMARK INTER + INTRA:         -12.333
REMARK INTER:                 -11.682
REMARK INTRA:                  -0.652
REMARK UNBOUND:                -1.211
REMARK  Name = 
REMARK  5 active torsions:
REMARK  status: ('A' for Active; 'I' for Inactive)
REMARK    1  A    between atoms: C_2  and  C_4
REMARK    2  A    between atoms: C_7  and  N_8
REMARK    3  A    between atoms: N_8  and  C_9
REMARK    4  A    between atoms: C_9  and  C_10
REMARK    5  A    between atoms: C_14  and  C_15
REMARK                            x       y       z     vdW  Elec       q    Type
REMARK                         _______ _______ _______ _____ _____    ______ ____
ROOT
ATOM      1  C   UNL     1      43.908   4.826  11.485  0.00  0.00    +0.000 C 
ENDROOT
BRANCH   1   2
ATOM      2  C   UNL     1      45.233   5.352  11.974  0.00  0.00    +0.000 A 
ATOM      3  C   UNL     1      45.869   6.403  11.304  0.00  0.00    +0.000 A 
ATOM      4  C   UNL     1      47.040   6.947  11.820  0.00  0.00    +0.000 A 
ATOM      5  C   UNL     1      47.586   6.447  13.006  0.00  0.00    +0.000 A 
ATOM      6  C   UNL     1      46.981   5.391  13.710  0.00  0.00    +0.000 A 
ATOM      7  C   UNL     1      45.811   4.839  13.151  0.00  0.00    +0.000 A 
BRANCH   6   8
ATOM      8  C   UNL     1      47.530   4.900  14.999  0.00  0.00    +0.000 A 
ATOM      9  C   UNL     1      47.321   3.573  15.430  0.00  0.00    +0.000 A 
ATOM     10  C   UNL     1      47.834   3.112  16.648  0.00  0.00    +0.000 A 
ATOM     11  C   UNL     1      48.573   3.969  17.452  0.00  0.00    +0.000 A 
ATOM     12  F   UNL     1      49.074   3.522  18.611  0.00  0.00    +0.000 F 
ATOM     13  C   UNL     1      48.797   5.281  17.071  0.00  0.00    +0.000 A 
ATOM     14  C   UNL     1      48.270   5.734  15.863  0.00  0.00    +0.000 A 
ATOM     15  F   UNL     1      48.481   7.023  15.553  0.00  0.00    +0.000 F 
ENDBRANCH   6   8
ENDBRANCH   1   2
BRANCH   1  16
ATOM     16  N   UNL     1      43.811   4.871  10.036  0.00  0.00    +0.000 N 
ATOM     17  H   UNL     1      42.871   5.022   9.679  0.00  0.00    +0.000 HD
BRANCH  16  21
ATOM     18  C   UNL     1      46.303   2.247   7.853  0.00  0.00    +0.000 A 
ATOM     19  C   UNL     1      45.403   1.728   8.782  0.00  0.00    +0.000 A 
ATOM     20  C   UNL     1      44.555   2.586   9.488  0.00  0.00    +0.000 A 
ATOM     21  C   UNL     1      44.561   3.972   9.273  0.00  0.00    +0.000 A 
ATOM     22  C   UNL     1      45.483   4.478   8.343  0.00  0.00    +0.000 A 
ATOM     23  C   UNL     1      46.350   3.629   7.642  0.00  0.00    +0.000 A 
BRANCH  18  25
ATOM     24  N   UNL     1      48.328   1.975   6.524  0.00  0.00    +0.000 N 
ATOM     25  C   UNL     1      47.257   1.372   7.124  0.00  0.00    +0.000 C 
ATOM     26  O   UNL     1      47.112   0.156   7.079  0.00  0.00    +0.000 OA
ATOM     27  H   UNL     1      49.017   1.358   6.113  0.00  0.00    +0.000 HD
ATOM     28  H   UNL     1      48.614   2.918   6.748  0.00  0.00    +0.000 HD
ENDBRANCH  18  25
ENDBRANCH  16  21
ENDBRANCH   1  16
TORSDOF 5
ENDMDL
MODEL 3
REMARK VINA RESULT:    -8.112      1.815      2.327
REMARK INTER + INTRA:         -11.694
REMARK INTER:                 -10.693
REMARK INTRA:                  -1.001
REMARK UNBOUND:                -1.211
REMARK  Name = 
REMARK  5 active torsions:
REMARK  status: ('A' for Active; 'I' for Inactive)
REMARK    1  A    between atoms: C_2  and  C_4
REMARK    2  A    between atoms: C_7  and  N_8
REMARK    3  A    between atoms: N_8  and  C_9
REMARK    4  A    between atoms: C_9  and  C_10
REMARK    5  A    between atoms: C_14  and  C_15
REMARK                            x       y       z     vdW  Elec       q    Type
REMARK                         _______ _______ _______ _____ _____    ______ ____
ROOT
ATOM      1  C   UNL     1      44.438   3.804  11.737  0.00  0.00    +0.000 C 
ENDROOT
BRANCH   1   2
ATOM      2  C   UNL     1      44.852   5.254  11.705  0.00  0.00    +0.000 A 
ATOM      3  C   UNL     1      43.905   6.255  11.463  0.00  0.00    +0.000 A 
ATOM      4  C   UNL     1      44.276   7.594  11.535  0.00  0.00    +0.000 A 
ATOM      5  C   UNL     1      45.593   7.943  11.847  0.00  0.00    +0.000 A 
ATOM      6  C   UNL     1      46.577   6.969  12.096  0.00  0.00    +0.000 A 
ATOM      7  C   UNL     1      46.181   5.621  11.989  0.00  0.00    +0.000 A 
BRANCH   6   8
ATOM      8  C   UNL     1      47.960   7.342  12.485  0.00  0.00    +0.000 A 
ATOM      9  C   UNL     1      48.818   8.018  11.591  0.00  0.00    +0.000 A 
ATOM     10  C   UNL     1      50.124   8.365  11.956  0.00  0.00    +0.000 A 
ATOM     11  C   UNL     1      50.591   8.051  13.226  0.00  0.00    +0.000 A 
ATOM     12  F   UNL     1      51.836   8.396  13.578  0.00  0.00    +0.000 F 
ATOM     13  C   UNL     1      49.784   7.385  14.132  0.00  0.00    +0.000 A 
ATOM     14  C   UNL     1      48.491   7.031  13.754  0.00  0.00    +0.000 A 
ATOM     15  F   UNL     1      47.758   6.352  14.652  0.00  0.00    +0.000 F 
ENDBRANCH   6   8
ENDBRANCH   1   2
BRANCH   1  16
ATOM     16  N   UNL     1      43.839   3.387  10.481  0.00  0.00    +0.000 N 
ATOM     17  H   UNL     1      43.043   2.762  10.579  0.00  0.00    +0.000 HD
BRANCH  16  21
ATOM     18  C   UNL     1      46.540   2.576   7.333  0.00  0.00    +0.000 A 
ATOM     19  C   UNL     1      46.115   1.538   8.160  0.00  0.00    +0.000 A 
ATOM     20  C   UNL     1      45.200   1.792   9.186  0.00  0.00    +0.000 A 
ATOM     21  C   UNL     1      44.666   3.071   9.400  0.00  0.00    +0.000 A 
ATOM     22  C   UNL     1      45.115   4.107   8.566  0.00  0.00    +0.000 A 
ATOM     23  C   UNL     1      46.045   3.867   7.545  0.00  0.00    +0.000 A 
BRANCH  18  25
ATOM     24  N   UNL     1      47.525   3.201   5.193  0.00  0.00    +0.000 N 
ATOM     25  C   UNL     1      47.551   2.356   6.268  0.00  0.00    +0.000 C 
ATOM     26  O   UNL     1      48.395   1.471   6.353  0.00  0.00    +0.000 OA
ATOM     27  H   UNL     1      48.276   3.098   4.524  0.00  0.00    +0.000 HD
ATOM     28  H   UNL     1      47.022   4.078   5.206  0.00  0.00    +0.000 HD
ENDBRANCH  18  25
ENDBRANCH  16  21
ENDBRANCH   1  16
TORSDOF 5
ENDMDL
MODEL 4
REMARK VINA RESULT:    -7.428      4.470      7.534
REMARK INTER + INTRA:         -10.809
REMARK INTER:                  -9.974
REMARK INTRA:                  -0.836
REMARK UNBOUND:                -1.211
REMARK  Name = 
REMARK  5 active torsions:
REMARK  status: ('A' for Active; 'I' for Inactive)
REMARK    1  A    between atoms: C_2  and  C_4
REMARK    2  A    between atoms: C_7  and  N_8
REMARK    3  A    between atoms: N_8  and  C_9
REMARK    4  A    between atoms: C_9  and  C_10
REMARK    5  A    between atoms: C_14  and  C_15
REMARK                            x       y       z     vdW  Elec       q    Type
REMARK                         _______ _______ _______ _____ _____    ______ ____
ROOT
ATOM      1  C   UNL     1      46.021   7.375  12.487  0.00  0.00    +0.000 C 
ENDROOT
BRANCH   1   2
ATOM      2  C   UNL     1      45.175   6.372  11.743  0.00  0.00    +0.000 A 
ATOM      3  C   UNL     1      43.790   6.333  11.936  0.00  0.00    +0.000 A 
ATOM      4  C   UNL     1      43.007   5.475  11.171  0.00  0.00    +0.000 A 
ATOM      5  C   UNL     1      43.599   4.649  10.212  0.00  0.00    +0.000 A 
ATOM      6  C   UNL     1      44.987   4.655   9.987  0.00  0.00    +0.000 A 
ATOM      7  C   UNL     1      45.760   5.513  10.794  0.00  0.00    +0.000 A 
BRANCH   6   8
ATOM      8  C   UNL     1      45.607   3.820   8.928  0.00  0.00    +0.000 A 
ATOM      9  C   UNL     1      46.324   4.401   7.860  0.00  0.00    +0.000 A 
ATOM     10  C   UNL     1      46.904   3.614   6.858  0.00  0.00    +0.000 A 
ATOM     11  C   UNL     1      46.785   2.232   6.912  0.00  0.00    +0.000 A 
ATOM     12  F   UNL     1      47.352   1.480   5.960  0.00  0.00    +0.000 F 
ATOM     13  C   UNL     1      46.086   1.621   7.939  0.00  0.00    +0.000 A 
ATOM     14  C   UNL     1      45.501   2.413   8.924  0.00  0.00    +0.000 A 
ATOM     15  F   UNL     1      44.801   1.780   9.880  0.00  0.00    +0.000 F 
ENDBRANCH   6   8
ENDBRANCH   1   2
BRANCH   1  16
ATOM     16  N   UNL     1      47.358   6.868  12.741  0.00  0.00    +0.000 N 
ATOM     17  H   UNL     1      47.840   6.514  11.919  0.00  0.00    +0.000 HD
BRANCH  16  21
ATOM     18  C   UNL     1      47.948   4.783  16.370  0.00  0.00    +0.000 A 
ATOM     19  C   UNL     1      47.103   4.249  15.400  0.00  0.00    +0.000 A 
ATOM     20  C   UNL     1      46.923   4.917  14.185  0.00  0.00    +0.000 A 
ATOM     21  C   UNL     1      47.596   6.114  13.894  0.00  0.00    +0.000 A 
ATOM     22  C   UNL     1      48.433   6.643  14.888  0.00  0.00    +0.000 A 
ATOM     23  C   UNL     1      48.607   5.990  16.116  0.00  0.00    +0.000 A 
BRANCH  18  25
ATOM     24  N   UNL     1      47.413   2.982  17.922  0.00  0.00    +0.000 N 
ATOM     25  C   UNL     1      48.121   4.129  17.693  0.00  0.00    +0.000 C 
ATOM     26  O   UNL     1      48.884   4.579  18.540  0.00  0.00    +0.000 OA
ATOM     27  H   UNL     1      47.612   2.498  18.788  0.00  0.00    +0.000 HD
ATOM     28  H   UNL     1      46.981   2.454  17.177  0.00  0.00    +0.000 HD
ENDBRANCH  18  25
ENDBRANCH  16  21
ENDBRANCH   1  16
TORSDOF 5
ENDMDL
MODEL 5
REMARK VINA RESULT:    -7.364      4.237      7.286
REMARK INTER + INTRA:         -10.727
REMARK INTER:                 -10.185
REMARK INTRA:                  -0.542
REMARK UNBOUND:                -1.211
REMARK  Name = 
REMARK  5 active torsions:
REMARK  status: ('A' for Active; 'I' for Inactive)
REMARK    1  A    between atoms: C_2  and  C_4
REMARK    2  A    between atoms: C_7  and  N_8
REMARK    3  A    between atoms: N_8  and  C_9
REMARK    4  A    between atoms: C_9  and  C_10
REMARK    5  A    between atoms: C_14  and  C_15
REMARK                            x       y       z     vdW  Elec       q    Type
REMARK                         _______ _______ _______ _____ _____    ______ ____
ROOT
ATOM      1  C   UNL     1      43.699   6.406  11.476  0.00  0.00    +0.000 C 
ENDROOT
BRANCH   1   2
ATOM      2  C   UNL     1      43.928   4.968  11.084  0.00  0.00    +0.000 A 
ATOM      3  C   UNL     1      43.244   3.938  11.738  0.00  0.00    +0.000 A 
ATOM      4  C   UNL     1      43.385   2.624  11.303  0.00  0.00    +0.000 A 
ATOM      5  C   UNL     1      44.211   2.329  10.215  0.00  0.00    +0.000 A 
ATOM      6  C   UNL     1      44.919   3.333   9.529  0.00  0.00    +0.000 A 
ATOM      7  C   UNL     1      44.779   4.651  10.008  0.00  0.00    +0.000 A 
BRANCH   6   8
ATOM      8  C   UNL     1      45.748   3.025   8.338  0.00  0.00    +0.000 A 
ATOM      9  C   UNL     1      46.218   4.047   7.485  0.00  0.00    +0.000 A 
ATOM     10  C   UNL     1      46.996   3.755   6.358  0.00  0.00    +0.000 A 
ATOM     11  C   UNL     1      47.325   2.438   6.071  0.00  0.00    +0.000 A 
ATOM     12  F   UNL     1      48.081   2.163   4.999  0.00  0.00    +0.000 F 
ATOM     13  C   UNL     1      46.881   1.405   6.877  0.00  0.00    +0.000 A 
ATOM     14  C   UNL     1      46.095   1.703   7.988  0.00  0.00    +0.000 A 
ATOM     15  F   UNL     1      45.655   0.666   8.720  0.00  0.00    +0.000 F 
ENDBRANCH   6   8
ENDBRANCH   1   2
BRANCH   1  16
ATOM     16  N   UNL     1      44.534   6.798  12.598  0.00  0.00    +0.000 N 
ATOM     17  H   UNL     1      44.023   7.156  13.401  0.00  0.00    +0.000 HD
BRANCH  16  21
ATOM     18  C   UNL     1      48.179   8.885  12.131  0.00  0.00    +0.000 A 
ATOM     19  C   UNL     1      48.135   7.514  11.885  0.00  0.00    +0.000 A 
ATOM     20  C   UNL     1      46.927   6.820  12.010  0.00  0.00    +0.000 A 
ATOM     21  C   UNL     1      45.734   7.472  12.355  0.00  0.00    +0.000 A 
ATOM     22  C   UNL     1      45.800   8.850  12.610  0.00  0.00    +0.000 A 
ATOM     23  C   UNL     1      47.008   9.552  12.505  0.00  0.00    +0.000 A 
BRANCH  18  25
ATOM     24  N   UNL     1      49.770  10.438  13.129  0.00  0.00    +0.000 N 
ATOM     25  C   UNL     1      49.453   9.645  12.061  0.00  0.00    +0.000 C 
ATOM     26  O   UNL     1      50.209   9.551  11.101  0.00  0.00    +0.000 OA
ATOM     27  H   UNL     1      50.682  10.874  13.109  0.00  0.00    +0.000 HD
ATOM     28  H   UNL     1      49.311  10.348  14.025  0.00  0.00    +0.000 HD
ENDBRANCH  18  25
ENDBRANCH  16  21
ENDBRANCH   1  16
TORSDOF 5
ENDMDL
MODEL 6
REMARK VINA RESULT:    -7.126      5.164      8.259
REMARK INTER + INTRA:         -10.419
REMARK INTER:                  -9.652
REMARK INTRA:                  -0.767
REMARK UNBOUND:                -1.211
REMARK  Name = 
REMARK  5 active torsions:
REMARK  status: ('A' for Active; 'I' for Inactive)
REMARK    1  A    between atoms: C_2  and  C_4
REMARK    2  A    between atoms: C_7  and  N_8
REMARK    3  A    between atoms: N_8  and  C_9
REMARK    4  A    between atoms: C_9  and  C_10
REMARK    5  A    between atoms: C_14  and  C_15
REMARK                            x       y       z     vdW  Elec       q    Type
REMARK                         _______ _______ _______ _____ _____    ______ ____
ROOT
ATOM      1  C   UNL     1      46.152   5.158  14.062  0.00  0.00    +0.000 C 
ENDROOT
BRANCH   1   2
ATOM      2  C   UNL     1      45.200   4.794  12.950  0.00  0.00    +0.000 A 
ATOM      3  C   UNL     1      43.840   5.102  13.053  0.00  0.00    +0.000 A 
ATOM      4  C   UNL     1      42.989   4.853  11.981  0.00  0.00    +0.000 A 
ATOM      5  C   UNL     1      43.488   4.293  10.802  0.00  0.00    +0.000 A 
ATOM      6  C   UNL     1      44.848   3.965  10.657  0.00  0.00    +0.000 A 
ATOM      7  C   UNL     1      45.682   4.203  11.767  0.00  0.00    +0.000 A 
BRANCH   6   8
ATOM      8  C   UNL     1      45.386   3.426   9.383  0.00  0.00    +0.000 A 
ATOM      9  C   UNL     1      45.384   2.041   9.112  0.00  0.00    +0.000 A 
ATOM     10  C   UNL     1      45.897   1.532   7.913  0.00  0.00    +0.000 A 
ATOM     11  C   UNL     1      46.411   2.400   6.961  0.00  0.00    +0.000 A 
ATOM     12  F   UNL     1      46.889   1.912   5.808  0.00  0.00    +0.000 F 
ATOM     13  C   UNL     1      46.439   3.765   7.188  0.00  0.00    +0.000 A 
ATOM     14  C   UNL     1      45.939   4.261   8.390  0.00  0.00    +0.000 A 
ATOM     15  F   UNL     1      46.020   5.588   8.582  0.00  0.00    +0.000 F 
ENDBRANCH   6   8
ENDBRANCH   1   2
BRANCH   1  16
ATOM     16  N   UNL     1      46.446   4.019  14.914  0.00  0.00    +0.000 N 
ATOM     17  H   UNL     1      45.638   3.451  15.156  0.00  0.00    +0.000 HD
BRANCH  16  21
ATOM     18  C   UNL     1      49.042   4.669  18.186  0.00  0.00    +0.000 A 
ATOM     19  C   UNL     1      48.336   3.471  18.095  0.00  0.00    +0.000 A 
ATOM     20  C   UNL     1      47.497   3.236  17.002  0.00  0.00    +0.000 A 
ATOM     21  C   UNL     1      47.358   4.168  15.963  0.00  0.00    +0.000 A 
ATOM     22  C   UNL     1      48.066   5.374  16.078  0.00  0.00    +0.000 A 
ATOM     23  C   UNL     1      48.898   5.628  17.178  0.00  0.00    +0.000 A 
BRANCH  18  25
ATOM     24  N   UNL     1      49.600   4.351  20.537  0.00  0.00    +0.000 N 
ATOM     25  C   UNL     1      49.900   4.977  19.358  0.00  0.00    +0.000 C 
ATOM     26  O   UNL     1      50.857   5.739  19.276  0.00  0.00    +0.000 OA
ATOM     27  H   UNL     1      50.247   4.497  21.300  0.00  0.00    +0.000 HD
ATOM     28  H   UNL     1      48.994   3.543  20.582  0.00  0.00    +0.000 HD
ENDBRANCH  18  25
ENDBRANCH  16  21
ENDBRANCH   1  16
TORSDOF 5
ENDMDL
MODEL 7
REMARK VINA RESULT:    -7.119      3.894      6.903
REMARK INTER + INTRA:         -10.410
REMARK INTER:                  -9.209
REMARK INTRA:                  -1.201
REMARK UNBOUND:                -1.211
REMARK  Name = 
REMARK  5 active torsions:
REMARK  status: ('A' for Active; 'I' for Inactive)
REMARK    1  A    between atoms: C_2  and  C_4
REMARK    2  A    between atoms: C_7  and  N_8
REMARK    3  A    between atoms: N_8  and  C_9
REMARK    4  A    between atoms: C_9  and  C_10
REMARK    5  A    between atoms: C_14  and  C_15
REMARK                            x       y       z     vdW  Elec       q    Type
REMARK                         _______ _______ _______ _____ _____    ______ ____
ROOT
ATOM      1  C   UNL     1      45.927   4.875  13.830  0.00  0.00    +0.000 C 
ENDROOT
BRANCH   1   2
ATOM      2  C   UNL     1      45.091   4.276  12.728  0.00  0.00    +0.000 A 
ATOM      3  C   UNL     1      43.701   4.194  12.859  0.00  0.00    +0.000 A 
ATOM      4  C   UNL     1      42.929   3.733  11.797  0.00  0.00    +0.000 A 
ATOM      5  C   UNL     1      43.539   3.348  10.600  0.00  0.00    +0.000 A 
ATOM      6  C   UNL     1      44.933   3.411  10.427  0.00  0.00    +0.000 A 
ATOM      7  C   UNL     1      45.693   3.856  11.526  0.00  0.00    +0.000 A 
BRANCH   6   8
ATOM      8  C   UNL     1      45.573   3.058   9.135  0.00  0.00    +0.000 A 
ATOM      9  C   UNL     1      45.757   1.713   8.749  0.00  0.00    +0.000 A 
ATOM     10  C   UNL     1      46.365   1.380   7.533  0.00  0.00    +0.000 A 
ATOM     11  C   UNL     1      46.791   2.387   6.677  0.00  0.00    +0.000 A 
ATOM     12  F   UNL     1      47.361   2.066   5.508  0.00  0.00    +0.000 F 
ATOM     13  C   UNL     1      46.636   3.719   7.019  0.00  0.00    +0.000 A 
ATOM     14  C   UNL     1      46.042   4.041   8.238  0.00  0.00    +0.000 A 
ATOM     15  F   UNL     1      45.946   5.345   8.543  0.00  0.00    +0.000 F 
ENDBRANCH   6   8
ENDBRANCH   1   2
BRANCH   1  16
ATOM     16  N   UNL     1      46.037   6.318  13.699  0.00  0.00    +0.000 N 
ATOM     17  H   UNL     1      45.195   6.778  13.364  0.00  0.00    +0.000 HD
BRANCH  16  21
ATOM     18  C   UNL     1      49.720   7.743  12.193  0.00  0.00    +0.000 A 
ATOM     19  C   UNL     1      48.628   7.619  11.336  0.00  0.00    +0.000 A 
ATOM     20  C   UNL     1      47.398   7.175  11.832  0.00  0.00    +0.000 A 
ATOM     21  C   UNL     1      47.215   6.870  13.188  0.00  0.00    +0.000 A 
ATOM     22  C   UNL     1      48.329   6.988  14.034  0.00  0.00    +0.000 A 
ATOM     23  C   UNL     1      49.571   7.417  13.545  0.00  0.00    +0.000 A 
BRANCH  18  25
ATOM     24  N   UNL     1      51.695   7.311  10.832  0.00  0.00    +0.000 N 
ATOM     25  C   UNL     1      51.055   8.160  11.693  0.00  0.00    +0.000 C 
ATOM     26  O   UNL     1      51.559   9.230  12.012  0.00  0.00    +0.000 OA
ATOM     27  H   UNL     1      52.558   7.650  10.428  0.00  0.00    +0.000 HD
ATOM     28  H   UNL     1      51.215   6.559  10.357  0.00  0.00    +0.000 HD
ENDBRANCH  18  25
ENDBRANCH  16  21
ENDBRANCH   1  16
TORSDOF 5
ENDMDL
MODEL 8
REMARK VINA RESULT:    -6.625      5.128      8.068
REMARK INTER + INTRA:          -9.773
REMARK INTER:                  -8.935
REMARK INTRA:                  -0.838
REMARK UNBOUND:                -1.211
REMARK  Name = 
REMARK  5 active torsions:
REMARK  status: ('A' for Active; 'I' for Inactive)
REMARK    1  A    between atoms: C_2  and  C_4
REMARK    2  A    between atoms: C_7  and  N_8
REMARK    3  A    between atoms: N_8  and  C_9
REMARK    4  A    between atoms: C_9  and  C_10
REMARK    5  A    between atoms: C_14  and  C_15
REMARK                            x       y       z     vdW  Elec       q    Type
REMARK                         _______ _______ _______ _____ _____    ______ ____
ROOT
ATOM      1  C   UNL     1      48.481   7.649  14.038  0.00  0.00    +0.000 C 
ENDROOT
BRANCH   1   2
ATOM      2  C   UNL     1      47.187   7.636  13.264  0.00  0.00    +0.000 A 
ATOM      3  C   UNL     1      46.403   8.790  13.176  0.00  0.00    +0.000 A 
ATOM      4  C   UNL     1      45.264   8.797  12.377  0.00  0.00    +0.000 A 
ATOM      5  C   UNL     1      44.899   7.653  11.664  0.00  0.00    +0.000 A 
ATOM      6  C   UNL     1      45.657   6.470  11.725  0.00  0.00    +0.000 A 
ATOM      7  C   UNL     1      46.790   6.482  12.562  0.00  0.00    +0.000 A 
BRANCH   6   8
ATOM      8  C   UNL     1      45.301   5.274  10.920  0.00  0.00    +0.000 A 
ATOM      9  C   UNL     1      45.568   5.214   9.536  0.00  0.00    +0.000 A 
ATOM     10  C   UNL     1      45.227   4.089   8.776  0.00  0.00    +0.000 A 
ATOM     11  C   UNL     1      44.622   3.001   9.390  0.00  0.00    +0.000 A 
ATOM     12  F   UNL     1      44.308   1.920   8.663  0.00  0.00    +0.000 F 
ATOM     13  C   UNL     1      44.337   3.020  10.744  0.00  0.00    +0.000 A 
ATOM     14  C   UNL     1      44.667   4.150  11.489  0.00  0.00    +0.000 A 
ATOM     15  F   UNL     1      44.338   4.139  12.791  0.00  0.00    +0.000 F 
ENDBRANCH   6   8
ENDBRANCH   1   2
BRANCH   1  16
ATOM     16  N   UNL     1      48.271   7.357  15.445  0.00  0.00    +0.000 N 
ATOM     17  H   UNL     1      48.099   8.174  16.026  0.00  0.00    +0.000 HD
BRANCH  16  21
ATOM     18  C   UNL     1      50.698   4.597  17.531  0.00  0.00    +0.000 A 
ATOM     19  C   UNL     1      49.338   4.334  17.373  0.00  0.00    +0.000 A 
ATOM     20  C   UNL     1      48.533   5.228  16.659  0.00  0.00    +0.000 A 
ATOM     21  C   UNL     1      49.060   6.386  16.067  0.00  0.00    +0.000 A 
ATOM     22  C   UNL     1      50.428   6.640  16.249  0.00  0.00    +0.000 A 
ATOM     23  C   UNL     1      51.241   5.759  16.975  0.00  0.00    +0.000 A 
BRANCH  18  25
ATOM     24  N   UNL     1      51.826   4.058  19.623  0.00  0.00    +0.000 N 
ATOM     25  C   UNL     1      51.573   3.699  18.328  0.00  0.00    +0.000 C 
ATOM     26  O   UNL     1      52.032   2.663  17.860  0.00  0.00    +0.000 OA
ATOM     27  H   UNL     1      52.345   3.391  20.179  0.00  0.00    +0.000 HD
ATOM     28  H   UNL     1      51.275   4.750  20.111  0.00  0.00    +0.000 HD
ENDBRANCH  18  25
ENDBRANCH  16  21
ENDBRANCH   1  16
TORSDOF 5
ENDMDL
MODEL 9
REMARK VINA RESULT:    -6.252      4.889      8.231
REMARK INTER + INTRA:          -9.289
REMARK INTER:                  -8.092
REMARK INTRA:                  -1.197
REMARK UNBOUND:                -1.211
REMARK  Name = 
REMARK  5 active torsions:
REMARK  status: ('A' for Active; 'I' for Inactive)
REMARK    1  A    between atoms: C_2  and  C_4
REMARK    2  A    between atoms: C_7  and  N_8
REMARK    3  A    between atoms: N_8  and  C_9
REMARK    4  A    between atoms: C_9  and  C_10
REMARK    5  A    between atoms: C_14  and  C_15
REMARK                            x       y       z     vdW  Elec       q    Type
REMARK                         _______ _______ _______ _____ _____    ______ ____
ROOT
ATOM      1  C   UNL     1      49.213   8.496  11.963  0.00  0.00    +0.000 C 
ENDROOT
BRANCH   1   2
ATOM      2  C   UNL     1      47.764   8.092  12.075  0.00  0.00    +0.000 A 
ATOM      3  C   UNL     1      46.839   8.936  12.698  0.00  0.00    +0.000 A 
ATOM      4  C   UNL     1      45.489   8.601  12.707  0.00  0.00    +0.000 A 
ATOM      5  C   UNL     1      45.053   7.422  12.097  0.00  0.00    +0.000 A 
ATOM      6  C   UNL     1      45.949   6.544  11.461  0.00  0.00    +0.000 A 
ATOM      7  C   UNL     1      47.314   6.893  11.490  0.00  0.00    +0.000 A 
BRANCH   6   8
ATOM      8  C   UNL     1      45.477   5.322  10.762  0.00  0.00    +0.000 A 
ATOM      9  C   UNL     1      45.641   5.161   9.370  0.00  0.00    +0.000 A 
ATOM     10  C   UNL     1      45.191   4.011   8.710  0.00  0.00    +0.000 A 
ATOM     11  C   UNL     1      44.578   2.998   9.434  0.00  0.00    +0.000 A 
ATOM     12  F   UNL     1      44.160   1.893   8.803  0.00  0.00    +0.000 F 
ATOM     13  C   UNL     1      44.391   3.117  10.800  0.00  0.00    +0.000 A 
ATOM     14  C   UNL     1      44.830   4.271  11.446  0.00  0.00    +0.000 A 
ATOM     15  F   UNL     1      44.595   4.359  12.765  0.00  0.00    +0.000 F 
ENDBRANCH   6   8
ENDBRANCH   1   2
BRANCH   1  16
ATOM     16  N   UNL     1      50.058   7.724  12.857  0.00  0.00    +0.000 N 
ATOM     17  H   UNL     1      50.344   6.819  12.493  0.00  0.00    +0.000 HD
BRANCH  16  21
ATOM     18  C   UNL     1      49.000   7.867  16.946  0.00  0.00    +0.000 A 
ATOM     19  C   UNL     1      48.761   6.705  16.214  0.00  0.00    +0.000 A 
ATOM     20  C   UNL     1      49.134   6.639  14.868  0.00  0.00    +0.000 A 
ATOM     21  C   UNL     1      49.773   7.710  14.225  0.00  0.00    +0.000 A 
ATOM     22  C   UNL     1      49.993   8.875  14.975  0.00  0.00    +0.000 A 
ATOM     23  C   UNL     1      49.609   8.959  16.320  0.00  0.00    +0.000 A 
BRANCH  18  25
ATOM     24  N   UNL     1      47.224   8.000  18.610  0.00  0.00    +0.000 N 
ATOM     25  C   UNL     1      48.569   7.993  18.362  0.00  0.00    +0.000 C 
ATOM     26  O   UNL     1      49.379   8.063  19.280  0.00  0.00    +0.000 OA
ATOM     27  H   UNL     1      46.948   7.991  19.584  0.00  0.00    +0.000 HD
ATOM     28  H   UNL     1      46.546   7.696  17.926  0.00  0.00    +0.000 HD
ENDBRANCH  18  25
ENDBRANCH  16  21
ENDBRANCH   1  16
TORSDOF 5
ENDMDL
