MODEL 1
REMARK VINA RESULT:    -8.025      0.000      0.000
REMARK INTER + INTRA:         -10.287
REMARK INTER:                 -10.137
REMARK INTRA:                  -0.151
REMARK UNBOUND:                -0.151
REMARK  Name = 
REMARK  5 active torsions:
REMARK  status: ('A' for Active; 'I' for Inactive)
REMARK    1  A    between atoms: N_1  and  C_2
REMARK    2  A    between atoms: C_2  and  C_3
REMARK    3  A    between atoms: C_5  and  C_6
REMARK    4  A    between atoms: C_6  and  N_7
REMARK    5  A    between atoms: C_12  and  C_13
REMARK                            x       y       z     vdW  Elec       q    Type
REMARK                         _______ _______ _______ _____ _____    ______ ____
ROOT
ATOM      1  N   UNL     1      44.226   4.417  10.263  0.00  0.00    +0.000 N 
ATOM      2  C   UNL     1      43.643   3.312  10.838  0.00  0.00    +0.000 A 
ATOM      3  C   UNL     1      44.182   2.191  10.246  0.00  0.00    +0.000 A 
ATOM      4  C   UNL     1      45.088   2.628   9.245  0.00  0.00    +0.000 A 
ATOM      5  C   UNL     1      45.920   1.987   8.311  0.00  0.00    +0.000 A 
ATOM      6  C   UNL     1      46.651   2.789   7.431  0.00  0.00    +0.000 A 
ATOM      7  C   UNL     1      46.549   4.175   7.556  0.00  0.00    +0.000 A 
ATOM      8  N   UNL     1      45.786   4.844   8.462  0.00  0.00    +0.000 NA
ATOM      9  C   UNL     1      45.081   4.022   9.264  0.00  0.00    +0.000 A 
ENDROOT
BRANCH   6  10
ATOM     10  C   UNL     1      47.519   2.243   6.357  0.00  0.00    +0.000 C 
ATOM     11  N   UNL     1      47.790   3.031   5.273  0.00  0.00    +0.000 N 
ATOM     12  O   UNL     1      47.996   1.119   6.434  0.00  0.00    +0.000 OA
ATOM     13  H   UNL     1      47.475   3.979   5.141  0.00  0.00    +0.000 HD
ATOM     14  H   UNL     1      48.412   2.644   4.573  0.00  0.00    +0.000 HD
ENDBRANCH   6  10
BRANCH   1  15
ATOM     15  C   UNL     1      44.046   5.781  10.727  0.00  0.00    +0.000 C 
BRANCH  15  18
ATOM     16  C   UNL     1      46.368   5.572  13.641  0.00  0.00    +0.000 C 
ATOM     17  C   UNL     1      45.118   5.104  12.916  0.00  0.00    +0.000 C 
ATOM     18  C   UNL     1      44.984   6.183  11.857  0.00  0.00    +0.000 C 
ATOM     19  C   UNL     1      46.439   6.387  11.453  0.00  0.00    +0.000 C 
ATOM     20  O   UNL     1      47.246   6.064  12.608  0.00  0.00    +0.000 OA
BRANCH  16  21
ATOM     21  C   UNL     1      47.047   4.514  14.522  0.00  0.00    +0.000 C 
BRANCH  21  22
ATOM     22  N   UNL     1      47.151   3.196  13.888  0.00  0.00    +0.000 NA
ATOM     23  H   UNL     1      46.907   2.479  14.569  0.00  0.00    +0.000 HD
ATOM     24  H   UNL     1      48.134   3.043  13.654  0.00  0.00    +0.000 HD
ENDBRANCH  21  22
ENDBRANCH  16  21
ENDBRANCH  15  18
ENDBRANCH   1  15
TORSDOF 5
ENDMDL
MODEL 2
REMARK VINA RESULT:    -7.791      1.741      6.038
REMARK INTER + INTRA:          -9.991
REMARK INTER:                  -9.808
REMARK INTRA:                  -0.184
REMARK UNBOUND:                -0.151
REMARK  Name = 
REMARK  5 active torsions:
REMARK  status: ('A' for Active; 'I' for Inactive)
REMARK    1  A    between atoms: N_1  and  C_2
REMARK    2  A    between atoms: C_2  and  C_3
REMARK    3  A    between atoms: C_5  and  C_6
REMARK    4  A    between atoms: C_6  and  N_7
REMARK    5  A    between atoms: C_12  and  C_13
REMARK                            x       y       z     vdW  Elec       q    Type
REMARK                         _______ _______ _______ _____ _____    ______ ____
ROOT
ATOM      1  N   UNL     1      44.317   4.193  10.652  0.00  0.00    +0.000 N 
ATOM      2  C   UNL     1      43.661   3.344  11.513  0.00  0.00    +0.000 A 
ATOM      3  C   UNL     1      44.116   3.599  12.788  0.00  0.00    +0.000 A 
ATOM      4  C   UNL     1      45.114   4.603  12.695  0.00  0.00    +0.000 A 
ATOM      5  C   UNL     1      45.943   5.266  13.616  0.00  0.00    +0.000 A 
ATOM      6  C   UNL     1      46.866   6.189  13.116  0.00  0.00    +0.000 A 
ATOM      7  C   UNL     1      46.883   6.432  11.742  0.00  0.00    +0.000 A 
ATOM      8  N   UNL     1      46.082   5.843  10.814  0.00  0.00    +0.000 NA
ATOM      9  C   UNL     1      45.233   4.941  11.348  0.00  0.00    +0.000 A 
ENDROOT
BRANCH   6  10
ATOM     10  C   UNL     1      47.841   6.914  13.969  0.00  0.00    +0.000 C 
ATOM     11  N   UNL     1      47.455   8.092  14.547  0.00  0.00    +0.000 N 
ATOM     12  O   UNL     1      48.965   6.472  14.167  0.00  0.00    +0.000 OA
ATOM     13  H   UNL     1      46.542   8.511  14.472  0.00  0.00    +0.000 HD
ATOM     14  H   UNL     1      48.130   8.546  15.149  0.00  0.00    +0.000 HD
ENDBRANCH   6  10
BRANCH   1  15
ATOM     15  C   UNL     1      43.998   4.349   9.244  0.00  0.00    +0.000 C 
BRANCH  15  18
ATOM     16  C   UNL     1      46.528   2.520   7.200  0.00  0.00    +0.000 C 
ATOM     17  C   UNL     1      45.899   3.823   7.661  0.00  0.00    +0.000 C 
ATOM     18  C   UNL     1      44.643   3.308   8.339  0.00  0.00    +0.000 C 
ATOM     19  C   UNL     1      45.175   2.069   9.050  0.00  0.00    +0.000 C 
ATOM     20  O   UNL     1      46.291   1.582   8.270  0.00  0.00    +0.000 OA
BRANCH  16  21
ATOM     21  C   UNL     1      48.015   2.607   6.826  0.00  0.00    +0.000 C 
BRANCH  21  22
ATOM     22  N   UNL     1      48.395   1.732   5.713  0.00  0.00    +0.000 NA
ATOM     23  H   UNL     1      47.994   2.096   4.850  0.00  0.00    +0.000 HD
ATOM     24  H   UNL     1      47.954   0.823   5.871  0.00  0.00    +0.000 HD
ENDBRANCH  21  22
ENDBRANCH  16  21
ENDBRANCH  15  18
ENDBRANCH   1  15
TORSDOF 5
ENDMDL
MODEL 3
REMARK VINA RESULT:    -7.598      1.560      1.729
REMARK INTER + INTRA:          -9.748
REMARK INTER:                  -9.357
REMARK INTRA:                  -0.390
REMARK UNBOUND:                -0.151
REMARK  Name = 
REMARK  5 active torsions:
REMARK  status: ('A' for Active; 'I' for Inactive)
REMARK    1  A    between atoms: N_1  and  C_2
REMARK    2  A    between atoms: C_2  and  C_3
REMARK    3  A    between atoms: C_5  and  C_6
REMARK    4  A    between atoms: C_6  and  N_7
REMARK    5  A    between atoms: C_12  and  C_13
REMARK                            x       y       z     vdW  Elec       q    Type
REMARK                         _______ _______ _______ _____ _____    ______ ____
ROOT
ATOM      1  N   UNL     1      44.164   4.697  10.304  0.00  0.00    +0.000 N 
ATOM      2  C   UNL     1      43.523   3.729  11.042  0.00  0.00    +0.000 A 
ATOM      3  C   UNL     1      43.983   2.500  10.623  0.00  0.00    +0.000 A 
ATOM      4  C   UNL     1      44.900   2.725   9.563  0.00  0.00    +0.000 A 
ATOM      5  C   UNL     1      45.677   1.899   8.733  0.00  0.00    +0.000 A 
ATOM      6  C   UNL     1      46.444   2.512   7.738  0.00  0.00    +0.000 A 
ATOM      7  C   UNL     1      46.429   3.905   7.653  0.00  0.00    +0.000 A 
ATOM      8  N   UNL     1      45.722   4.749   8.451  0.00  0.00    +0.000 NA
ATOM      9  C   UNL     1      44.979   4.103   9.372  0.00  0.00    +0.000 A 
ENDROOT
BRANCH   6  10
ATOM     10  C   UNL     1      47.261   1.757   6.755  0.00  0.00    +0.000 C 
ATOM     11  N   UNL     1      48.259   2.417   6.092  0.00  0.00    +0.000 N 
ATOM     12  O   UNL     1      47.063   0.569   6.541  0.00  0.00    +0.000 OA
ATOM     13  H   UNL     1      48.520   3.380   6.230  0.00  0.00    +0.000 HD
ATOM     14  H   UNL     1      48.821   1.868   5.453  0.00  0.00    +0.000 HD
ENDBRANCH   6  10
BRANCH   1  15
ATOM     15  C   UNL     1      44.075   6.123  10.558  0.00  0.00    +0.000 C 
BRANCH  15  18
ATOM     16  C   UNL     1      47.074   7.204  12.498  0.00  0.00    +0.000 C 
ATOM     17  C   UNL     1      46.423   6.277  11.487  0.00  0.00    +0.000 C 
ATOM     18  C   UNL     1      44.957   6.609  11.700  0.00  0.00    +0.000 C 
ATOM     19  C   UNL     1      45.017   8.121  11.877  0.00  0.00    +0.000 C 
ATOM     20  O   UNL     1      46.314   8.429  12.437  0.00  0.00    +0.000 OA
BRANCH  16  21
ATOM     21  C   UNL     1      48.577   7.445  12.292  0.00  0.00    +0.000 C 
BRANCH  21  22
ATOM     22  N   UNL     1      49.425   6.719  13.241  0.00  0.00    +0.000 NA
ATOM     23  H   UNL     1      49.452   5.734  12.979  0.00  0.00    +0.000 HD
ATOM     24  H   UNL     1      48.969   6.757  14.155  0.00  0.00    +0.000 HD
ENDBRANCH  21  22
ENDBRANCH  16  21
ENDBRANCH  15  18
ENDBRANCH   1  15
TORSDOF 5
ENDMDL
MODEL 4
REMARK VINA RESULT:    -6.344      1.942      6.444
REMARK INTER + INTRA:          -8.163
REMARK INTER:                  -7.950
REMARK INTRA:                  -0.214
REMARK UNBOUND:                -0.151
REMARK  Name = 
REMARK  5 active torsions:
REMARK  status: ('A' for Active; 'I' for Inactive)
REMARK    1  A    between atoms: N_1  and  C_2
REMARK    2  A    between atoms: C_2  and  C_3
REMARK    3  A    between atoms: C_5  and  C_6
REMARK    4  A    between atoms: C_6  and  N_7
REMARK    5  A    between atoms: C_12  and  C_13
REMARK                            x       y       z     vdW  Elec       q    Type
REMARK                         _______ _______ _______ _____ _____    ______ ____
ROOT
ATOM      1  N   UNL     1      44.397   5.188  11.681  0.00  0.00    +0.000 N 
ATOM      2  C   UNL     1      43.826   6.360  11.243  0.00  0.00    +0.000 A 
ATOM      3  C   UNL     1      44.603   7.405  11.691  0.00  0.00    +0.000 A 
ATOM      4  C   UNL     1      45.657   6.854  12.466  0.00  0.00    +0.000 A 
ATOM      5  C   UNL     1      46.742   7.385  13.185  0.00  0.00    +0.000 A 
ATOM      6  C   UNL     1      47.559   6.493  13.885  0.00  0.00    +0.000 A 
ATOM      7  C   UNL     1      47.280   5.129  13.796  0.00  0.00    +0.000 A 
ATOM      8  N   UNL     1      46.265   4.563  13.090  0.00  0.00    +0.000 NA
ATOM      9  C   UNL     1      45.492   5.471  12.460  0.00  0.00    +0.000 A 
ENDROOT
BRANCH   6  10
ATOM     10  C   UNL     1      48.699   6.923  14.732  0.00  0.00    +0.000 C 
ATOM     11  N   UNL     1      48.458   7.237  16.042  0.00  0.00    +0.000 N 
ATOM     12  O   UNL     1      49.836   6.989  14.284  0.00  0.00    +0.000 OA
ATOM     13  H   UNL     1      47.567   7.176  16.506  0.00  0.00    +0.000 HD
ATOM     14  H   UNL     1      49.261   7.495  16.603  0.00  0.00    +0.000 HD
ENDBRANCH   6  10
BRANCH   1  15
ATOM     15  C   UNL     1      43.970   3.860  11.280  0.00  0.00    +0.000 C 
BRANCH  15  18
ATOM     16  C   UNL     1      45.551   3.569   7.912  0.00  0.00    +0.000 C 
ATOM     17  C   UNL     1      45.323   4.344   9.198  0.00  0.00    +0.000 C 
ATOM     18  C   UNL     1      44.170   3.562   9.800  0.00  0.00    +0.000 C 
ATOM     19  C   UNL     1      44.578   2.130   9.475  0.00  0.00    +0.000 C 
ATOM     20  O   UNL     1      45.368   2.182   8.265  0.00  0.00    +0.000 OA
BRANCH  16  21
ATOM     21  C   UNL     1      46.903   3.819   7.228  0.00  0.00    +0.000 C 
BRANCH  21  22
ATOM     22  N   UNL     1      46.962   3.337   5.846  0.00  0.00    +0.000 NA
ATOM     23  H   UNL     1      47.938   3.227   5.572  0.00  0.00    +0.000 HD
ATOM     24  H   UNL     1      46.580   4.071   5.246  0.00  0.00    +0.000 HD
ENDBRANCH  21  22
ENDBRANCH  16  21
ENDBRANCH  15  18
ENDBRANCH   1  15
TORSDOF 5
ENDMDL
MODEL 5
REMARK VINA RESULT:    -6.231      3.610      5.927
REMARK INTER + INTRA:          -8.020
REMARK INTER:                  -7.630
REMARK INTRA:                  -0.390
REMARK UNBOUND:                -0.151
REMARK  Name = 
REMARK  5 active torsions:
REMARK  status: ('A' for Active; 'I' for Inactive)
REMARK    1  A    between atoms: N_1  and  C_2
REMARK    2  A    between atoms: C_2  and  C_3
REMARK    3  A    between atoms: C_5  and  C_6
REMARK    4  A    between atoms: C_6  and  N_7
REMARK    5  A    between atoms: C_12  and  C_13
REMARK                            x       y       z     vdW  Elec       q    Type
REMARK                         _______ _______ _______ _____ _____    ______ ____
ROOT
ATOM      1  N   UNL     1      47.544   5.292  14.641  0.00  0.00    +0.000 N 
ATOM      2  C   UNL     1      48.013   6.549  14.339  0.00  0.00    +0.000 A 
ATOM      3  C   UNL     1      47.412   6.956  13.168  0.00  0.00    +0.000 A 
ATOM      4  C   UNL     1      46.586   5.893  12.718  0.00  0.00    +0.000 A 
ATOM      5  C   UNL     1      45.746   5.691  11.610  0.00  0.00    +0.000 A 
ATOM      6  C   UNL     1      45.118   4.448  11.486  0.00  0.00    +0.000 A 
ATOM      7  C   UNL     1      45.324   3.499  12.488  0.00  0.00    +0.000 A 
ATOM      8  N   UNL     1      46.099   3.656  13.594  0.00  0.00    +0.000 NA
ATOM      9  C   UNL     1      46.703   4.860  13.646  0.00  0.00    +0.000 A 
ENDROOT
BRANCH   6  10
ATOM     10  C   UNL     1      44.255   4.080  10.336  0.00  0.00    +0.000 C 
ATOM     11  N   UNL     1      44.456   4.712   9.140  0.00  0.00    +0.000 N 
ATOM     12  O   UNL     1      43.387   3.223  10.440  0.00  0.00    +0.000 OA
ATOM     13  H   UNL     1      45.167   5.399   8.950  0.00  0.00    +0.000 HD
ATOM     14  H   UNL     1      43.874   4.416   8.365  0.00  0.00    +0.000 HD
ENDBRANCH   6  10
BRANCH   1  15
ATOM     15  C   UNL     1      47.812   4.588  15.882  0.00  0.00    +0.000 C 
BRANCH  15  18
ATOM     16  C   UNL     1      48.760   5.836  19.268  0.00  0.00    +0.000 C 
ATOM     17  C   UNL     1      47.765   5.152  18.347  0.00  0.00    +0.000 C 
ATOM     18  C   UNL     1      48.369   5.469  16.992  0.00  0.00    +0.000 C 
ATOM     19  C   UNL     1      49.855   5.291  17.278  0.00  0.00    +0.000 C 
ATOM     20  O   UNL     1      50.054   5.598  18.677  0.00  0.00    +0.000 OA
BRANCH  16  21
ATOM     21  C   UNL     1      48.705   5.393  20.737  0.00  0.00    +0.000 C 
BRANCH  21  22
ATOM     22  N   UNL     1      48.409   3.968  20.912  0.00  0.00    +0.000 NA
ATOM     23  H   UNL     1      48.154   3.797  21.884  0.00  0.00    +0.000 HD
ATOM     24  H   UNL     1      49.276   3.451  20.750  0.00  0.00    +0.000 HD
ENDBRANCH  21  22
ENDBRANCH  16  21
ENDBRANCH  15  18
ENDBRANCH   1  15
TORSDOF 5
ENDMDL
MODEL 6
REMARK VINA RESULT:    -5.870      3.659      5.360
REMARK INTER + INTRA:          -7.564
REMARK INTER:                  -7.102
REMARK INTRA:                  -0.462
REMARK UNBOUND:                -0.151
REMARK  Name = 
REMARK  5 active torsions:
REMARK  status: ('A' for Active; 'I' for Inactive)
REMARK    1  A    between atoms: N_1  and  C_2
REMARK    2  A    between atoms: C_2  and  C_3
REMARK    3  A    between atoms: C_5  and  C_6
REMARK    4  A    between atoms: C_6  and  N_7
REMARK    5  A    between atoms: C_12  and  C_13
REMARK                            x       y       z     vdW  Elec       q    Type
REMARK                         _______ _______ _______ _____ _____    ______ ____
ROOT
ATOM      1  N   UNL     1      47.184   7.003  12.771  0.00  0.00    +0.000 N 
ATOM      2  C   UNL     1      47.613   6.539  13.993  0.00  0.00    +0.000 A 
ATOM      3  C   UNL     1      47.141   5.254  14.149  0.00  0.00    +0.000 A 
ATOM      4  C   UNL     1      46.361   4.942  13.006  0.00  0.00    +0.000 A 
ATOM      5  C   UNL     1      45.621   3.823  12.585  0.00  0.00    +0.000 A 
ATOM      6  C   UNL     1      44.923   3.920  11.378  0.00  0.00    +0.000 A 
ATOM      7  C   UNL     1      45.034   5.100  10.641  0.00  0.00    +0.000 A 
ATOM      8  N   UNL     1      45.761   6.196  10.986  0.00  0.00    +0.000 NA
ATOM      9  C   UNL     1      46.388   6.058  12.172  0.00  0.00    +0.000 A 
ENDROOT
BRANCH   6  10
ATOM     10  C   UNL     1      44.056   2.839  10.847  0.00  0.00    +0.000 C 
ATOM     11  N   UNL     1      44.471   2.154   9.738  0.00  0.00    +0.000 N 
ATOM     12  O   UNL     1      42.996   2.550  11.386  0.00  0.00    +0.000 OA
ATOM     13  H   UNL     1      45.342   2.295   9.252  0.00  0.00    +0.000 HD
ATOM     14  H   UNL     1      43.874   1.401   9.419  0.00  0.00    +0.000 HD
ENDBRANCH   6  10
BRANCH   1  15
ATOM     15  C   UNL     1      47.609   8.252  12.167  0.00  0.00    +0.000 C 
BRANCH  15  18
ATOM     16  C   UNL     1      51.221   8.114  11.241  0.00  0.00    +0.000 C 
ATOM     17  C   UNL     1      49.873   7.432  11.392  0.00  0.00    +0.000 C 
ATOM     18  C   UNL     1      49.115   8.476  12.191  0.00  0.00    +0.000 C 
ATOM     19  C   UNL     1      49.592   9.763  11.528  0.00  0.00    +0.000 C 
ATOM     20  O   UNL     1      50.921   9.508  11.021  0.00  0.00    +0.000 OA
BRANCH  16  21
ATOM     21  C   UNL     1      52.126   7.537  10.143  0.00  0.00    +0.000 C 
BRANCH  21  22
ATOM     22  N   UNL     1      53.084   6.541  10.631  0.00  0.00    +0.000 NA
ATOM     23  H   UNL     1      53.930   6.586  10.065  0.00  0.00    +0.000 HD
ATOM     24  H   UNL     1      52.680   5.616  10.466  0.00  0.00    +0.000 HD
ENDBRANCH  21  22
ENDBRANCH  16  21
ENDBRANCH  15  18
ENDBRANCH   1  15
TORSDOF 5
ENDMDL
MODEL 7
REMARK VINA RESULT:    -5.603      4.511      5.908
REMARK INTER + INTRA:          -7.227
REMARK INTER:                  -6.999
REMARK INTRA:                  -0.229
REMARK UNBOUND:                -0.151
REMARK  Name = 
REMARK  5 active torsions:
REMARK  status: ('A' for Active; 'I' for Inactive)
REMARK    1  A    between atoms: N_1  and  C_2
REMARK    2  A    between atoms: C_2  and  C_3
REMARK    3  A    between atoms: C_5  and  C_6
REMARK    4  A    between atoms: C_6  and  N_7
REMARK    5  A    between atoms: C_12  and  C_13
REMARK                            x       y       z     vdW  Elec       q    Type
REMARK                         _______ _______ _______ _____ _____    ______ ____
ROOT
ATOM      1  N   UNL     1      46.020   4.478  13.098  0.00  0.00    +0.000 N 
ATOM      2  C   UNL     1      45.089   3.624  12.554  0.00  0.00    +0.000 A 
ATOM      3  C   UNL     1      44.224   4.372  11.786  0.00  0.00    +0.000 A 
ATOM      4  C   UNL     1      44.614   5.732  11.903  0.00  0.00    +0.000 A 
ATOM      5  C   UNL     1      44.137   6.948  11.384  0.00  0.00    +0.000 A 
ATOM      6  C   UNL     1      44.780   8.124  11.783  0.00  0.00    +0.000 A 
ATOM      7  C   UNL     1      45.881   8.021  12.634  0.00  0.00    +0.000 A 
ATOM      8  N   UNL     1      46.402   6.869  13.136  0.00  0.00    +0.000 NA
ATOM      9  C   UNL     1      45.725   5.771  12.743  0.00  0.00    +0.000 A 
ENDROOT
BRANCH   6  10
ATOM     10  C   UNL     1      44.342   9.478  11.362  0.00  0.00    +0.000 C 
ATOM     11  N   UNL     1      43.749   9.621  10.138  0.00  0.00    +0.000 N 
ATOM     12  O   UNL     1      44.494  10.451  12.088  0.00  0.00    +0.000 OA
ATOM     13  H   UNL     1      43.548   8.875   9.491  0.00  0.00    +0.000 HD
ATOM     14  H   UNL     1      43.431  10.550   9.892  0.00  0.00    +0.000 HD
ENDBRANCH   6  10
BRANCH   1  15
ATOM     15  C   UNL     1      47.197   4.055  13.835  0.00  0.00    +0.000 C 
BRANCH  15  18
ATOM     16  C   UNL     1      47.935   4.024  17.493  0.00  0.00    +0.000 C 
ATOM     17  C   UNL     1      47.695   3.280  16.191  0.00  0.00    +0.000 C 
ATOM     18  C   UNL     1      47.163   4.402  15.317  0.00  0.00    +0.000 C 
ATOM     19  C   UNL     1      48.063   5.558  15.736  0.00  0.00    +0.000 C 
ATOM     20  O   UNL     1      48.454   5.313  17.106  0.00  0.00    +0.000 OA
BRANCH  16  21
ATOM     21  C   UNL     1      48.852   3.309  18.496  0.00  0.00    +0.000 C 
BRANCH  21  22
ATOM     22  N   UNL     1      48.316   3.268  19.859  0.00  0.00    +0.000 NA
ATOM     23  H   UNL     1      48.340   4.207  20.255  0.00  0.00    +0.000 HD
ATOM     24  H   UNL     1      48.953   2.703  20.425  0.00  0.00    +0.000 HD
ENDBRANCH  21  22
ENDBRANCH  16  21
ENDBRANCH  15  18
ENDBRANCH   1  15
TORSDOF 5
ENDMDL
MODEL 8
REMARK VINA RESULT:    -5.474      4.731      8.380
REMARK INTER + INTRA:          -7.065
REMARK INTER:                  -6.790
REMARK INTRA:                  -0.275
REMARK UNBOUND:                -0.151
REMARK  Name = 
REMARK  5 active torsions:
REMARK  status: ('A' for Active; 'I' for Inactive)
REMARK    1  A    between atoms: N_1  and  C_2
REMARK    2  A    between atoms: C_2  and  C_3
REMARK    3  A    between atoms: C_5  and  C_6
REMARK    4  A    between atoms: C_6  and  N_7
REMARK    5  A    between atoms: C_12  and  C_13
REMARK                            x       y       z     vdW  Elec       q    Type
REMARK                         _______ _______ _______ _____ _____    ______ ____
ROOT
ATOM      1  N   UNL     1      48.561   7.153  14.302  0.00  0.00    +0.000 N 
ATOM      2  C   UNL     1      48.767   8.479  14.605  0.00  0.00    +0.000 A 
ATOM      3  C   UNL     1      48.927   8.583  15.969  0.00  0.00    +0.000 A 
ATOM      4  C   UNL     1      48.766   7.285  16.520  0.00  0.00    +0.000 A 
ATOM      5  C   UNL     1      48.800   6.747  17.818  0.00  0.00    +0.000 A 
ATOM      6  C   UNL     1      48.537   5.382  17.965  0.00  0.00    +0.000 A 
ATOM      7  C   UNL     1      48.301   4.625  16.816  0.00  0.00    +0.000 A 
ATOM      8  N   UNL     1      48.290   5.089  15.538  0.00  0.00    +0.000 NA
ATOM      9  C   UNL     1      48.519   6.416  15.459  0.00  0.00    +0.000 A 
ENDROOT
BRANCH   6  10
ATOM     10  C   UNL     1      48.479   4.698  19.281  0.00  0.00    +0.000 C 
ATOM     11  N   UNL     1      48.449   3.331  19.305  0.00  0.00    +0.000 N 
ATOM     12  O   UNL     1      48.470   5.332  20.328  0.00  0.00    +0.000 OA
ATOM     13  H   UNL     1      48.492   2.727  18.500  0.00  0.00    +0.000 HD
ATOM     14  H   UNL     1      48.443   2.892  20.218  0.00  0.00    +0.000 HD
ENDBRANCH   6  10
BRANCH   1  15
ATOM     15  C   UNL     1      48.514   6.612  12.956  0.00  0.00    +0.000 C 
BRANCH  15  18
ATOM     16  C   UNL     1      44.964   5.630  12.357  0.00  0.00    +0.000 C 
ATOM     17  C   UNL     1      46.397   5.253  12.689  0.00  0.00    +0.000 C 
ATOM     18  C   UNL     1      47.115   6.548  12.358  0.00  0.00    +0.000 C 
ATOM     19  C   UNL     1      46.131   7.581  12.895  0.00  0.00    +0.000 C 
ATOM     20  O   UNL     1      44.813   6.992  12.808  0.00  0.00    +0.000 OA
BRANCH  16  21
ATOM     21  C   UNL     1      43.890   4.704  12.947  0.00  0.00    +0.000 C 
BRANCH  21  22
ATOM     22  N   UNL     1      42.662   5.400  13.339  0.00  0.00    +0.000 NA
ATOM     23  H   UNL     1      42.896   6.343  13.646  0.00  0.00    +0.000 HD
ATOM     24  H   UNL     1      42.283   4.920  14.159  0.00  0.00    +0.000 HD
ENDBRANCH  21  22
ENDBRANCH  16  21
ENDBRANCH  15  18
ENDBRANCH   1  15
TORSDOF 5
ENDMDL
MODEL 9
REMARK VINA RESULT:    -5.354      3.851      5.969
REMARK INTER + INTRA:          -6.913
REMARK INTER:                  -6.525
REMARK INTRA:                  -0.388
REMARK UNBOUND:                -0.151
REMARK  Name = 
REMARK  5 active torsions:
REMARK  status: ('A' for Active; 'I' for Inactive)
REMARK    1  A    between atoms: N_1  and  C_2
REMARK    2  A    between atoms: C_2  and  C_3
REMARK    3  A    between atoms: C_5  and  C_6
REMARK    4  A    between atoms: C_6  and  N_7
REMARK    5  A    between atoms: C_12  and  C_13
REMARK                            x       y       z     vdW  Elec       q    Type
REMARK                         _______ _______ _______ _____ _____    ______ ____
ROOT
ATOM      1  N   UNL     1      47.921   6.348  13.774  0.00  0.00    +0.000 N 
ATOM      2  C   UNL     1      48.474   7.339  12.997  0.00  0.00    +0.000 A 
ATOM      3  C   UNL     1      47.755   7.409  11.824  0.00  0.00    +0.000 A 
ATOM      4  C   UNL     1      46.762   6.397  11.869  0.00  0.00    +0.000 A 
ATOM      5  C   UNL     1      45.751   5.960  10.995  0.00  0.00    +0.000 A 
ATOM      6  C   UNL     1      44.980   4.862  11.387  0.00  0.00    +0.000 A 
ATOM      7  C   UNL     1      45.228   4.291  12.636  0.00  0.00    +0.000 A 
ATOM      8  N   UNL     1      46.169   4.695  13.530  0.00  0.00    +0.000 NA
ATOM      9  C   UNL     1      46.901   5.737  13.088  0.00  0.00    +0.000 A 
ENDROOT
BRANCH   6  10
ATOM     10  C   UNL     1      43.923   4.260  10.537  0.00  0.00    +0.000 C 
ATOM     11  N   UNL     1      43.932   4.529   9.196  0.00  0.00    +0.000 N 
ATOM     12  O   UNL     1      43.064   3.530  11.011  0.00  0.00    +0.000 OA
ATOM     13  H   UNL     1      44.619   5.085   8.712  0.00  0.00    +0.000 HD
ATOM     14  H   UNL     1      43.218   4.078   8.636  0.00  0.00    +0.000 HD
ENDBRANCH   6  10
BRANCH   1  15
ATOM     15  C   UNL     1      48.290   6.077  15.152  0.00  0.00    +0.000 C 
BRANCH  15  18
ATOM     16  C   UNL     1      49.898   8.287  17.692  0.00  0.00    +0.000 C 
ATOM     17  C   UNL     1      48.667   7.583  17.148  0.00  0.00    +0.000 C 
ATOM     18  C   UNL     1      49.169   7.147  15.784  0.00  0.00    +0.000 C 
ATOM     19  C   UNL     1      50.590   6.709  16.116  0.00  0.00    +0.000 C 
ATOM     20  O   UNL     1      51.018   7.491  17.254  0.00  0.00    +0.000 OA
BRANCH  16  21
ATOM     21  C   UNL     1      49.905   8.512  19.211  0.00  0.00    +0.000 C 
BRANCH  21  22
ATOM     22  N   UNL     1      48.567   8.637  19.795  0.00  0.00    +0.000 NA
ATOM     23  H   UNL     1      47.880   8.696  19.045  0.00  0.00    +0.000 HD
ATOM     24  H   UNL     1      48.528   9.532  20.288  0.00  0.00    +0.000 HD
ENDBRANCH  21  22
ENDBRANCH  16  21
ENDBRANCH  15  18
ENDBRANCH   1  15
TORSDOF 5
ENDMDL
