MODEL 1
REMARK VINA RESULT:    -8.322      0.000      0.000
REMARK INTER + INTRA:         -12.534
REMARK INTER:                 -11.728
REMARK INTRA:                  -0.806
REMARK UNBOUND:                -0.806
REMARK  Name = 
REMARK  7 active torsions:
REMARK  status: ('A' for Active; 'I' for Inactive)
REMARK    1  A    between atoms: C_2  and  C_3
REMARK    2  A    between atoms: C_7  and  C_8
REMARK    3  A    between atoms: C_8  and  O_9
REMARK    4  A    between atoms: O_9  and  C_10
REMARK    5  A    between atoms: C_13  and  C_14
REMARK    6  A    between atoms: C_14  and  N_15
REMARK    7  A    between atoms: C_16  and  C_18
REMARK                            x       y       z     vdW  Elec       q    Type
REMARK                         _______ _______ _______ _____ _____    ______ ____
ROOT
ATOM      1  C   UNL     1      45.094   3.796  12.673  0.00  0.00    +0.000 A 
ATOM      2  C   UNL     1      44.800   5.154  12.595  0.00  0.00    +0.000 A 
ATOM      3  C   UNL     1      45.776   6.072  13.006  0.00  0.00    +0.000 A 
ATOM      4  C   UNL     1      46.986   5.619  13.528  0.00  0.00    +0.000 A 
ATOM      5  C   UNL     1      47.160   4.237  13.584  0.00  0.00    +0.000 A 
ATOM      6  N   UNL     1      46.251   3.326  13.170  0.00  0.00    +0.000 NA
ENDROOT
BRANCH   1   7
ATOM      7  O   UNL     1      44.143   2.868  12.292  0.00  0.00    +0.000 OA
BRANCH   7   8
ATOM      8  C   UNL     1      43.432   3.288  11.112  0.00  0.00    +0.000 C 
BRANCH   8  13
ATOM      9  C   UNL     1      45.821   2.034   8.406  0.00  0.00    +0.000 A 
ATOM     10  C   UNL     1      46.156   3.216   7.750  0.00  0.00    +0.000 A 
ATOM     11  C   UNL     1      45.613   4.430   8.174  0.00  0.00    +0.000 A 
ATOM     12  C   UNL     1      44.732   4.460   9.258  0.00  0.00    +0.000 A 
ATOM     13  C   UNL     1      44.387   3.281   9.934  0.00  0.00    +0.000 A 
ATOM     14  C   UNL     1      44.931   2.065   9.490  0.00  0.00    +0.000 A 
BRANCH   9  16
ATOM     15  N   UNL     1      46.865  -0.221   7.657  0.00  0.00    +0.000 NA
ATOM     16  C   UNL     1      46.391   0.795   7.993  0.00  0.00    +0.000 C 
ENDBRANCH   9  16
ENDBRANCH   8  13
ENDBRANCH   7   8
ENDBRANCH   1   7
BRANCH   4  17
ATOM     17  C   UNL     1      48.081   6.524  14.029  0.00  0.00    +0.000 C 
BRANCH  17  18
ATOM     18  N   UNL     1      48.175   6.603  15.471  0.00  0.00    +0.000 N 
ATOM     19  C   UNL     1      49.383   6.654  16.120  0.00  0.00    +0.000 C 
ATOM     20  O   UNL     1      50.459   6.655  15.527  0.00  0.00    +0.000 OA
ATOM     21  H   UNL     1      47.401   6.212  16.001  0.00  0.00    +0.000 HD
BRANCH  19  22
ATOM     22  C   UNL     1      49.332   6.760  17.578  0.00  0.00    +0.000 A 
ATOM     23  C   UNL     1      49.652   7.963  18.191  0.00  0.00    +0.000 A 
ATOM     24  S   UNL     1      49.585   7.897  19.894  0.00  0.00    +0.000 S 
ATOM     25  C   UNL     1      49.145   6.252  19.869  0.00  0.00    +0.000 A 
ATOM     26  N   UNL     1      48.976   5.554  21.023  0.00  0.00    +0.000 NA
ATOM     27  C   UNL     1      48.664   4.312  20.857  0.00  0.00    +0.000 A 
ATOM     28  N   UNL     1      48.487   3.709  19.638  0.00  0.00    +0.000 N 
ATOM     29  C   UNL     1      48.591   4.390  18.450  0.00  0.00    +0.000 A 
ATOM     30  O   UNL     1      48.320   3.855  17.373  0.00  0.00    +0.000 OA
ATOM     31  C   UNL     1      49.001   5.774  18.578  0.00  0.00    +0.000 A 
ATOM     32  H   UNL     1      48.201   2.742  19.582  0.00  0.00    +0.000 HD
ENDBRANCH  19  22
ENDBRANCH  17  18
ENDBRANCH   4  17
TORSDOF 7
ENDMDL
MODEL 2
REMARK VINA RESULT:    -7.781      1.778      2.493
REMARK INTER + INTRA:         -11.772
REMARK INTER:                 -10.746
REMARK INTRA:                  -1.026
REMARK UNBOUND:                -0.806
REMARK  Name = 
REMARK  7 active torsions:
REMARK  status: ('A' for Active; 'I' for Inactive)
REMARK    1  A    between atoms: C_2  and  C_3
REMARK    2  A    between atoms: C_7  and  C_8
REMARK    3  A    between atoms: C_8  and  O_9
REMARK    4  A    between atoms: O_9  and  C_10
REMARK    5  A    between atoms: C_13  and  C_14
REMARK    6  A    between atoms: C_14  and  N_15
REMARK    7  A    between atoms: C_16  and  C_18
REMARK                            x       y       z     vdW  Elec       q    Type
REMARK                         _______ _______ _______ _____ _____    ______ ____
ROOT
ATOM      1  C   UNL     1      45.249   4.397  11.924  0.00  0.00    +0.000 A 
ATOM      2  C   UNL     1      46.100   3.942  12.927  0.00  0.00    +0.000 A 
ATOM      3  C   UNL     1      46.934   4.869  13.565  0.00  0.00    +0.000 A 
ATOM      4  C   UNL     1      46.940   6.202  13.156  0.00  0.00    +0.000 A 
ATOM      5  C   UNL     1      46.066   6.538  12.123  0.00  0.00    +0.000 A 
ATOM      6  N   UNL     1      45.228   5.674  11.507  0.00  0.00    +0.000 NA
ENDROOT
BRANCH   1   7
ATOM      7  O   UNL     1      44.428   3.501  11.266  0.00  0.00    +0.000 OA
BRANCH   7   8
ATOM      8  C   UNL     1      44.059   3.980   9.959  0.00  0.00    +0.000 C 
BRANCH   8  13
ATOM      9  C   UNL     1      46.327   1.723   7.871  0.00  0.00    +0.000 A 
ATOM     10  C   UNL     1      47.027   2.651   7.105  0.00  0.00    +0.000 A 
ATOM     11  C   UNL     1      46.774   4.015   7.253  0.00  0.00    +0.000 A 
ATOM     12  C   UNL     1      45.816   4.451   8.172  0.00  0.00    +0.000 A 
ATOM     13  C   UNL     1      45.103   3.531   8.956  0.00  0.00    +0.000 A 
ATOM     14  C   UNL     1      45.360   2.161   8.788  0.00  0.00    +0.000 A 
BRANCH   9  16
ATOM     15  N   UNL     1      46.822  -0.813   7.626  0.00  0.00    +0.000 NA
ATOM     16  C   UNL     1      46.599   0.329   7.740  0.00  0.00    +0.000 C 
ENDBRANCH   9  16
ENDBRANCH   8  13
ENDBRANCH   7   8
ENDBRANCH   1   7
BRANCH   4  17
ATOM     17  C   UNL     1      47.825   7.265  13.753  0.00  0.00    +0.000 C 
BRANCH  17  18
ATOM     18  N   UNL     1      47.927   7.213  15.196  0.00  0.00    +0.000 N 
ATOM     19  C   UNL     1      49.104   6.902  15.831  0.00  0.00    +0.000 C 
ATOM     20  O   UNL     1      50.146   6.666  15.226  0.00  0.00    +0.000 OA
ATOM     21  H   UNL     1      47.076   6.998  15.707  0.00  0.00    +0.000 HD
BRANCH  19  22
ATOM     22  C   UNL     1      49.074   6.911  17.294  0.00  0.00    +0.000 A 
ATOM     23  C   UNL     1      49.595   5.835  17.998  0.00  0.00    +0.000 A 
ATOM     24  S   UNL     1      49.437   5.989  19.689  0.00  0.00    +0.000 S 
ATOM     25  C   UNL     1      48.650   7.491  19.535  0.00  0.00    +0.000 A 
ATOM     26  N   UNL     1      48.192   8.158  20.628  0.00  0.00    +0.000 NA
ATOM     27  C   UNL     1      47.597   9.273  20.364  0.00  0.00    +0.000 A 
ATOM     28  N   UNL     1      47.435   9.792  19.105  0.00  0.00    +0.000 N 
ATOM     29  C   UNL     1      47.932   9.180  17.980  0.00  0.00    +0.000 A 
ATOM     30  O   UNL     1      47.872   9.719  16.873  0.00  0.00    +0.000 OA
ATOM     31  C   UNL     1      48.555   7.893  18.214  0.00  0.00    +0.000 A 
ATOM     32  H   UNL     1      46.996  10.693  18.974  0.00  0.00    +0.000 HD
ENDBRANCH  19  22
ENDBRANCH  17  18
ENDBRANCH   4  17
TORSDOF 7
ENDMDL
MODEL 3
REMARK VINA RESULT:    -7.485      3.480      8.380
REMARK INTER + INTRA:         -11.355
REMARK INTER:                 -10.192
REMARK INTRA:                  -1.162
REMARK UNBOUND:                -0.806
REMARK  Name = 
REMARK  7 active torsions:
REMARK  status: ('A' for Active; 'I' for Inactive)
REMARK    1  A    between atoms: C_2  and  C_3
REMARK    2  A    between atoms: C_7  and  C_8
REMARK    3  A    between atoms: C_8  and  O_9
REMARK    4  A    between atoms: O_9  and  C_10
REMARK    5  A    between atoms: C_13  and  C_14
REMARK    6  A    between atoms: C_14  and  N_15
REMARK    7  A    between atoms: C_16  and  C_18
REMARK                            x       y       z     vdW  Elec       q    Type
REMARK                         _______ _______ _______ _____ _____    ______ ____
ROOT
ATOM      1  C   UNL     1      49.591   7.544  16.120  0.00  0.00    +0.000 A 
ATOM      2  C   UNL     1      48.668   8.582  16.030  0.00  0.00    +0.000 A 
ATOM      3  C   UNL     1      48.062   8.830  14.792  0.00  0.00    +0.000 A 
ATOM      4  C   UNL     1      48.426   8.082  13.673  0.00  0.00    +0.000 A 
ATOM      5  C   UNL     1      49.382   7.088  13.875  0.00  0.00    +0.000 A 
ATOM      6  N   UNL     1      49.963   6.804  15.062  0.00  0.00    +0.000 NA
ENDROOT
BRANCH   1   7
ATOM      7  O   UNL     1      50.218   7.289  17.325  0.00  0.00    +0.000 OA
BRANCH   7   8
ATOM      8  C   UNL     1      49.295   6.783  18.308  0.00  0.00    +0.000 C 
BRANCH   8  13
ATOM      9  C   UNL     1      49.457   3.076  17.397  0.00  0.00    +0.000 A 
ATOM     10  C   UNL     1      48.116   2.779  17.170  0.00  0.00    +0.000 A 
ATOM     11  C   UNL     1      47.145   3.771  17.309  0.00  0.00    +0.000 A 
ATOM     12  C   UNL     1      47.519   5.066  17.678  0.00  0.00    +0.000 A 
ATOM     13  C   UNL     1      48.865   5.386  17.906  0.00  0.00    +0.000 A 
ATOM     14  C   UNL     1      49.830   4.374  17.774  0.00  0.00    +0.000 A 
BRANCH   9  16
ATOM     15  N   UNL     1      51.271   1.245  17.092  0.00  0.00    +0.000 NA
ATOM     16  C   UNL     1      50.456   2.072  17.232  0.00  0.00    +0.000 C 
ENDBRANCH   9  16
ENDBRANCH   8  13
ENDBRANCH   7   8
ENDBRANCH   1   7
BRANCH   4  17
ATOM     17  C   UNL     1      47.860   8.297  12.294  0.00  0.00    +0.000 C 
BRANCH  17  18
ATOM     18  N   UNL     1      47.287   7.111  11.694  0.00  0.00    +0.000 N 
ATOM     19  C   UNL     1      45.950   7.019  11.395  0.00  0.00    +0.000 C 
ATOM     20  O   UNL     1      45.158   7.936  11.597  0.00  0.00    +0.000 OA
ATOM     21  H   UNL     1      47.764   6.232  11.876  0.00  0.00    +0.000 HD
BRANCH  19  22
ATOM     22  C   UNL     1      45.510   5.774  10.767  0.00  0.00    +0.000 A 
ATOM     23  C   UNL     1      45.773   5.552   9.423  0.00  0.00    +0.000 A 
ATOM     24  S   UNL     1      45.152   4.073   8.844  0.00  0.00    +0.000 S 
ATOM     25  C   UNL     1      44.492   3.690  10.366  0.00  0.00    +0.000 A 
ATOM     26  N   UNL     1      43.769   2.553  10.552  0.00  0.00    +0.000 NA
ATOM     27  C   UNL     1      43.311   2.398  11.749  0.00  0.00    +0.000 A 
ATOM     28  N   UNL     1      43.529   3.270  12.785  0.00  0.00    +0.000 N 
ATOM     29  C   UNL     1      44.301   4.399  12.657  0.00  0.00    +0.000 A 
ATOM     30  O   UNL     1      44.574   5.107  13.628  0.00  0.00    +0.000 OA
ATOM     31  C   UNL     1      44.787   4.652  11.316  0.00  0.00    +0.000 A 
ATOM     32  H   UNL     1      43.176   3.065  13.710  0.00  0.00    +0.000 HD
ENDBRANCH  19  22
ENDBRANCH  17  18
ENDBRANCH   4  17
TORSDOF 7
ENDMDL
MODEL 4
REMARK VINA RESULT:    -7.433      3.209      8.752
REMARK INTER + INTRA:         -11.281
REMARK INTER:                 -10.166
REMARK INTRA:                  -1.115
REMARK UNBOUND:                -0.806
REMARK  Name = 
REMARK  7 active torsions:
REMARK  status: ('A' for Active; 'I' for Inactive)
REMARK    1  A    between atoms: C_2  and  C_3
REMARK    2  A    between atoms: C_7  and  C_8
REMARK    3  A    between atoms: C_8  and  O_9
REMARK    4  A    between atoms: O_9  and  C_10
REMARK    5  A    between atoms: C_13  and  C_14
REMARK    6  A    between atoms: C_14  and  N_15
REMARK    7  A    between atoms: C_16  and  C_18
REMARK                            x       y       z     vdW  Elec       q    Type
REMARK                         _______ _______ _______ _____ _____    ______ ____
ROOT
ATOM      1  C   UNL     1      49.389   7.510  15.690  0.00  0.00    +0.000 A 
ATOM      2  C   UNL     1      48.461   8.540  15.576  0.00  0.00    +0.000 A 
ATOM      3  C   UNL     1      47.720   8.644  14.392  0.00  0.00    +0.000 A 
ATOM      4  C   UNL     1      47.958   7.760  13.340  0.00  0.00    +0.000 A 
ATOM      5  C   UNL     1      48.932   6.786  13.555  0.00  0.00    +0.000 A 
ATOM      6  N   UNL     1      49.642   6.642  14.696  0.00  0.00    +0.000 NA
ENDROOT
BRANCH   1   7
ATOM      7  O   UNL     1      50.147   7.396  16.840  0.00  0.00    +0.000 OA
BRANCH   7   8
ATOM      8  C   UNL     1      49.353   6.959  17.959  0.00  0.00    +0.000 C 
BRANCH   8  13
ATOM      9  C   UNL     1      49.456   3.183  17.389  0.00  0.00    +0.000 A 
ATOM     10  C   UNL     1      48.103   2.875  17.264  0.00  0.00    +0.000 A 
ATOM     11  C   UNL     1      47.144   3.883  17.364  0.00  0.00    +0.000 A 
ATOM     12  C   UNL     1      47.540   5.204  17.590  0.00  0.00    +0.000 A 
ATOM     13  C   UNL     1      48.898   5.534  17.713  0.00  0.00    +0.000 A 
ATOM     14  C   UNL     1      49.852   4.507  17.622  0.00  0.00    +0.000 A 
BRANCH   9  16
ATOM     15  N   UNL     1      51.253   1.325  17.155  0.00  0.00    +0.000 NA
ATOM     16  C   UNL     1      50.442   2.160  17.263  0.00  0.00    +0.000 C 
ENDBRANCH   9  16
ENDBRANCH   8  13
ENDBRANCH   7   8
ENDBRANCH   1   7
BRANCH   4  17
ATOM     17  C   UNL     1      47.242   7.812  12.015  0.00  0.00    +0.000 C 
BRANCH  17  18
ATOM     18  N   UNL     1      46.590   6.574  11.642  0.00  0.00    +0.000 N 
ATOM     19  C   UNL     1      45.305   6.285  12.026  0.00  0.00    +0.000 C 
ATOM     20  O   UNL     1      44.618   7.056  12.690  0.00  0.00    +0.000 OA
ATOM     21  H   UNL     1      47.194   5.776  11.467  0.00  0.00    +0.000 HD
BRANCH  19  22
ATOM     22  C   UNL     1      44.760   5.011  11.557  0.00  0.00    +0.000 A 
ATOM     23  C   UNL     1      43.945   4.263  12.395  0.00  0.00    +0.000 A 
ATOM     24  S   UNL     1      43.435   2.787  11.708  0.00  0.00    +0.000 S 
ATOM     25  C   UNL     1      44.303   3.091  10.274  0.00  0.00    +0.000 A 
ATOM     26  N   UNL     1      44.332   2.179   9.266  0.00  0.00    +0.000 NA
ATOM     27  C   UNL     1      45.044   2.529   8.248  0.00  0.00    +0.000 A 
ATOM     28  N   UNL     1      45.716   3.721   8.139  0.00  0.00    +0.000 N 
ATOM     29  C   UNL     1      45.666   4.693   9.107  0.00  0.00    +0.000 A 
ATOM     30  O   UNL     1      46.186   5.798   8.939  0.00  0.00    +0.000 OA
ATOM     31  C   UNL     1      44.930   4.324  10.300  0.00  0.00    +0.000 A 
ATOM     32  H   UNL     1      46.220   3.948   7.293  0.00  0.00    +0.000 HD
ENDBRANCH  19  22
ENDBRANCH  17  18
ENDBRANCH   4  17
TORSDOF 7
ENDMDL
MODEL 5
REMARK VINA RESULT:    -7.353      3.449      4.626
REMARK INTER + INTRA:         -11.168
REMARK INTER:                 -10.237
REMARK INTRA:                  -0.930
REMARK UNBOUND:                -0.806
REMARK  Name = 
REMARK  7 active torsions:
REMARK  status: ('A' for Active; 'I' for Inactive)
REMARK    1  A    between atoms: C_2  and  C_3
REMARK    2  A    between atoms: C_7  and  C_8
REMARK    3  A    between atoms: C_8  and  O_9
REMARK    4  A    between atoms: O_9  and  C_10
REMARK    5  A    between atoms: C_13  and  C_14
REMARK    6  A    between atoms: C_14  and  N_15
REMARK    7  A    between atoms: C_16  and  C_18
REMARK                            x       y       z     vdW  Elec       q    Type
REMARK                         _______ _______ _______ _____ _____    ______ ____
ROOT
ATOM      1  C   UNL     1      47.500   5.770  13.801  0.00  0.00    +0.000 A 
ATOM      2  C   UNL     1      46.919   4.506  13.812  0.00  0.00    +0.000 A 
ATOM      3  C   UNL     1      47.008   3.741  14.982  0.00  0.00    +0.000 A 
ATOM      4  C   UNL     1      47.712   4.226  16.083  0.00  0.00    +0.000 A 
ATOM      5  C   UNL     1      48.277   5.493  15.949  0.00  0.00    +0.000 A 
ATOM      6  N   UNL     1      48.185   6.269  14.845  0.00  0.00    +0.000 NA
ENDROOT
BRANCH   1   7
ATOM      7  O   UNL     1      47.443   6.539  12.654  0.00  0.00    +0.000 OA
BRANCH   7   8
ATOM      8  C   UNL     1      46.140   7.123  12.468  0.00  0.00    +0.000 C 
BRANCH   8  13
ATOM      9  C   UNL     1      45.092   4.838   9.591  0.00  0.00    +0.000 A 
ATOM     10  C   UNL     1      43.800   4.479   9.967  0.00  0.00    +0.000 A 
ATOM     11  C   UNL     1      43.255   4.969  11.153  0.00  0.00    +0.000 A 
ATOM     12  C   UNL     1      44.005   5.822  11.967  0.00  0.00    +0.000 A 
ATOM     13  C   UNL     1      45.306   6.199  11.602  0.00  0.00    +0.000 A 
ATOM     14  C   UNL     1      45.847   5.689  10.411  0.00  0.00    +0.000 A 
BRANCH   9  16
ATOM     15  N   UNL     1      46.106   3.969   7.365  0.00  0.00    +0.000 NA
ATOM     16  C   UNL     1      45.646   4.359   8.367  0.00  0.00    +0.000 C 
ENDBRANCH   9  16
ENDBRANCH   8  13
ENDBRANCH   7   8
ENDBRANCH   1   7
BRANCH   4  17
ATOM     17  C   UNL     1      47.895   3.466  17.370  0.00  0.00    +0.000 C 
BRANCH  17  18
ATOM     18  N   UNL     1      49.276   3.202  17.715  0.00  0.00    +0.000 N 
ATOM     19  C   UNL     1      50.037   2.291  17.024  0.00  0.00    +0.000 C 
ATOM     20  O   UNL     1      49.608   1.657  16.064  0.00  0.00    +0.000 OA
ATOM     21  H   UNL     1      49.544   3.365  18.681  0.00  0.00    +0.000 HD
BRANCH  19  22
ATOM     22  C   UNL     1      51.425   2.142  17.461  0.00  0.00    +0.000 A 
ATOM     23  C   UNL     1      51.959   0.873  17.628  0.00  0.00    +0.000 A 
ATOM     24  S   UNL     1      53.571   0.882  18.184  0.00  0.00    +0.000 S 
ATOM     25  C   UNL     1      53.603   2.584  18.236  0.00  0.00    +0.000 A 
ATOM     26  N   UNL     1      54.700   3.252  18.682  0.00  0.00    +0.000 NA
ATOM     27  C   UNL     1      54.579   4.537  18.688  0.00  0.00    +0.000 A 
ATOM     28  N   UNL     1      53.463   5.217  18.269  0.00  0.00    +0.000 N 
ATOM     29  C   UNL     1      52.357   4.585  17.758  0.00  0.00    +0.000 A 
ATOM     30  O   UNL     1      51.412   5.220  17.285  0.00  0.00    +0.000 OA
ATOM     31  C   UNL     1      52.417   3.138  17.787  0.00  0.00    +0.000 A 
ATOM     32  H   UNL     1      53.453   6.227  18.261  0.00  0.00    +0.000 HD
ENDBRANCH  19  22
ENDBRANCH  17  18
ENDBRANCH   4  17
TORSDOF 7
ENDMDL
MODEL 6
REMARK VINA RESULT:    -7.206      2.543      3.188
REMARK INTER + INTRA:         -10.961
REMARK INTER:                  -9.922
REMARK INTRA:                  -1.039
REMARK UNBOUND:                -0.806
REMARK  Name = 
REMARK  7 active torsions:
REMARK  status: ('A' for Active; 'I' for Inactive)
REMARK    1  A    between atoms: C_2  and  C_3
REMARK    2  A    between atoms: C_7  and  C_8
REMARK    3  A    between atoms: C_8  and  O_9
REMARK    4  A    between atoms: O_9  and  C_10
REMARK    5  A    between atoms: C_13  and  C_14
REMARK    6  A    between atoms: C_14  and  N_15
REMARK    7  A    between atoms: C_16  and  C_18
REMARK                            x       y       z     vdW  Elec       q    Type
REMARK                         _______ _______ _______ _____ _____    ______ ____
ROOT
ATOM      1  C   UNL     1      46.041   6.453  12.908  0.00  0.00    +0.000 A 
ATOM      2  C   UNL     1      46.887   5.499  13.464  0.00  0.00    +0.000 A 
ATOM      3  C   UNL     1      47.982   5.937  14.221  0.00  0.00    +0.000 A 
ATOM      4  C   UNL     1      48.234   7.301  14.359  0.00  0.00    +0.000 A 
ATOM      5  C   UNL     1      47.336   8.165  13.734  0.00  0.00    +0.000 A 
ATOM      6  N   UNL     1      46.255   7.775  13.022  0.00  0.00    +0.000 NA
ENDROOT
BRANCH   1   7
ATOM      7  O   UNL     1      44.965   6.049  12.141  0.00  0.00    +0.000 OA
BRANCH   7   8
ATOM      8  C   UNL     1      45.224   6.210  10.734  0.00  0.00    +0.000 C 
BRANCH   8  13
ATOM      9  C   UNL     1      45.627   3.413   8.162  0.00  0.00    +0.000 A 
ATOM     10  C   UNL     1      44.915   2.374   8.756  0.00  0.00    +0.000 A 
ATOM     11  C   UNL     1      44.298   2.565   9.992  0.00  0.00    +0.000 A 
ATOM     12  C   UNL     1      44.395   3.800  10.638  0.00  0.00    +0.000 A 
ATOM     13  C   UNL     1      45.104   4.861  10.053  0.00  0.00    +0.000 A 
ATOM     14  C   UNL     1      45.729   4.651   8.813  0.00  0.00    +0.000 A 
BRANCH   9  16
ATOM     15  N   UNL     1      46.741   3.089   5.841  0.00  0.00    +0.000 NA
ATOM     16  C   UNL     1      46.238   3.231   6.887  0.00  0.00    +0.000 C 
ENDBRANCH   9  16
ENDBRANCH   8  13
ENDBRANCH   7   8
ENDBRANCH   1   7
BRANCH   4  17
ATOM     17  C   UNL     1      49.403   7.871  15.120  0.00  0.00    +0.000 C 
BRANCH  17  18
ATOM     18  N   UNL     1      50.282   6.874  15.695  0.00  0.00    +0.000 N 
ATOM     19  C   UNL     1      50.120   6.417  16.979  0.00  0.00    +0.000 C 
ATOM     20  O   UNL     1      49.218   6.804  17.716  0.00  0.00    +0.000 OA
ATOM     21  H   UNL     1      51.225   6.826  15.320  0.00  0.00    +0.000 HD
BRANCH  19  22
ATOM     22  C   UNL     1      51.062   5.390  17.424  0.00  0.00    +0.000 A 
ATOM     23  C   UNL     1      52.291   5.766  17.947  0.00  0.00    +0.000 A 
ATOM     24  S   UNL     1      53.281   4.444  18.373  0.00  0.00    +0.000 S 
ATOM     25  C   UNL     1      52.107   3.325  17.856  0.00  0.00    +0.000 A 
ATOM     26  N   UNL     1      52.345   1.987  17.900  0.00  0.00    +0.000 NA
ATOM     27  C   UNL     1      51.377   1.256  17.458  0.00  0.00    +0.000 A 
ATOM     28  N   UNL     1      50.182   1.742  16.992  0.00  0.00    +0.000 N 
ATOM     29  C   UNL     1      49.878   3.082  16.984  0.00  0.00    +0.000 A 
ATOM     30  O   UNL     1      48.758   3.487  16.665  0.00  0.00    +0.000 OA
ATOM     31  C   UNL     1      50.955   3.951  17.412  0.00  0.00    +0.000 A 
ATOM     32  H   UNL     1      49.451   1.110  16.700  0.00  0.00    +0.000 HD
ENDBRANCH  19  22
ENDBRANCH  17  18
ENDBRANCH   4  17
TORSDOF 7
ENDMDL
MODEL 7
REMARK VINA RESULT:    -6.996      5.048      9.266
REMARK INTER + INTRA:         -10.664
REMARK INTER:                  -9.869
REMARK INTRA:                  -0.795
REMARK UNBOUND:                -0.806
REMARK  Name = 
REMARK  7 active torsions:
REMARK  status: ('A' for Active; 'I' for Inactive)
REMARK    1  A    between atoms: C_2  and  C_3
REMARK    2  A    between atoms: C_7  and  C_8
REMARK    3  A    between atoms: C_8  and  O_9
REMARK    4  A    between atoms: O_9  and  C_10
REMARK    5  A    between atoms: C_13  and  C_14
REMARK    6  A    between atoms: C_14  and  N_15
REMARK    7  A    between atoms: C_16  and  C_18
REMARK                            x       y       z     vdW  Elec       q    Type
REMARK                         _______ _______ _______ _____ _____    ______ ____
ROOT
ATOM      1  C   UNL     1      51.642   3.389  17.735  0.00  0.00    +0.000 A 
ATOM      2  C   UNL     1      51.035   2.223  17.280  0.00  0.00    +0.000 A 
ATOM      3  C   UNL     1      49.659   2.244  17.021  0.00  0.00    +0.000 A 
ATOM      4  C   UNL     1      48.919   3.399  17.269  0.00  0.00    +0.000 A 
ATOM      5  C   UNL     1      49.627   4.499  17.751  0.00  0.00    +0.000 A 
ATOM      6  N   UNL     1      50.959   4.520  17.983  0.00  0.00    +0.000 NA
ENDROOT
BRANCH   1   7
ATOM      7  O   UNL     1      52.995   3.391  18.016  0.00  0.00    +0.000 OA
BRANCH   7   8
ATOM      8  C   UNL     1      53.401   2.182  18.684  0.00  0.00    +0.000 C 
BRANCH   8  13
ATOM      9  C   UNL     1      54.944  -0.852  16.949  0.00  0.00    +0.000 A 
ATOM     10  C   UNL     1      55.733  -0.252  15.971  0.00  0.00    +0.000 A 
ATOM     11  C   UNL     1      55.775   1.138  15.861  0.00  0.00    +0.000 A 
ATOM     12  C   UNL     1      55.023   1.930  16.733  0.00  0.00    +0.000 A 
ATOM     13  C   UNL     1      54.226   1.344  17.727  0.00  0.00    +0.000 A 
ATOM     14  C   UNL     1      54.185  -0.057  17.819  0.00  0.00    +0.000 A 
BRANCH   9  16
ATOM     15  N   UNL     1      54.901  -3.436  17.191  0.00  0.00    +0.000 NA
ATOM     16  C   UNL     1      54.917  -2.272  17.081  0.00  0.00    +0.000 C 
ENDBRANCH   9  16
ENDBRANCH   8  13
ENDBRANCH   7   8
ENDBRANCH   1   7
BRANCH   4  17
ATOM     17  C   UNL     1      47.431   3.511  17.058  0.00  0.00    +0.000 C 
BRANCH  17  18
ATOM     18  N   UNL     1      47.044   4.477  16.052  0.00  0.00    +0.000 N 
ATOM     19  C   UNL     1      47.041   4.173  14.714  0.00  0.00    +0.000 C 
ATOM     20  O   UNL     1      47.347   3.065  14.282  0.00  0.00    +0.000 OA
ATOM     21  H   UNL     1      47.176   5.457  16.286  0.00  0.00    +0.000 HD
BRANCH  19  22
ATOM     22  C   UNL     1      46.602   5.234  13.808  0.00  0.00    +0.000 A 
ATOM     23  C   UNL     1      47.347   6.400  13.705  0.00  0.00    +0.000 A 
ATOM     24  S   UNL     1      46.669   7.548  12.641  0.00  0.00    +0.000 S 
ATOM     25  C   UNL     1      45.347   6.531  12.297  0.00  0.00    +0.000 A 
ATOM     26  N   UNL     1      44.345   6.938  11.473  0.00  0.00    +0.000 NA
ATOM     27  C   UNL     1      43.397   6.076  11.317  0.00  0.00    +0.000 A 
ATOM     28  N   UNL     1      43.370   4.833  11.896  0.00  0.00    +0.000 N 
ATOM     29  C   UNL     1      44.388   4.360  12.687  0.00  0.00    +0.000 A 
ATOM     30  O   UNL     1      44.394   3.200  13.105  0.00  0.00    +0.000 OA
ATOM     31  C   UNL     1      45.449   5.312  12.945  0.00  0.00    +0.000 A 
ATOM     32  H   UNL     1      42.616   4.191  11.696  0.00  0.00    +0.000 HD
ENDBRANCH  19  22
ENDBRANCH  17  18
ENDBRANCH   4  17
TORSDOF 7
ENDMDL
MODEL 8
REMARK VINA RESULT:    -6.816      3.488      4.462
REMARK INTER + INTRA:         -10.412
REMARK INTER:                  -9.439
REMARK INTRA:                  -0.973
REMARK UNBOUND:                -0.806
REMARK  Name = 
REMARK  7 active torsions:
REMARK  status: ('A' for Active; 'I' for Inactive)
REMARK    1  A    between atoms: C_2  and  C_3
REMARK    2  A    between atoms: C_7  and  C_8
REMARK    3  A    between atoms: C_8  and  O_9
REMARK    4  A    between atoms: O_9  and  C_10
REMARK    5  A    between atoms: C_13  and  C_14
REMARK    6  A    between atoms: C_14  and  N_15
REMARK    7  A    between atoms: C_16  and  C_18
REMARK                            x       y       z     vdW  Elec       q    Type
REMARK                         _______ _______ _______ _____ _____    ______ ____
ROOT
ATOM      1  C   UNL     1      47.597   6.307  13.477  0.00  0.00    +0.000 A 
ATOM      2  C   UNL     1      47.115   5.075  13.907  0.00  0.00    +0.000 A 
ATOM      3  C   UNL     1      47.436   4.648  15.202  0.00  0.00    +0.000 A 
ATOM      4  C   UNL     1      48.264   5.426  16.009  0.00  0.00    +0.000 A 
ATOM      5  C   UNL     1      48.711   6.628  15.464  0.00  0.00    +0.000 A 
ATOM      6  N   UNL     1      48.396   7.082  14.230  0.00  0.00    +0.000 NA
ENDROOT
BRANCH   1   7
ATOM      7  O   UNL     1      47.312   6.744  12.197  0.00  0.00    +0.000 OA
BRANCH   7   8
ATOM      8  C   UNL     1      45.924   7.103  12.055  0.00  0.00    +0.000 C 
BRANCH   8  13
ATOM      9  C   UNL     1      45.117   4.530   9.349  0.00  0.00    +0.000 A 
ATOM     10  C   UNL     1      43.925   3.985   9.819  0.00  0.00    +0.000 A 
ATOM     11  C   UNL     1      43.370   4.441  11.014  0.00  0.00    +0.000 A 
ATOM     12  C   UNL     1      44.011   5.447  11.743  0.00  0.00    +0.000 A 
ATOM     13  C   UNL     1      45.210   6.012  11.282  0.00  0.00    +0.000 A 
ATOM     14  C   UNL     1      45.763   5.535  10.083  0.00  0.00    +0.000 A 
BRANCH   9  16
ATOM     15  N   UNL     1      46.140   3.723   7.104  0.00  0.00    +0.000 NA
ATOM     16  C   UNL     1      45.676   4.084   8.114  0.00  0.00    +0.000 C 
ENDBRANCH   9  16
ENDBRANCH   8  13
ENDBRANCH   7   8
ENDBRANCH   1   7
BRANCH   4  17
ATOM     17  C   UNL     1      48.695   5.037  17.400  0.00  0.00    +0.000 C 
BRANCH  17  18
ATOM     18  N   UNL     1      50.034   4.492  17.477  0.00  0.00    +0.000 N 
ATOM     19  C   UNL     1      50.708   4.384  18.668  0.00  0.00    +0.000 C 
ATOM     20  O   UNL     1      50.219   4.722  19.743  0.00  0.00    +0.000 OA
ATOM     21  H   UNL     1      50.611   4.580  16.645  0.00  0.00    +0.000 HD
BRANCH  19  22
ATOM     22  C   UNL     1      52.043   3.791  18.606  0.00  0.00    +0.000 A 
ATOM     23  C   UNL     1      53.130   4.494  19.106  0.00  0.00    +0.000 A 
ATOM     24  S   UNL     1      54.615   3.677  18.913  0.00  0.00    +0.000 S 
ATOM     25  C   UNL     1      53.856   2.365  18.138  0.00  0.00    +0.000 A 
ATOM     26  N   UNL     1      54.580   1.318  17.660  0.00  0.00    +0.000 NA
ATOM     27  C   UNL     1      53.880   0.403  17.078  0.00  0.00    +0.000 A 
ATOM     28  N   UNL     1      52.515   0.432  16.946  0.00  0.00    +0.000 N 
ATOM     29  C   UNL     1      51.740   1.441  17.464  0.00  0.00    +0.000 A 
ATOM     30  O   UNL     1      50.509   1.390  17.430  0.00  0.00    +0.000 OA
ATOM     31  C   UNL     1      52.483   2.524  18.074  0.00  0.00    +0.000 A 
ATOM     32  H   UNL     1      52.026  -0.340  16.515  0.00  0.00    +0.000 HD
ENDBRANCH  19  22
ENDBRANCH  17  18
ENDBRANCH   4  17
TORSDOF 7
ENDMDL
MODEL 9
REMARK VINA RESULT:    -6.804      5.317      8.684
REMARK INTER + INTRA:         -10.395
REMARK INTER:                  -9.328
REMARK INTRA:                  -1.067
REMARK UNBOUND:                -0.806
REMARK  Name = 
REMARK  7 active torsions:
REMARK  status: ('A' for Active; 'I' for Inactive)
REMARK    1  A    between atoms: C_2  and  C_3
REMARK    2  A    between atoms: C_7  and  C_8
REMARK    3  A    between atoms: C_8  and  O_9
REMARK    4  A    between atoms: O_9  and  C_10
REMARK    5  A    between atoms: C_13  and  C_14
REMARK    6  A    between atoms: C_14  and  N_15
REMARK    7  A    between atoms: C_16  and  C_18
REMARK                            x       y       z     vdW  Elec       q    Type
REMARK                         _______ _______ _______ _____ _____    ______ ____
ROOT
ATOM      1  C   UNL     1      50.400   8.918  11.405  0.00  0.00    +0.000 A 
ATOM      2  C   UNL     1      50.221   7.617  11.864  0.00  0.00    +0.000 A 
ATOM      3  C   UNL     1      48.965   7.254  12.366  0.00  0.00    +0.000 A 
ATOM      4  C   UNL     1      47.945   8.200  12.448  0.00  0.00    +0.000 A 
ATOM      5  C   UNL     1      48.246   9.480  11.985  0.00  0.00    +0.000 A 
ATOM      6  N   UNL     1      49.438   9.854  11.468  0.00  0.00    +0.000 NA
ENDROOT
BRANCH   1   7
ATOM      7  O   UNL     1      51.635   9.309  10.921  0.00  0.00    +0.000 OA
BRANCH   7   8
ATOM      8  C   UNL     1      52.534   8.191  10.793  0.00  0.00    +0.000 C 
BRANCH   8  13
ATOM      9  C   UNL     1      53.169   6.348   7.507  0.00  0.00    +0.000 A 
ATOM     10  C   UNL     1      53.261   7.401   6.602  0.00  0.00    +0.000 A 
ATOM     11  C   UNL     1      53.118   8.718   7.042  0.00  0.00    +0.000 A 
ATOM     12  C   UNL     1      52.882   8.980   8.394  0.00  0.00    +0.000 A 
ATOM     13  C   UNL     1      52.790   7.932   9.322  0.00  0.00    +0.000 A 
ATOM     14  C   UNL     1      52.925   6.612   8.863  0.00  0.00    +0.000 A 
BRANCH   9  16
ATOM     15  N   UNL     1      53.479   3.897   6.713  0.00  0.00    +0.000 NA
ATOM     16  C   UNL     1      53.338   5.002   7.067  0.00  0.00    +0.000 C 
ENDBRANCH   9  16
ENDBRANCH   8  13
ENDBRANCH   7   8
ENDBRANCH   1   7
BRANCH   4  17
ATOM     17  C   UNL     1      46.573   7.918  13.005  0.00  0.00    +0.000 C 
BRANCH  17  18
ATOM     18  N   UNL     1      46.032   6.629  12.630  0.00  0.00    +0.000 N 
ATOM     19  C   UNL     1      44.989   6.507  11.746  0.00  0.00    +0.000 C 
ATOM     20  O   UNL     1      44.459   7.473  11.204  0.00  0.00    +0.000 OA
ATOM     21  H   UNL     1      46.133   5.877  13.306  0.00  0.00    +0.000 HD
BRANCH  19  22
ATOM     22  C   UNL     1      44.558   5.144  11.435  0.00  0.00    +0.000 A 
ATOM     23  C   UNL     1      43.750   4.458  12.331  0.00  0.00    +0.000 A 
ATOM     24  S   UNL     1      43.381   2.869  11.833  0.00  0.00    +0.000 S 
ATOM     25  C   UNL     1      44.304   3.039  10.413  0.00  0.00    +0.000 A 
ATOM     26  N   UNL     1      44.452   2.004   9.543  0.00  0.00    +0.000 NA
ATOM     27  C   UNL     1      45.194   2.265   8.520  0.00  0.00    +0.000 A 
ATOM     28  N   UNL     1      45.788   3.478   8.277  0.00  0.00    +0.000 N 
ATOM     29  C   UNL     1      45.619   4.566   9.098  0.00  0.00    +0.000 A 
ATOM     30  O   UNL     1      46.071   5.673   8.802  0.00  0.00    +0.000 OA
ATOM     31  C   UNL     1      44.845   4.308  10.295  0.00  0.00    +0.000 A 
ATOM     32  H   UNL     1      46.323   3.626   7.433  0.00  0.00    +0.000 HD
ENDBRANCH  19  22
ENDBRANCH  17  18
ENDBRANCH   4  17
TORSDOF 7
ENDMDL
