MODEL 1
REMARK VINA RESULT:    -8.339      0.000      0.000
REMARK INTER + INTRA:         -13.001
REMARK INTER:                 -11.751
REMARK INTRA:                  -1.250
REMARK UNBOUND:                -1.250
REMARK  Name = 
REMARK  8 active torsions:
REMARK  status: ('A' for Active; 'I' for Inactive)
REMARK    1  A    between atoms: C_1  and  C_2
REMARK    2  A    between atoms: C_2  and  C_3
REMARK    3  A    between atoms: C_2  and  C_25
REMARK    4  A    between atoms: C_3  and  N_4
REMARK    5  A    between atoms: N_4  and  C_5
REMARK    6  A    between atoms: C_8  and  C_9
REMARK    7  A    between atoms: C_9  and  N_10
REMARK    8  A    between atoms: C_11  and  C_13
REMARK                            x       y       z     vdW  Elec       q    Type
REMARK                         _______ _______ _______ _____ _____    ______ ____
ROOT
ATOM      1  C   UNL     1      44.664   5.936  10.949  0.00  0.00    +0.000 A 
ATOM      2  C   UNL     1      44.153   6.969  11.746  0.00  0.00    +0.000 A 
ATOM      3  C   UNL     1      44.979   7.720  12.594  0.00  0.00    +0.000 A 
ATOM      4  C   UNL     1      46.351   7.458  12.669  0.00  0.00    +0.000 A 
ATOM      5  C   UNL     1      46.871   6.429  11.878  0.00  0.00    +0.000 A 
ATOM      6  C   UNL     1      46.038   5.681  11.036  0.00  0.00    +0.000 A 
ENDROOT
BRANCH   1   7
ATOM      7  N   UNL     1      43.872   5.140  10.140  0.00  0.00    +0.000 N 
ATOM      8  H   UNL     1      43.016   4.777  10.544  0.00  0.00    +0.000 HD
BRANCH   7   9
ATOM      9  C   UNL     1      44.354   4.559   8.885  0.00  0.00    +0.000 C 
BRANCH   9  11
ATOM     10  C   UNL     1      44.428   2.518  10.403  0.00  0.00    +0.000 C 
ATOM     11  C   UNL     1      44.422   3.020   8.955  0.00  0.00    +0.000 C 
BRANCH  11  12
ATOM     12  C   UNL     1      45.650   2.476   8.241  0.00  0.00    +0.000 A 
ATOM     13  C   UNL     1      46.387   3.308   7.399  0.00  0.00    +0.000 A 
ATOM     14  C   UNL     1      47.429   2.766   6.650  0.00  0.00    +0.000 A 
ATOM     15  C   UNL     1      47.717   1.412   6.764  0.00  0.00    +0.000 A 
ATOM     16  C   UNL     1      46.954   0.657   7.636  0.00  0.00    +0.000 A 
ATOM     17  N   UNL     1      45.929   1.155   8.366  0.00  0.00    +0.000 NA
ENDBRANCH  11  12
ENDBRANCH   9  11
ENDBRANCH   7   9
ENDBRANCH   1   7
BRANCH   4  18
ATOM     18  C   UNL     1      47.267   8.270  13.552  0.00  0.00    +0.000 C 
BRANCH  18  19
ATOM     19  N   UNL     1      47.651   7.551  14.736  0.00  0.00    +0.000 N 
ATOM     20  C   UNL     1      48.873   6.928  14.834  0.00  0.00    +0.000 C 
ATOM     21  O   UNL     1      49.709   6.979  13.941  0.00  0.00    +0.000 OA
ATOM     22  H   UNL     1      46.899   7.247  15.346  0.00  0.00    +0.000 HD
BRANCH  20  23
ATOM     23  C   UNL     1      49.149   6.259  16.114  0.00  0.00    +0.000 A 
ATOM     24  C   UNL     1      50.150   6.742  16.949  0.00  0.00    +0.000 A 
ATOM     25  S   UNL     1      50.291   5.880  18.413  0.00  0.00    +0.000 S 
ATOM     26  C   UNL     1      49.055   4.797  17.957  0.00  0.00    +0.000 A 
ATOM     27  N   UNL     1      48.693   3.768  18.770  0.00  0.00    +0.000 NA
ATOM     28  C   UNL     1      47.764   3.011  18.286  0.00  0.00    +0.000 A 
ATOM     29  N   UNL     1      47.160   3.194  17.070  0.00  0.00    +0.000 N 
ATOM     30  C   UNL     1      47.470   4.240  16.234  0.00  0.00    +0.000 A 
ATOM     31  O   UNL     1      46.868   4.407  15.177  0.00  0.00    +0.000 OA
ATOM     32  C   UNL     1      48.528   5.106  16.722  0.00  0.00    +0.000 A 
ATOM     33  H   UNL     1      46.426   2.578  16.755  0.00  0.00    +0.000 HD
ENDBRANCH  20  23
ENDBRANCH  18  19
ENDBRANCH   4  18
TORSDOF 7
ENDMDL
MODEL 2
REMARK VINA RESULT:    -7.742      2.753      3.515
REMARK INTER + INTRA:         -12.160
REMARK INTER:                 -11.130
REMARK INTRA:                  -1.030
REMARK UNBOUND:                -1.250
REMARK  Name = 
REMARK  8 active torsions:
REMARK  status: ('A' for Active; 'I' for Inactive)
REMARK    1  A    between atoms: C_1  and  C_2
REMARK    2  A    between atoms: C_2  and  C_3
REMARK    3  A    between atoms: C_2  and  C_25
REMARK    4  A    between atoms: C_3  and  N_4
REMARK    5  A    between atoms: N_4  and  C_5
REMARK    6  A    between atoms: C_8  and  C_9
REMARK    7  A    between atoms: C_9  and  N_10
REMARK    8  A    between atoms: C_11  and  C_13
REMARK                            x       y       z     vdW  Elec       q    Type
REMARK                         _______ _______ _______ _____ _____    ______ ____
ROOT
ATOM      1  C   UNL     1      46.543   5.014  13.330  0.00  0.00    +0.000 A 
ATOM      2  C   UNL     1      46.791   4.473  14.598  0.00  0.00    +0.000 A 
ATOM      3  C   UNL     1      47.676   5.084  15.497  0.00  0.00    +0.000 A 
ATOM      4  C   UNL     1      48.344   6.263  15.151  0.00  0.00    +0.000 A 
ATOM      5  C   UNL     1      48.104   6.811  13.887  0.00  0.00    +0.000 A 
ATOM      6  C   UNL     1      47.220   6.192  12.993  0.00  0.00    +0.000 A 
ENDROOT
BRANCH   1   7
ATOM      7  N   UNL     1      45.716   4.412  12.397  0.00  0.00    +0.000 N 
ATOM      8  H   UNL     1      45.587   3.410  12.473  0.00  0.00    +0.000 HD
BRANCH   7   9
ATOM      9  C   UNL     1      45.296   5.080  11.163  0.00  0.00    +0.000 C 
BRANCH   9  11
ATOM     10  C   UNL     1      43.714   3.087  11.153  0.00  0.00    +0.000 C 
ATOM     11  C   UNL     1      44.375   4.185  10.311  0.00  0.00    +0.000 C 
BRANCH  11  12
ATOM     12  C   UNL     1      45.128   3.535   9.160  0.00  0.00    +0.000 A 
ATOM     13  C   UNL     1      45.301   2.151   9.140  0.00  0.00    +0.000 A 
ATOM     14  C   UNL     1      46.103   1.580   8.155  0.00  0.00    +0.000 A 
ATOM     15  C   UNL     1      46.705   2.400   7.208  0.00  0.00    +0.000 A 
ATOM     16  C   UNL     1      46.469   3.760   7.281  0.00  0.00    +0.000 A 
ATOM     17  N   UNL     1      45.704   4.342   8.236  0.00  0.00    +0.000 NA
ENDBRANCH  11  12
ENDBRANCH   9  11
ENDBRANCH   7   9
ENDBRANCH   1   7
BRANCH   4  18
ATOM     18  C   UNL     1      49.280   6.956  16.111  0.00  0.00    +0.000 C 
BRANCH  18  19
ATOM     19  N   UNL     1      50.327   6.082  16.568  0.00  0.00    +0.000 N 
ATOM     20  C   UNL     1      50.299   5.520  17.822  0.00  0.00    +0.000 C 
ATOM     21  O   UNL     1      49.373   5.702  18.602  0.00  0.00    +0.000 OA
ATOM     22  H   UNL     1      51.216   6.149  16.084  0.00  0.00    +0.000 HD
BRANCH  20  23
ATOM     23  C   UNL     1      51.416   4.620  18.144  0.00  0.00    +0.000 A 
ATOM     24  C   UNL     1      52.542   5.114  18.793  0.00  0.00    +0.000 A 
ATOM     25  S   UNL     1      53.709   3.921  19.137  0.00  0.00    +0.000 S 
ATOM     26  C   UNL     1      52.773   2.711  18.382  0.00  0.00    +0.000 A 
ATOM     27  N   UNL     1      53.224   1.430  18.297  0.00  0.00    +0.000 NA
ATOM     28  C   UNL     1      52.426   0.626  17.675  0.00  0.00    +0.000 A 
ATOM     29  N   UNL     1      51.218   0.986  17.136  0.00  0.00    +0.000 N 
ATOM     30  C   UNL     1      50.709   2.259  17.230  0.00  0.00    +0.000 A 
ATOM     31  O   UNL     1      49.597   2.531  16.788  0.00  0.00    +0.000 OA
ATOM     32  C   UNL     1      51.581   3.207  17.901  0.00  0.00    +0.000 A 
ATOM     33  H   UNL     1      50.631   0.307  16.678  0.00  0.00    +0.000 HD
ENDBRANCH  20  23
ENDBRANCH  18  19
ENDBRANCH   4  18
TORSDOF 7
ENDMDL
MODEL 3
REMARK VINA RESULT:    -7.592      1.427      1.841
REMARK INTER + INTRA:         -11.949
REMARK INTER:                 -10.827
REMARK INTRA:                  -1.123
REMARK UNBOUND:                -1.250
REMARK  Name = 
REMARK  8 active torsions:
REMARK  status: ('A' for Active; 'I' for Inactive)
REMARK    1  A    between atoms: C_1  and  C_2
REMARK    2  A    between atoms: C_2  and  C_3
REMARK    3  A    between atoms: C_2  and  C_25
REMARK    4  A    between atoms: C_3  and  N_4
REMARK    5  A    between atoms: N_4  and  C_5
REMARK    6  A    between atoms: C_8  and  C_9
REMARK    7  A    between atoms: C_9  and  N_10
REMARK    8  A    between atoms: C_11  and  C_13
REMARK                            x       y       z     vdW  Elec       q    Type
REMARK                         _______ _______ _______ _____ _____    ______ ____
ROOT
ATOM      1  C   UNL     1      45.391   6.417  11.457  0.00  0.00    +0.000 A 
ATOM      2  C   UNL     1      46.431   5.886  12.231  0.00  0.00    +0.000 A 
ATOM      3  C   UNL     1      47.170   6.684  13.116  0.00  0.00    +0.000 A 
ATOM      4  C   UNL     1      46.887   8.047  13.254  0.00  0.00    +0.000 A 
ATOM      5  C   UNL     1      45.851   8.587  12.485  0.00  0.00    +0.000 A 
ATOM      6  C   UNL     1      45.120   7.783  11.600  0.00  0.00    +0.000 A 
ENDROOT
BRANCH   1   7
ATOM      7  N   UNL     1      44.675   5.672  10.536  0.00  0.00    +0.000 N 
ATOM      8  H   UNL     1      43.776   5.312  10.831  0.00  0.00    +0.000 HD
BRANCH   7   9
ATOM      9  C   UNL     1      45.278   5.133   9.315  0.00  0.00    +0.000 C 
BRANCH   9  11
ATOM     10  C   UNL     1      44.284   2.939  10.136  0.00  0.00    +0.000 C 
ATOM     11  C   UNL     1      44.647   3.786   8.910  0.00  0.00    +0.000 C 
BRANCH  11  12
ATOM     12  C   UNL     1      45.569   2.977   8.010  0.00  0.00    +0.000 A 
ATOM     13  C   UNL     1      45.925   1.678   8.372  0.00  0.00    +0.000 A 
ATOM     14  C   UNL     1      46.873   0.997   7.612  0.00  0.00    +0.000 A 
ATOM     15  C   UNL     1      47.434   1.620   6.505  0.00  0.00    +0.000 A 
ATOM     16  C   UNL     1      47.014   2.902   6.199  0.00  0.00    +0.000 A 
ATOM     17  N   UNL     1      46.105   3.592   6.927  0.00  0.00    +0.000 NA
ENDBRANCH  11  12
ENDBRANCH   9  11
ENDBRANCH   7   9
ENDBRANCH   1   7
BRANCH   4  18
ATOM     18  C   UNL     1      47.648   8.921  14.220  0.00  0.00    +0.000 C 
BRANCH  18  19
ATOM     19  N   UNL     1      47.832   8.283  15.494  0.00  0.00    +0.000 N 
ATOM     20  C   UNL     1      49.039   8.325  16.153  0.00  0.00    +0.000 C 
ATOM     21  O   UNL     1      50.006   8.932  15.712  0.00  0.00    +0.000 OA
ATOM     22  H   UNL     1      47.172   7.550  15.734  0.00  0.00    +0.000 HD
BRANCH  20  23
ATOM     23  C   UNL     1      49.076   7.659  17.463  0.00  0.00    +0.000 A 
ATOM     24  C   UNL     1      49.329   8.401  18.612  0.00  0.00    +0.000 A 
ATOM     25  S   UNL     1      49.278   7.477  20.044  0.00  0.00    +0.000 S 
ATOM     26  C   UNL     1      48.969   6.044  19.172  0.00  0.00    +0.000 A 
ATOM     27  N   UNL     1      48.844   4.850  19.813  0.00  0.00    +0.000 NA
ATOM     28  C   UNL     1      48.640   3.844  19.027  0.00  0.00    +0.000 A 
ATOM     29  N   UNL     1      48.542   3.926  17.662  0.00  0.00    +0.000 N 
ATOM     30  C   UNL     1      48.626   5.116  16.979  0.00  0.00    +0.000 A 
ATOM     31  O   UNL     1      48.475   5.159  15.762  0.00  0.00    +0.000 OA
ATOM     32  C   UNL     1      48.881   6.274  17.817  0.00  0.00    +0.000 A 
ATOM     33  H   UNL     1      48.363   3.106  17.104  0.00  0.00    +0.000 HD
ENDBRANCH  20  23
ENDBRANCH  18  19
ENDBRANCH   4  18
TORSDOF 7
ENDMDL
MODEL 4
REMARK VINA RESULT:    -7.375      1.983      2.654
REMARK INTER + INTRA:         -11.644
REMARK INTER:                 -10.180
REMARK INTRA:                  -1.464
REMARK UNBOUND:                -1.250
REMARK  Name = 
REMARK  8 active torsions:
REMARK  status: ('A' for Active; 'I' for Inactive)
REMARK    1  A    between atoms: C_1  and  C_2
REMARK    2  A    between atoms: C_2  and  C_3
REMARK    3  A    between atoms: C_2  and  C_25
REMARK    4  A    between atoms: C_3  and  N_4
REMARK    5  A    between atoms: N_4  and  C_5
REMARK    6  A    between atoms: C_8  and  C_9
REMARK    7  A    between atoms: C_9  and  N_10
REMARK    8  A    between atoms: C_11  and  C_13
REMARK                            x       y       z     vdW  Elec       q    Type
REMARK                         _______ _______ _______ _____ _____    ______ ____
ROOT
ATOM      1  C   UNL     1      45.090   6.220  12.791  0.00  0.00    +0.000 A 
ATOM      2  C   UNL     1      46.200   5.492  13.240  0.00  0.00    +0.000 A 
ATOM      3  C   UNL     1      47.501   6.007  13.153  0.00  0.00    +0.000 A 
ATOM      4  C   UNL     1      47.731   7.274  12.608  0.00  0.00    +0.000 A 
ATOM      5  C   UNL     1      46.630   8.008  12.156  0.00  0.00    +0.000 A 
ATOM      6  C   UNL     1      45.334   7.485  12.244  0.00  0.00    +0.000 A 
ENDROOT
BRANCH   1   7
ATOM      7  N   UNL     1      43.798   5.723  12.814  0.00  0.00    +0.000 N 
ATOM      8  H   UNL     1      43.445   5.396  13.705  0.00  0.00    +0.000 HD
BRANCH   7   9
ATOM      9  C   UNL     1      43.066   5.367  11.597  0.00  0.00    +0.000 C 
BRANCH   9  11
ATOM     10  C   UNL     1      43.542   3.050  12.534  0.00  0.00    +0.000 C 
ATOM     11  C   UNL     1      43.166   3.860  11.288  0.00  0.00    +0.000 C 
BRANCH  11  12
ATOM     12  C   UNL     1      44.180   3.574  10.191  0.00  0.00    +0.000 A 
ATOM     13  C   UNL     1      44.780   4.632   9.510  0.00  0.00    +0.000 A 
ATOM     14  C   UNL     1      45.605   4.359   8.421  0.00  0.00    +0.000 A 
ATOM     15  C   UNL     1      45.820   3.040   8.044  0.00  0.00    +0.000 A 
ATOM     16  C   UNL     1      45.206   2.044   8.782  0.00  0.00    +0.000 A 
ATOM     17  N   UNL     1      44.390   2.282   9.836  0.00  0.00    +0.000 NA
ENDBRANCH  11  12
ENDBRANCH   9  11
ENDBRANCH   7   9
ENDBRANCH   1   7
BRANCH   4  18
ATOM     18  C   UNL     1      49.118   7.863  12.528  0.00  0.00    +0.000 C 
BRANCH  18  19
ATOM     19  N   UNL     1      50.004   7.292  13.506  0.00  0.00    +0.000 N 
ATOM     20  C   UNL     1      50.157   7.852  14.753  0.00  0.00    +0.000 C 
ATOM     21  O   UNL     1      49.528   8.840  15.109  0.00  0.00    +0.000 OA
ATOM     22  H   UNL     1      50.732   6.679  13.155  0.00  0.00    +0.000 HD
BRANCH  20  23
ATOM     23  C   UNL     1      51.067   7.144  15.664  0.00  0.00    +0.000 A 
ATOM     24  C   UNL     1      52.427   7.432  15.649  0.00  0.00    +0.000 A 
ATOM     25  S   UNL     1      53.322   6.560  16.810  0.00  0.00    +0.000 S 
ATOM     26  C   UNL     1      51.929   5.727  17.335  0.00  0.00    +0.000 A 
ATOM     27  N   UNL     1      52.006   4.784  18.314  0.00  0.00    +0.000 NA
ATOM     28  C   UNL     1      50.880   4.214  18.592  0.00  0.00    +0.000 A 
ATOM     29  N   UNL     1      49.686   4.506  17.987  0.00  0.00    +0.000 N 
ATOM     30  C   UNL     1      49.556   5.475  17.020  0.00  0.00    +0.000 A 
ATOM     31  O   UNL     1      48.460   5.751  16.543  0.00  0.00    +0.000 OA
ATOM     32  C   UNL     1      50.800   6.129  16.655  0.00  0.00    +0.000 A 
ATOM     33  H   UNL     1      48.836   4.038  18.262  0.00  0.00    +0.000 HD
ENDBRANCH  20  23
ENDBRANCH  18  19
ENDBRANCH   4  18
TORSDOF 7
ENDMDL
MODEL 5
REMARK VINA RESULT:    -7.121      2.902      8.475
REMARK INTER + INTRA:         -11.285
REMARK INTER:                  -9.528
REMARK INTRA:                  -1.756
REMARK UNBOUND:                -1.250
REMARK  Name = 
REMARK  8 active torsions:
REMARK  status: ('A' for Active; 'I' for Inactive)
REMARK    1  A    between atoms: C_1  and  C_2
REMARK    2  A    between atoms: C_2  and  C_3
REMARK    3  A    between atoms: C_2  and  C_25
REMARK    4  A    between atoms: C_3  and  N_4
REMARK    5  A    between atoms: N_4  and  C_5
REMARK    6  A    between atoms: C_8  and  C_9
REMARK    7  A    between atoms: C_9  and  N_10
REMARK    8  A    between atoms: C_11  and  C_13
REMARK                            x       y       z     vdW  Elec       q    Type
REMARK                         _______ _______ _______ _____ _____    ______ ____
ROOT
ATOM      1  C   UNL     1      48.843   7.810  16.172  0.00  0.00    +0.000 A 
ATOM      2  C   UNL     1      48.290   8.948  15.570  0.00  0.00    +0.000 A 
ATOM      3  C   UNL     1      47.828   8.927  14.246  0.00  0.00    +0.000 A 
ATOM      4  C   UNL     1      47.908   7.759  13.481  0.00  0.00    +0.000 A 
ATOM      5  C   UNL     1      48.459   6.618  14.072  0.00  0.00    +0.000 A 
ATOM      6  C   UNL     1      48.921   6.648  15.395  0.00  0.00    +0.000 A 
ENDROOT
BRANCH   1   7
ATOM      7  N   UNL     1      49.356   7.807  17.458  0.00  0.00    +0.000 N 
ATOM      8  H   UNL     1      50.346   7.616  17.560  0.00  0.00    +0.000 HD
BRANCH   7   9
ATOM      9  C   UNL     1      48.506   7.748  18.649  0.00  0.00    +0.000 C 
BRANCH   9  11
ATOM     10  C   UNL     1      50.207   6.450  20.026  0.00  0.00    +0.000 C 
ATOM     11  C   UNL     1      48.773   6.480  19.483  0.00  0.00    +0.000 C 
BRANCH  11  12
ATOM     12  C   UNL     1      48.525   5.212  18.680  0.00  0.00    +0.000 A 
ATOM     13  C   UNL     1      49.576   4.326  18.443  0.00  0.00    +0.000 A 
ATOM     14  C   UNL     1      49.371   3.239  17.596  0.00  0.00    +0.000 A 
ATOM     15  C   UNL     1      48.123   3.056  17.014  0.00  0.00    +0.000 A 
ATOM     16  C   UNL     1      47.126   3.966  17.314  0.00  0.00    +0.000 A 
ATOM     17  N   UNL     1      47.301   5.037  18.123  0.00  0.00    +0.000 NA
ENDBRANCH  11  12
ENDBRANCH   9  11
ENDBRANCH   7   9
ENDBRANCH   1   7
BRANCH   4  18
ATOM     18  C   UNL     1      47.393   7.703  12.063  0.00  0.00    +0.000 C 
BRANCH  18  19
ATOM     19  N   UNL     1      46.721   6.463  11.783  0.00  0.00    +0.000 N 
ATOM     20  C   UNL     1      45.349   6.368  11.798  0.00  0.00    +0.000 C 
ATOM     21  O   UNL     1      44.627   7.333  12.015  0.00  0.00    +0.000 OA
ATOM     22  H   UNL     1      47.269   5.616  11.892  0.00  0.00    +0.000 HD
BRANCH  20  23
ATOM     23  C   UNL     1      44.795   5.049  11.459  0.00  0.00    +0.000 A 
ATOM     24  C   UNL     1      44.037   4.353  12.394  0.00  0.00    +0.000 A 
ATOM     25  S   UNL     1      43.430   2.871  11.810  0.00  0.00    +0.000 S 
ATOM     26  C   UNL     1      44.205   3.084  10.306  0.00  0.00    +0.000 A 
ATOM     27  N   UNL     1      44.114   2.136   9.333  0.00  0.00    +0.000 NA
ATOM     28  C   UNL     1      44.773   2.416   8.257  0.00  0.00    +0.000 A 
ATOM     29  N   UNL     1      45.507   3.557   8.063  0.00  0.00    +0.000 N 
ATOM     30  C   UNL     1      45.595   4.555   9.005  0.00  0.00    +0.000 A 
ATOM     31  O   UNL     1      46.213   5.590   8.774  0.00  0.00    +0.000 OA
ATOM     32  C   UNL     1      44.891   4.277  10.244  0.00  0.00    +0.000 A 
ATOM     33  H   UNL     1      45.985   3.726   7.192  0.00  0.00    +0.000 HD
ENDBRANCH  20  23
ENDBRANCH  18  19
ENDBRANCH   4  18
TORSDOF 7
ENDMDL
MODEL 6
REMARK VINA RESULT:    -6.904      3.180      8.061
REMARK INTER + INTRA:         -10.979
REMARK INTER:                  -9.473
REMARK INTRA:                  -1.506
REMARK UNBOUND:                -1.250
REMARK  Name = 
REMARK  8 active torsions:
REMARK  status: ('A' for Active; 'I' for Inactive)
REMARK    1  A    between atoms: C_1  and  C_2
REMARK    2  A    between atoms: C_2  and  C_3
REMARK    3  A    between atoms: C_2  and  C_25
REMARK    4  A    between atoms: C_3  and  N_4
REMARK    5  A    between atoms: N_4  and  C_5
REMARK    6  A    between atoms: C_8  and  C_9
REMARK    7  A    between atoms: C_9  and  N_10
REMARK    8  A    between atoms: C_11  and  C_13
REMARK                            x       y       z     vdW  Elec       q    Type
REMARK                         _______ _______ _______ _____ _____    ______ ____
ROOT
ATOM      1  C   UNL     1      48.859   7.774  16.394  0.00  0.00    +0.000 A 
ATOM      2  C   UNL     1      49.008   6.672  15.542  0.00  0.00    +0.000 A 
ATOM      3  C   UNL     1      48.788   6.775  14.161  0.00  0.00    +0.000 A 
ATOM      4  C   UNL     1      48.408   7.994  13.589  0.00  0.00    +0.000 A 
ATOM      5  C   UNL     1      48.255   9.099  14.431  0.00  0.00    +0.000 A 
ATOM      6  C   UNL     1      48.474   8.987  15.810  0.00  0.00    +0.000 A 
ENDROOT
BRANCH   1   7
ATOM      7  N   UNL     1      49.017   7.697  17.767  0.00  0.00    +0.000 N 
ATOM      8  H   UNL     1      48.608   8.440  18.321  0.00  0.00    +0.000 HD
BRANCH   7   9
ATOM      9  C   UNL     1      49.984   6.800  18.403  0.00  0.00    +0.000 C 
BRANCH   9  11
ATOM     10  C   UNL     1      50.136   5.267  20.429  0.00  0.00    +0.000 C 
ATOM     11  C   UNL     1      49.290   5.695  19.223  0.00  0.00    +0.000 C 
BRANCH  11  12
ATOM     12  C   UNL     1      48.986   4.469  18.376  0.00  0.00    +0.000 A 
ATOM     13  C   UNL     1      50.023   3.623  17.985  0.00  0.00    +0.000 A 
ATOM     14  C   UNL     1      49.754   2.581  17.102  0.00  0.00    +0.000 A 
ATOM     15  C   UNL     1      48.457   2.400  16.637  0.00  0.00    +0.000 A 
ATOM     16  C   UNL     1      47.479   3.267  17.087  0.00  0.00    +0.000 A 
ATOM     17  N   UNL     1      47.715   4.296  17.936  0.00  0.00    +0.000 NA
ENDBRANCH  11  12
ENDBRANCH   9  11
ENDBRANCH   7   9
ENDBRANCH   1   7
BRANCH   4  18
ATOM     18  C   UNL     1      48.192   8.139  12.102  0.00  0.00    +0.000 C 
BRANCH  18  19
ATOM     19  N   UNL     1      47.512   7.002  11.543  0.00  0.00    +0.000 N 
ATOM     20  C   UNL     1      46.142   6.973  11.419  0.00  0.00    +0.000 C 
ATOM     21  O   UNL     1      45.434   7.918  11.742  0.00  0.00    +0.000 OA
ATOM     22  H   UNL     1      48.019   6.124  11.546  0.00  0.00    +0.000 HD
BRANCH  20  23
ATOM     23  C   UNL     1      45.582   5.763  10.799  0.00  0.00    +0.000 A 
ATOM     24  C   UNL     1      45.780   5.522   9.443  0.00  0.00    +0.000 A 
ATOM     25  S   UNL     1      45.111   4.048   8.909  0.00  0.00    +0.000 S 
ATOM     26  C   UNL     1      44.487   3.707  10.459  0.00  0.00    +0.000 A 
ATOM     27  N   UNL     1      43.760   2.579  10.687  0.00  0.00    +0.000 NA
ATOM     28  C   UNL     1      43.326   2.463  11.899  0.00  0.00    +0.000 A 
ATOM     29  N   UNL     1      43.559   3.367  12.902  0.00  0.00    +0.000 N 
ATOM     30  C   UNL     1      44.317   4.500  12.725  0.00  0.00    +0.000 A 
ATOM     31  O   UNL     1      44.554   5.257  13.661  0.00  0.00    +0.000 OA
ATOM     32  C   UNL     1      44.807   4.689  11.372  0.00  0.00    +0.000 A 
ATOM     33  H   UNL     1      43.208   3.211  13.835  0.00  0.00    +0.000 HD
ENDBRANCH  20  23
ENDBRANCH  18  19
ENDBRANCH   4  18
TORSDOF 7
ENDMDL
MODEL 7
REMARK VINA RESULT:    -6.659      3.129      5.193
REMARK INTER + INTRA:         -10.635
REMARK INTER:                  -9.010
REMARK INTRA:                  -1.624
REMARK UNBOUND:                -1.250
REMARK  Name = 
REMARK  8 active torsions:
REMARK  status: ('A' for Active; 'I' for Inactive)
REMARK    1  A    between atoms: C_1  and  C_2
REMARK    2  A    between atoms: C_2  and  C_3
REMARK    3  A    between atoms: C_2  and  C_25
REMARK    4  A    between atoms: C_3  and  N_4
REMARK    5  A    between atoms: N_4  and  C_5
REMARK    6  A    between atoms: C_8  and  C_9
REMARK    7  A    between atoms: C_9  and  N_10
REMARK    8  A    between atoms: C_11  and  C_13
REMARK                            x       y       z     vdW  Elec       q    Type
REMARK                         _______ _______ _______ _____ _____    ______ ____
ROOT
ATOM      1  C   UNL     1      47.537   5.512  13.895  0.00  0.00    +0.000 A 
ATOM      2  C   UNL     1      47.124   4.496  14.767  0.00  0.00    +0.000 A 
ATOM      3  C   UNL     1      47.502   4.488  16.117  0.00  0.00    +0.000 A 
ATOM      4  C   UNL     1      48.310   5.503  16.638  0.00  0.00    +0.000 A 
ATOM      5  C   UNL     1      48.729   6.522  15.776  0.00  0.00    +0.000 A 
ATOM      6  C   UNL     1      48.349   6.521  14.427  0.00  0.00    +0.000 A 
ENDROOT
BRANCH   1   7
ATOM      7  N   UNL     1      47.227   5.526  12.546  0.00  0.00    +0.000 N 
ATOM      8  H   UNL     1      47.361   4.663  12.033  0.00  0.00    +0.000 HD
BRANCH   7   9
ATOM      9  C   UNL     1      47.031   6.766  11.792  0.00  0.00    +0.000 C 
BRANCH   9  11
ATOM     10  C   UNL     1      45.000   8.127  12.496  0.00  0.00    +0.000 C 
ATOM     11  C   UNL     1      45.538   7.055  11.541  0.00  0.00    +0.000 C 
BRANCH  11  12
ATOM     12  C   UNL     1      44.689   5.801  11.680  0.00  0.00    +0.000 A 
ATOM     13  C   UNL     1      43.922   5.608  12.829  0.00  0.00    +0.000 A 
ATOM     14  C   UNL     1      43.254   4.399  13.005  0.00  0.00    +0.000 A 
ATOM     15  C   UNL     1      43.358   3.415  12.029  0.00  0.00    +0.000 A 
ATOM     16  C   UNL     1      44.120   3.689  10.909  0.00  0.00    +0.000 A 
ATOM     17  N   UNL     1      44.789   4.851  10.718  0.00  0.00    +0.000 NA
ENDBRANCH  11  12
ENDBRANCH   9  11
ENDBRANCH   7   9
ENDBRANCH   1   7
BRANCH   4  18
ATOM     18  C   UNL     1      48.708   5.533  18.093  0.00  0.00    +0.000 C 
BRANCH  18  19
ATOM     19  N   UNL     1      49.834   4.681  18.362  0.00  0.00    +0.000 N 
ATOM     20  C   UNL     1      51.124   5.158  18.326  0.00  0.00    +0.000 C 
ATOM     21  O   UNL     1      51.381   6.334  18.099  0.00  0.00    +0.000 OA
ATOM     22  H   UNL     1      49.682   3.682  18.259  0.00  0.00    +0.000 HD
BRANCH  20  23
ATOM     23  C   UNL     1      52.176   4.186  18.654  0.00  0.00    +0.000 A 
ATOM     24  C   UNL     1      53.223   4.552  19.492  0.00  0.00    +0.000 A 
ATOM     25  S   UNL     1      54.318   3.284  19.808  0.00  0.00    +0.000 S 
ATOM     26  C   UNL     1      53.458   2.217  18.793  0.00  0.00    +0.000 A 
ATOM     27  N   UNL     1      53.892   0.942  18.592  0.00  0.00    +0.000 NA
ATOM     28  C   UNL     1      53.160   0.255  17.778  0.00  0.00    +0.000 A 
ATOM     29  N   UNL     1      52.034   0.723  17.154  0.00  0.00    +0.000 N 
ATOM     30  C   UNL     1      51.541   1.991  17.356  0.00  0.00    +0.000 A 
ATOM     31  O   UNL     1      50.496   2.356  16.826  0.00  0.00    +0.000 OA
ATOM     32  C   UNL     1      52.343   2.812  18.245  0.00  0.00    +0.000 A 
ATOM     33  H   UNL     1      51.494   0.130  16.542  0.00  0.00    +0.000 HD
ENDBRANCH  20  23
ENDBRANCH  18  19
ENDBRANCH   4  18
TORSDOF 7
ENDMDL
MODEL 8
REMARK VINA RESULT:    -6.467      4.917      7.847
REMARK INTER + INTRA:         -10.364
REMARK INTER:                  -8.906
REMARK INTRA:                  -1.458
REMARK UNBOUND:                -1.250
REMARK  Name = 
REMARK  8 active torsions:
REMARK  status: ('A' for Active; 'I' for Inactive)
REMARK    1  A    between atoms: C_1  and  C_2
REMARK    2  A    between atoms: C_2  and  C_3
REMARK    3  A    between atoms: C_2  and  C_25
REMARK    4  A    between atoms: C_3  and  N_4
REMARK    5  A    between atoms: N_4  and  C_5
REMARK    6  A    between atoms: C_8  and  C_9
REMARK    7  A    between atoms: C_9  and  N_10
REMARK    8  A    between atoms: C_11  and  C_13
REMARK                            x       y       z     vdW  Elec       q    Type
REMARK                         _______ _______ _______ _____ _____    ______ ____
ROOT
ATOM      1  C   UNL     1      50.249   9.041  11.457  0.00  0.00    +0.000 A 
ATOM      2  C   UNL     1      49.734   7.741  11.374  0.00  0.00    +0.000 A 
ATOM      3  C   UNL     1      48.480   7.412  11.909  0.00  0.00    +0.000 A 
ATOM      4  C   UNL     1      47.700   8.383  12.546  0.00  0.00    +0.000 A 
ATOM      5  C   UNL     1      48.206   9.683  12.635  0.00  0.00    +0.000 A 
ATOM      6  C   UNL     1      49.462  10.002  12.101  0.00  0.00    +0.000 A 
ENDROOT
BRANCH   1   7
ATOM      7  N   UNL     1      51.504   9.390  10.987  0.00  0.00    +0.000 N 
ATOM      8  H   UNL     1      51.569   9.694  10.023  0.00  0.00    +0.000 HD
BRANCH   7   9
ATOM      9  C   UNL     1      52.738   9.044  11.696  0.00  0.00    +0.000 C 
BRANCH   9  11
ATOM     10  C   UNL     1      55.074   8.266  11.054  0.00  0.00    +0.000 C 
ATOM     11  C   UNL     1      53.570   8.000  10.924  0.00  0.00    +0.000 C 
BRANCH  11  12
ATOM     12  C   UNL     1      53.203   7.963   9.449  0.00  0.00    +0.000 A 
ATOM     13  C   UNL     1      52.641   6.809   8.904  0.00  0.00    +0.000 A 
ATOM     14  C   UNL     1      52.432   6.739   7.528  0.00  0.00    +0.000 A 
ATOM     15  C   UNL     1      52.778   7.822   6.731  0.00  0.00    +0.000 A 
ATOM     16  C   UNL     1      53.312   8.939   7.348  0.00  0.00    +0.000 A 
ATOM     17  N   UNL     1      53.537   9.029   8.680  0.00  0.00    +0.000 NA
ENDBRANCH  11  12
ENDBRANCH   9  11
ENDBRANCH   7   9
ENDBRANCH   1   7
BRANCH   4  18
ATOM     18  C   UNL     1      46.335   8.062  13.105  0.00  0.00    +0.000 C 
BRANCH  18  19
ATOM     19  N   UNL     1      45.893   6.748  12.726  0.00  0.00    +0.000 N 
ATOM     20  C   UNL     1      44.839   6.565  11.861  0.00  0.00    +0.000 C 
ATOM     21  O   UNL     1      44.245   7.503  11.343  0.00  0.00    +0.000 OA
ATOM     22  H   UNL     1      46.154   5.986  13.343  0.00  0.00    +0.000 HD
BRANCH  20  23
ATOM     23  C   UNL     1      44.516   5.169  11.533  0.00  0.00    +0.000 A 
ATOM     24  C   UNL     1      43.772   4.401  12.421  0.00  0.00    +0.000 A 
ATOM     25  S   UNL     1      43.445   2.827  11.853  0.00  0.00    +0.000 S 
ATOM     26  C   UNL     1      44.333   3.101  10.422  0.00  0.00    +0.000 A 
ATOM     27  N   UNL     1      44.478   2.119   9.491  0.00  0.00    +0.000 NA
ATOM     28  C   UNL     1      45.198   2.456   8.473  0.00  0.00    +0.000 A 
ATOM     29  N   UNL     1      45.778   3.685   8.297  0.00  0.00    +0.000 N 
ATOM     30  C   UNL     1      45.627   4.716   9.194  0.00  0.00    +0.000 A 
ATOM     31  O   UNL     1      46.111   5.822   8.976  0.00  0.00    +0.000 OA
ATOM     32  C   UNL     1      44.845   4.379  10.370  0.00  0.00    +0.000 A 
ATOM     33  H   UNL     1      46.314   3.894   7.469  0.00  0.00    +0.000 HD
ENDBRANCH  20  23
ENDBRANCH  18  19
ENDBRANCH   4  18
TORSDOF 7
ENDMDL
MODEL 9
REMARK VINA RESULT:    -6.212      3.411      8.091
REMARK INTER + INTRA:         -10.005
REMARK INTER:                  -8.008
REMARK INTRA:                  -1.997
REMARK UNBOUND:                -1.250
REMARK  Name = 
REMARK  8 active torsions:
REMARK  status: ('A' for Active; 'I' for Inactive)
REMARK    1  A    between atoms: C_1  and  C_2
REMARK    2  A    between atoms: C_2  and  C_3
REMARK    3  A    between atoms: C_2  and  C_25
REMARK    4  A    between atoms: C_3  and  N_4
REMARK    5  A    between atoms: N_4  and  C_5
REMARK    6  A    between atoms: C_8  and  C_9
REMARK    7  A    between atoms: C_9  and  N_10
REMARK    8  A    between atoms: C_11  and  C_13
REMARK                            x       y       z     vdW  Elec       q    Type
REMARK                         _______ _______ _______ _____ _____    ______ ____
ROOT
ATOM      1  C   UNL     1      51.030   7.254  17.066  0.00  0.00    +0.000 A 
ATOM      2  C   UNL     1      51.695   7.292  15.833  0.00  0.00    +0.000 A 
ATOM      3  C   UNL     1      51.060   7.749  14.670  0.00  0.00    +0.000 A 
ATOM      4  C   UNL     1      49.731   8.185  14.706  0.00  0.00    +0.000 A 
ATOM      5  C   UNL     1      49.059   8.151  15.932  0.00  0.00    +0.000 A 
ATOM      6  C   UNL     1      49.699   7.689  17.089  0.00  0.00    +0.000 A 
ENDROOT
BRANCH   1   7
ATOM      7  N   UNL     1      51.607   6.761  18.224  0.00  0.00    +0.000 N 
ATOM      8  H   UNL     1      52.603   6.579  18.202  0.00  0.00    +0.000 HD
BRANCH   7   9
ATOM      9  C   UNL     1      50.819   6.209  19.328  0.00  0.00    +0.000 C 
BRANCH   9  11
ATOM     10  C   UNL     1      51.935   4.062  18.540  0.00  0.00    +0.000 C 
ATOM     11  C   UNL     1      50.721   4.673  19.250  0.00  0.00    +0.000 C 
BRANCH  11  12
ATOM     12  C   UNL     1      49.456   4.222  18.536  0.00  0.00    +0.000 A 
ATOM     13  C   UNL     1      49.519   3.190  17.600  0.00  0.00    +0.000 A 
ATOM     14  C   UNL     1      48.384   2.876  16.857  0.00  0.00    +0.000 A 
ATOM     15  C   UNL     1      47.212   3.590  17.070  0.00  0.00    +0.000 A 
ATOM     16  C   UNL     1      47.222   4.586  18.029  0.00  0.00    +0.000 A 
ATOM     17  N   UNL     1      48.314   4.920  18.757  0.00  0.00    +0.000 NA
ENDBRANCH  11  12
ENDBRANCH   9  11
ENDBRANCH   7   9
ENDBRANCH   1   7
BRANCH   4  18
ATOM     18  C   UNL     1      49.034   8.708  13.474  0.00  0.00    +0.000 C 
BRANCH  18  19
ATOM     19  N   UNL     1      48.062   7.777  12.969  0.00  0.00    +0.000 N 
ATOM     20  C   UNL     1      46.712   7.994  13.116  0.00  0.00    +0.000 C 
ATOM     21  O   UNL     1      46.264   9.000  13.650  0.00  0.00    +0.000 OA
ATOM     22  H   UNL     1      48.388   6.831  12.798  0.00  0.00    +0.000 HD
BRANCH  20  23
ATOM     23  C   UNL     1      45.833   6.978  12.520  0.00  0.00    +0.000 A 
ATOM     24  C   UNL     1      44.793   7.364  11.682  0.00  0.00    +0.000 A 
ATOM     25  S   UNL     1      43.914   6.053  11.038  0.00  0.00    +0.000 S 
ATOM     26  C   UNL     1      44.859   4.926  11.902  0.00  0.00    +0.000 A 
ATOM     27  N   UNL     1      44.603   3.592  11.819  0.00  0.00    +0.000 NA
ATOM     28  C   UNL     1      45.378   2.857  12.547  0.00  0.00    +0.000 A 
ATOM     29  N   UNL     1      46.387   3.334  13.342  0.00  0.00    +0.000 N 
ATOM     30  C   UNL     1      46.702   4.669  13.427  0.00  0.00    +0.000 A 
ATOM     31  O   UNL     1      47.651   5.055  14.103  0.00  0.00    +0.000 OA
ATOM     32  C   UNL     1      45.843   5.540  12.645  0.00  0.00    +0.000 A 
ATOM     33  H   UNL     1      46.971   2.706  13.873  0.00  0.00    +0.000 HD
ENDBRANCH  20  23
ENDBRANCH  18  19
ENDBRANCH   4  18
TORSDOF 7
ENDMDL
