MODEL 1
REMARK VINA RESULT:    -8.177      0.000      0.000
REMARK INTER + INTRA:         -13.465
REMARK INTER:                 -12.002
REMARK INTRA:                  -1.463
REMARK UNBOUND:                -1.463
REMARK  Name = 
REMARK  9 active torsions:
REMARK  status: ('A' for Active; 'I' for Inactive)
REMARK    1  A    between atoms: C_1  and  O_2
REMARK    2  A    between atoms: O_2  and  C_3
REMARK    3  A    between atoms: C_10  and  C_11
REMARK    4  A    between atoms: N_13  and  C_14
REMARK    5  A    between atoms: C_14  and  C_15
REMARK    6  A    between atoms: C_18  and  C_19
REMARK    7  A    between atoms: C_19  and  N_20
REMARK    8  A    between atoms: N_20  and  C_21
REMARK    9  A    between atoms: C_21  and  C_22
REMARK                            x       y       z     vdW  Elec       q    Type
REMARK                         _______ _______ _______ _____ _____    ______ ____
ROOT
ATOM      1  C   UNL     1      48.143   6.586  13.314  0.00  0.00    +0.000 C 
ENDROOT
BRANCH   1   2
ATOM      2  C   UNL     1      46.897   5.962  12.741  0.00  0.00    +0.000 A 
ATOM      3  C   UNL     1      46.194   4.988  13.459  0.00  0.00    +0.000 A 
ATOM      4  C   UNL     1      45.075   4.361  12.900  0.00  0.00    +0.000 A 
ATOM      5  C   UNL     1      44.614   4.707  11.621  0.00  0.00    +0.000 A 
ATOM      6  C   UNL     1      45.323   5.680  10.903  0.00  0.00    +0.000 A 
ATOM      7  C   UNL     1      46.452   6.300  11.457  0.00  0.00    +0.000 A 
BRANCH   5   8
ATOM      8  C   UNL     1      43.426   4.005  10.982  0.00  0.00    +0.000 C 
BRANCH   8   9
ATOM      9  N   UNL     1      43.725   3.564   9.617  0.00  0.00    +0.000 NA
ATOM     10  H   UNL     1      44.271   4.303   9.174  0.00  0.00    +0.000 HD
BRANCH   9  11
ATOM     11  C   UNL     1      44.473   2.310   9.571  0.00  0.00    +0.000 C 
BRANCH  11  12
ATOM     12  C   UNL     1      45.751   2.453   8.707  0.00  0.00    +0.000 C 
ATOM     13  C   UNL     1      45.535   3.518   7.614  0.00  0.00    +0.000 C 
ATOM     14  C   UNL     1      46.742   3.657   6.688  0.00  0.00    +0.000 C 
ATOM     15  C   UNL     1      47.137   2.318   6.074  0.00  0.00    +0.000 C 
ATOM     16  C   UNL     1      47.400   1.281   7.156  0.00  0.00    +0.000 C 
ATOM     17  C   UNL     1      46.193   1.118   8.077  0.00  0.00    +0.000 C 
ENDBRANCH  11  12
ENDBRANCH   9  11
ENDBRANCH   8   9
ENDBRANCH   5   8
ENDBRANCH   1   2
BRANCH   1  20
ATOM     18  C   UNL     1      49.050   7.252  15.501  0.00  0.00    +0.000 C 
ATOM     19  O   UNL     1      49.983   7.842  14.959  0.00  0.00    +0.000 OA
ATOM     20  N   UNL     1      48.100   6.601  14.758  0.00  0.00    +0.000 N 
ATOM     21  H   UNL     1      47.363   6.082  15.214  0.00  0.00    +0.000 HD
BRANCH  18  29
ATOM     22  C   UNL     1      48.822   4.708  17.823  0.00  0.00    +0.000 A 
ATOM     23  N   UNL     1      48.725   3.936  18.924  0.00  0.00    +0.000 NA
ATOM     24  C   UNL     1      48.617   4.537  20.109  0.00  0.00    +0.000 A 
ATOM     25  N   UNL     1      48.590   5.846  20.342  0.00  0.00    +0.000 NA
ATOM     26  C   UNL     1      48.696   6.580  19.220  0.00  0.00    +0.000 A 
ATOM     27  S   UNL     1      48.678   8.275  19.330  0.00  0.00    +0.000 S 
ATOM     28  C   UNL     1      48.840   8.433  17.646  0.00  0.00    +0.000 A 
ATOM     29  C   UNL     1      48.915   7.221  16.969  0.00  0.00    +0.000 A 
ATOM     30  C   UNL     1      48.826   6.112  17.916  0.00  0.00    +0.000 A 
BRANCH  22  32
ATOM     31  C   UNL     1      47.842   3.253  16.287  0.00  0.00    +0.000 C 
ATOM     32  O   UNL     1      48.963   4.078  16.603  0.00  0.00    +0.000 OA
ENDBRANCH  22  32
ENDBRANCH  18  29
ENDBRANCH   1  20
TORSDOF 8
ENDMDL
MODEL 2
REMARK VINA RESULT:    -7.834      0.788      1.482
REMARK INTER + INTRA:         -12.960
REMARK INTER:                 -11.840
REMARK INTRA:                  -1.120
REMARK UNBOUND:                -1.463
REMARK  Name = 
REMARK  9 active torsions:
REMARK  status: ('A' for Active; 'I' for Inactive)
REMARK    1  A    between atoms: C_1  and  O_2
REMARK    2  A    between atoms: O_2  and  C_3
REMARK    3  A    between atoms: C_10  and  C_11
REMARK    4  A    between atoms: N_13  and  C_14
REMARK    5  A    between atoms: C_14  and  C_15
REMARK    6  A    between atoms: C_18  and  C_19
REMARK    7  A    between atoms: C_19  and  N_20
REMARK    8  A    between atoms: N_20  and  C_21
REMARK    9  A    between atoms: C_21  and  C_22
REMARK                            x       y       z     vdW  Elec       q    Type
REMARK                         _______ _______ _______ _____ _____    ______ ____
ROOT
ATOM      1  C   UNL     1      48.403   6.583  13.530  0.00  0.00    +0.000 C 
ENDROOT
BRANCH   1   2
ATOM      2  C   UNL     1      47.162   6.142  12.797  0.00  0.00    +0.000 A 
ATOM      3  C   UNL     1      46.828   6.706  11.560  0.00  0.00    +0.000 A 
ATOM      4  C   UNL     1      45.642   6.345  10.911  0.00  0.00    +0.000 A 
ATOM      5  C   UNL     1      44.771   5.395  11.466  0.00  0.00    +0.000 A 
ATOM      6  C   UNL     1      45.108   4.836  12.707  0.00  0.00    +0.000 A 
ATOM      7  C   UNL     1      46.289   5.206  13.365  0.00  0.00    +0.000 A 
BRANCH   5   8
ATOM      8  C   UNL     1      43.459   5.024  10.794  0.00  0.00    +0.000 C 
BRANCH   8   9
ATOM      9  N   UNL     1      43.675   4.368   9.503  0.00  0.00    +0.000 NA
ATOM     10  H   UNL     1      44.234   5.002   8.932  0.00  0.00    +0.000 HD
BRANCH   9  11
ATOM     11  C   UNL     1      44.362   3.084   9.622  0.00  0.00    +0.000 C 
BRANCH  11  12
ATOM     12  C   UNL     1      45.144   2.746   8.328  0.00  0.00    +0.000 C 
ATOM     13  C   UNL     1      46.004   1.485   8.541  0.00  0.00    +0.000 C 
ATOM     14  C   UNL     1      46.849   1.140   7.317  0.00  0.00    +0.000 C 
ATOM     15  C   UNL     1      47.710   2.320   6.877  0.00  0.00    +0.000 C 
ATOM     16  C   UNL     1      46.854   3.550   6.617  0.00  0.00    +0.000 C 
ATOM     17  C   UNL     1      46.019   3.918   7.841  0.00  0.00    +0.000 C 
ENDBRANCH  11  12
ENDBRANCH   9  11
ENDBRANCH   8   9
ENDBRANCH   5   8
ENDBRANCH   1   2
BRANCH   1  20
ATOM     18  C   UNL     1      49.116   6.798  15.874  0.00  0.00    +0.000 C 
ATOM     19  O   UNL     1      50.282   6.565  15.563  0.00  0.00    +0.000 OA
ATOM     20  N   UNL     1      48.125   6.820  14.927  0.00  0.00    +0.000 N 
ATOM     21  H   UNL     1      47.163   6.968  15.199  0.00  0.00    +0.000 HD
BRANCH  18  29
ATOM     22  C   UNL     1      48.910   4.832  18.703  0.00  0.00    +0.000 A 
ATOM     23  N   UNL     1      48.752   4.318  19.939  0.00  0.00    +0.000 NA
ATOM     24  C   UNL     1      48.344   5.130  20.915  0.00  0.00    +0.000 A 
ATOM     25  N   UNL     1      48.063   6.426  20.810  0.00  0.00    +0.000 NA
ATOM     26  C   UNL     1      48.239   6.901  19.565  0.00  0.00    +0.000 A 
ATOM     27  S   UNL     1      47.924   8.540  19.248  0.00  0.00    +0.000 S 
ATOM     28  C   UNL     1      48.348   8.354  17.613  0.00  0.00    +0.000 A 
ATOM     29  C   UNL     1      48.736   7.064  17.273  0.00  0.00    +0.000 A 
ATOM     30  C   UNL     1      48.667   6.195  18.446  0.00  0.00    +0.000 A 
BRANCH  22  32
ATOM     31  C   UNL     1      48.484   2.886  17.492  0.00  0.00    +0.000 C 
ATOM     32  O   UNL     1      49.361   3.992  17.707  0.00  0.00    +0.000 OA
ENDBRANCH  22  32
ENDBRANCH  18  29
ENDBRANCH   1  20
TORSDOF 8
ENDMDL
MODEL 3
REMARK VINA RESULT:    -7.568      1.484      2.718
REMARK INTER + INTRA:         -12.570
REMARK INTER:                 -11.510
REMARK INTRA:                  -1.061
REMARK UNBOUND:                -1.463
REMARK  Name = 
REMARK  9 active torsions:
REMARK  status: ('A' for Active; 'I' for Inactive)
REMARK    1  A    between atoms: C_1  and  O_2
REMARK    2  A    between atoms: O_2  and  C_3
REMARK    3  A    between atoms: C_10  and  C_11
REMARK    4  A    between atoms: N_13  and  C_14
REMARK    5  A    between atoms: C_14  and  C_15
REMARK    6  A    between atoms: C_18  and  C_19
REMARK    7  A    between atoms: C_19  and  N_20
REMARK    8  A    between atoms: N_20  and  C_21
REMARK    9  A    between atoms: C_21  and  C_22
REMARK                            x       y       z     vdW  Elec       q    Type
REMARK                         _______ _______ _______ _____ _____    ______ ____
ROOT
ATOM      1  C   UNL     1      48.243   6.661  13.605  0.00  0.00    +0.000 C 
ENDROOT
BRANCH   1   2
ATOM      2  C   UNL     1      47.049   6.197  12.812  0.00  0.00    +0.000 A 
ATOM      3  C   UNL     1      46.852   6.639  11.499  0.00  0.00    +0.000 A 
ATOM      4  C   UNL     1      45.710   6.260  10.785  0.00  0.00    +0.000 A 
ATOM      5  C   UNL     1      44.747   5.412  11.353  0.00  0.00    +0.000 A 
ATOM      6  C   UNL     1      44.947   4.976  12.671  0.00  0.00    +0.000 A 
ATOM      7  C   UNL     1      46.084   5.364  13.392  0.00  0.00    +0.000 A 
BRANCH   5   8
ATOM      8  C   UNL     1      43.479   5.027  10.607  0.00  0.00    +0.000 C 
BRANCH   8   9
ATOM      9  N   UNL     1      43.778   4.384   9.326  0.00  0.00    +0.000 NA
ATOM     10  H   UNL     1      44.365   5.027   8.794  0.00  0.00    +0.000 HD
BRANCH   9  11
ATOM     11  C   UNL     1      44.467   3.104   9.474  0.00  0.00    +0.000 C 
BRANCH  11  12
ATOM     12  C   UNL     1      45.237   2.731   8.182  0.00  0.00    +0.000 C 
ATOM     13  C   UNL     1      46.040   1.433   8.400  0.00  0.00    +0.000 C 
ATOM     14  C   UNL     1      46.873   1.050   7.178  0.00  0.00    +0.000 C 
ATOM     15  C   UNL     1      47.787   2.190   6.741  0.00  0.00    +0.000 C 
ATOM     16  C   UNL     1      46.987   3.457   6.477  0.00  0.00    +0.000 C 
ATOM     17  C   UNL     1      46.164   3.862   7.697  0.00  0.00    +0.000 C 
ENDBRANCH  11  12
ENDBRANCH   9  11
ENDBRANCH   8   9
ENDBRANCH   5   8
ENDBRANCH   1   2
BRANCH   1  20
ATOM     18  C   UNL     1      48.884   6.801  15.975  0.00  0.00    +0.000 C 
ATOM     19  O   UNL     1      49.619   7.759  15.743  0.00  0.00    +0.000 OA
ATOM     20  N   UNL     1      48.173   6.198  14.972  0.00  0.00    +0.000 N 
ATOM     21  H   UNL     1      47.606   5.384  15.165  0.00  0.00    +0.000 HD
BRANCH  18  29
ATOM     22  C   UNL     1      47.819   8.150  18.970  0.00  0.00    +0.000 A 
ATOM     23  N   UNL     1      47.451   8.403  20.241  0.00  0.00    +0.000 NA
ATOM     24  C   UNL     1      47.546   7.418  21.135  0.00  0.00    +0.000 A 
ATOM     25  N   UNL     1      47.975   6.179  20.915  0.00  0.00    +0.000 NA
ATOM     26  C   UNL     1      48.325   5.965  19.635  0.00  0.00    +0.000 A 
ATOM     27  S   UNL     1      48.899   4.433  19.175  0.00  0.00    +0.000 S 
ATOM     28  C   UNL     1      49.100   4.941  17.566  0.00  0.00    +0.000 A 
ATOM     29  C   UNL     1      48.738   6.264  17.340  0.00  0.00    +0.000 A 
ATOM     30  C   UNL     1      48.277   6.875  18.585  0.00  0.00    +0.000 A 
BRANCH  22  32
ATOM     31  C   UNL     1      47.584  10.449  18.661  0.00  0.00    +0.000 C 
ATOM     32  O   UNL     1      47.690   9.166  18.045  0.00  0.00    +0.000 OA
ENDBRANCH  22  32
ENDBRANCH  18  29
ENDBRANCH   1  20
TORSDOF 8
ENDMDL
MODEL 4
REMARK VINA RESULT:    -7.519      1.652      2.009
REMARK INTER + INTRA:         -12.498
REMARK INTER:                 -11.294
REMARK INTRA:                  -1.204
REMARK UNBOUND:                -1.463
REMARK  Name = 
REMARK  9 active torsions:
REMARK  status: ('A' for Active; 'I' for Inactive)
REMARK    1  A    between atoms: C_1  and  O_2
REMARK    2  A    between atoms: O_2  and  C_3
REMARK    3  A    between atoms: C_10  and  C_11
REMARK    4  A    between atoms: N_13  and  C_14
REMARK    5  A    between atoms: C_14  and  C_15
REMARK    6  A    between atoms: C_18  and  C_19
REMARK    7  A    between atoms: C_19  and  N_20
REMARK    8  A    between atoms: N_20  and  C_21
REMARK    9  A    between atoms: C_21  and  C_22
REMARK                            x       y       z     vdW  Elec       q    Type
REMARK                         _______ _______ _______ _____ _____    ______ ____
ROOT
ATOM      1  C   UNL     1      46.978   7.825  13.350  0.00  0.00    +0.000 C 
ENDROOT
BRANCH   1   2
ATOM      2  C   UNL     1      46.117   6.747  12.744  0.00  0.00    +0.000 A 
ATOM      3  C   UNL     1      45.211   7.052  11.721  0.00  0.00    +0.000 A 
ATOM      4  C   UNL     1      44.365   6.065  11.203  0.00  0.00    +0.000 A 
ATOM      5  C   UNL     1      44.417   4.744  11.674  0.00  0.00    +0.000 A 
ATOM      6  C   UNL     1      45.323   4.445  12.702  0.00  0.00    +0.000 A 
ATOM      7  C   UNL     1      46.162   5.435  13.231  0.00  0.00    +0.000 A 
BRANCH   5   8
ATOM      8  C   UNL     1      43.475   3.671  11.153  0.00  0.00    +0.000 C 
BRANCH   8   9
ATOM      9  N   UNL     1      43.745   3.346   9.751  0.00  0.00    +0.000 NA
ATOM     10  H   UNL     1      44.250   4.136   9.349  0.00  0.00    +0.000 HD
BRANCH   9  11
ATOM     11  C   UNL     1      44.534   2.127   9.587  0.00  0.00    +0.000 C 
BRANCH  11  12
ATOM     12  C   UNL     1      45.788   2.387   8.715  0.00  0.00    +0.000 C 
ATOM     13  C   UNL     1      45.499   3.502   7.690  0.00  0.00    +0.000 C 
ATOM     14  C   UNL     1      46.681   3.757   6.756  0.00  0.00    +0.000 C 
ATOM     15  C   UNL     1      47.134   2.479   6.059  0.00  0.00    +0.000 C 
ATOM     16  C   UNL     1      47.468   1.395   7.073  0.00  0.00    +0.000 C 
ATOM     17  C   UNL     1      46.287   1.116   8.000  0.00  0.00    +0.000 C 
ENDBRANCH  11  12
ENDBRANCH   9  11
ENDBRANCH   8   9
ENDBRANCH   5   8
ENDBRANCH   1   2
BRANCH   1  20
ATOM     18  C   UNL     1      48.760   7.927  15.041  0.00  0.00    +0.000 C 
ATOM     19  O   UNL     1      48.390   9.044  15.396  0.00  0.00    +0.000 OA
ATOM     20  N   UNL     1      48.118   7.258  14.032  0.00  0.00    +0.000 N 
ATOM     21  H   UNL     1      48.457   6.360  13.718  0.00  0.00    +0.000 HD
BRANCH  18  29
ATOM     22  C   UNL     1      49.082   5.136  17.047  0.00  0.00    +0.000 A 
ATOM     23  N   UNL     1      49.496   4.111  17.819  0.00  0.00    +0.000 NA
ATOM     24  C   UNL     1      50.797   4.012  18.094  0.00  0.00    +0.000 A 
ATOM     25  N   UNL     1      51.764   4.829  17.687  0.00  0.00    +0.000 NA
ATOM     26  C   UNL     1      51.311   5.833  16.916  0.00  0.00    +0.000 A 
ATOM     27  S   UNL     1      52.412   6.976  16.308  0.00  0.00    +0.000 S 
ATOM     28  C   UNL     1      51.169   7.820  15.515  0.00  0.00    +0.000 A 
ATOM     29  C   UNL     1      49.908   7.262  15.685  0.00  0.00    +0.000 A 
ATOM     30  C   UNL     1      49.997   6.072  16.529  0.00  0.00    +0.000 A 
BRANCH  22  32
ATOM     31  C   UNL     1      47.230   3.990  16.216  0.00  0.00    +0.000 C 
ATOM     32  O   UNL     1      47.739   5.215  16.743  0.00  0.00    +0.000 OA
ENDBRANCH  22  32
ENDBRANCH  18  29
ENDBRANCH   1  20
TORSDOF 8
ENDMDL
MODEL 5
REMARK VINA RESULT:    -7.475      1.606      3.112
REMARK INTER + INTRA:         -12.434
REMARK INTER:                 -11.216
REMARK INTRA:                  -1.218
REMARK UNBOUND:                -1.463
REMARK  Name = 
REMARK  9 active torsions:
REMARK  status: ('A' for Active; 'I' for Inactive)
REMARK    1  A    between atoms: C_1  and  O_2
REMARK    2  A    between atoms: O_2  and  C_3
REMARK    3  A    between atoms: C_10  and  C_11
REMARK    4  A    between atoms: N_13  and  C_14
REMARK    5  A    between atoms: C_14  and  C_15
REMARK    6  A    between atoms: C_18  and  C_19
REMARK    7  A    between atoms: C_19  and  N_20
REMARK    8  A    between atoms: N_20  and  C_21
REMARK    9  A    between atoms: C_21  and  C_22
REMARK                            x       y       z     vdW  Elec       q    Type
REMARK                         _______ _______ _______ _____ _____    ______ ____
ROOT
ATOM      1  C   UNL     1      47.242   4.044  14.665  0.00  0.00    +0.000 C 
ENDROOT
BRANCH   1   2
ATOM      2  C   UNL     1      46.221   4.333  13.595  0.00  0.00    +0.000 A 
ATOM      3  C   UNL     1      45.643   3.289  12.864  0.00  0.00    +0.000 A 
ATOM      4  C   UNL     1      44.744   3.560  11.826  0.00  0.00    +0.000 A 
ATOM      5  C   UNL     1      44.380   4.877  11.507  0.00  0.00    +0.000 A 
ATOM      6  C   UNL     1      44.965   5.920  12.240  0.00  0.00    +0.000 A 
ATOM      7  C   UNL     1      45.875   5.650  13.272  0.00  0.00    +0.000 A 
BRANCH   5   8
ATOM      8  C   UNL     1      43.439   5.191  10.355  0.00  0.00    +0.000 C 
BRANCH   8   9
ATOM      9  N   UNL     1      43.737   4.378   9.174  0.00  0.00    +0.000 NA
ATOM     10  H   UNL     1      43.104   4.679   8.433  0.00  0.00    +0.000 HD
BRANCH   9  11
ATOM     11  C   UNL     1      45.119   4.511   8.720  0.00  0.00    +0.000 C 
BRANCH  11  12
ATOM     12  C   UNL     1      45.532   3.314   7.827  0.00  0.00    +0.000 C 
ATOM     13  C   UNL     1      45.908   2.104   8.704  0.00  0.00    +0.000 C 
ATOM     14  C   UNL     1      46.387   0.911   7.879  0.00  0.00    +0.000 C 
ATOM     15  C   UNL     1      47.537   1.293   6.953  0.00  0.00    +0.000 C 
ATOM     16  C   UNL     1      47.147   2.455   6.052  0.00  0.00    +0.000 C 
ATOM     17  C   UNL     1      46.686   3.661   6.866  0.00  0.00    +0.000 C 
ENDBRANCH  11  12
ENDBRANCH   9  11
ENDBRANCH   8   9
ENDBRANCH   5   8
ENDBRANCH   1   2
BRANCH   1  20
ATOM     18  C   UNL     1      48.437   5.215  16.467  0.00  0.00    +0.000 C 
ATOM     19  O   UNL     1      49.106   4.211  16.706  0.00  0.00    +0.000 OA
ATOM     20  N   UNL     1      47.491   5.213  15.476  0.00  0.00    +0.000 N 
ATOM     21  H   UNL     1      46.916   6.029  15.317  0.00  0.00    +0.000 HD
BRANCH  18  29
ATOM     22  C   UNL     1      48.772   8.536  15.583  0.00  0.00    +0.000 A 
ATOM     23  N   UNL     1      48.915   9.875  15.530  0.00  0.00    +0.000 NA
ATOM     24  C   UNL     1      49.063  10.541  16.676  0.00  0.00    +0.000 A 
ATOM     25  N   UNL     1      49.088  10.026  17.902  0.00  0.00    +0.000 NA
ATOM     26  C   UNL     1      48.935   8.690  17.912  0.00  0.00    +0.000 A 
ATOM     27  S   UNL     1      48.944   7.863  19.396  0.00  0.00    +0.000 S 
ATOM     28  C   UNL     1      48.718   6.369  18.618  0.00  0.00    +0.000 A 
ATOM     29  C   UNL     1      48.627   6.460  17.234  0.00  0.00    +0.000 A 
ATOM     30  C   UNL     1      48.760   7.853  16.814  0.00  0.00    +0.000 A 
BRANCH  22  32
ATOM     31  C   UNL     1      49.794   7.768  13.633  0.00  0.00    +0.000 C 
ATOM     32  O   UNL     1      48.591   7.858  14.395  0.00  0.00    +0.000 OA
ENDBRANCH  22  32
ENDBRANCH  18  29
ENDBRANCH   1  20
TORSDOF 8
ENDMDL
MODEL 6
REMARK VINA RESULT:    -6.911      3.177      5.317
REMARK INTER + INTRA:         -11.606
REMARK INTER:                 -10.327
REMARK INTRA:                  -1.279
REMARK UNBOUND:                -1.463
REMARK  Name = 
REMARK  9 active torsions:
REMARK  status: ('A' for Active; 'I' for Inactive)
REMARK    1  A    between atoms: C_1  and  O_2
REMARK    2  A    between atoms: O_2  and  C_3
REMARK    3  A    between atoms: C_10  and  C_11
REMARK    4  A    between atoms: N_13  and  C_14
REMARK    5  A    between atoms: C_14  and  C_15
REMARK    6  A    between atoms: C_18  and  C_19
REMARK    7  A    between atoms: C_19  and  N_20
REMARK    8  A    between atoms: N_20  and  C_21
REMARK    9  A    between atoms: C_21  and  C_22
REMARK                            x       y       z     vdW  Elec       q    Type
REMARK                         _______ _______ _______ _____ _____    ______ ____
ROOT
ATOM      1  C   UNL     1      47.847   5.892  14.310  0.00  0.00    +0.000 C 
ENDROOT
BRANCH   1   2
ATOM      2  C   UNL     1      46.740   5.627  13.322  0.00  0.00    +0.000 A 
ATOM      3  C   UNL     1      46.683   6.332  12.114  0.00  0.00    +0.000 A 
ATOM      4  C   UNL     1      45.619   6.134  11.226  0.00  0.00    +0.000 A 
ATOM      5  C   UNL     1      44.600   5.212  11.508  0.00  0.00    +0.000 A 
ATOM      6  C   UNL     1      44.660   4.512  12.722  0.00  0.00    +0.000 A 
ATOM      7  C   UNL     1      45.718   4.718  13.618  0.00  0.00    +0.000 A 
BRANCH   5   8
ATOM      8  C   UNL     1      43.416   5.017  10.574  0.00  0.00    +0.000 C 
BRANCH   8   9
ATOM      9  N   UNL     1      43.828   4.462   9.283  0.00  0.00    +0.000 NA
ATOM     10  H   UNL     1      44.564   5.066   8.917  0.00  0.00    +0.000 HD
BRANCH   9  11
ATOM     11  C   UNL     1      44.323   3.091   9.380  0.00  0.00    +0.000 C 
BRANCH  11  12
ATOM     12  C   UNL     1      45.153   2.707   8.130  0.00  0.00    +0.000 C 
ATOM     13  C   UNL     1      46.038   1.482   8.436  0.00  0.00    +0.000 C 
ATOM     14  C   UNL     1      46.929   1.096   7.257  0.00  0.00    +0.000 C 
ATOM     15  C   UNL     1      47.773   2.273   6.780  0.00  0.00    +0.000 C 
ATOM     16  C   UNL     1      46.894   3.465   6.429  0.00  0.00    +0.000 C 
ATOM     17  C   UNL     1      46.013   3.874   7.606  0.00  0.00    +0.000 C 
ENDBRANCH  11  12
ENDBRANCH   9  11
ENDBRANCH   8   9
ENDBRANCH   5   8
ENDBRANCH   1   2
BRANCH   1  20
ATOM     18  C   UNL     1      49.260   7.904  14.242  0.00  0.00    +0.000 C 
ATOM     19  O   UNL     1      48.700   8.358  15.237  0.00  0.00    +0.000 OA
ATOM     20  N   UNL     1      48.893   6.692  13.717  0.00  0.00    +0.000 N 
ATOM     21  H   UNL     1      49.329   6.348  12.873  0.00  0.00    +0.000 HD
BRANCH  18  29
ATOM     22  C   UNL     1      49.393   9.974  11.483  0.00  0.00    +0.000 A 
ATOM     23  N   UNL     1      49.731  10.806  10.477  0.00  0.00    +0.000 NA
ATOM     24  C   UNL     1      51.007  11.173  10.362  0.00  0.00    +0.000 A 
ATOM     25  N   UNL     1      52.018  10.804  11.144  0.00  0.00    +0.000 NA
ATOM     26  C   UNL     1      51.639   9.982  12.137  0.00  0.00    +0.000 A 
ATOM     27  S   UNL     1      52.804   9.409  13.233  0.00  0.00    +0.000 S 
ATOM     28  C   UNL     1      51.633   8.523  14.088  0.00  0.00    +0.000 A 
ATOM     29  C   UNL     1      50.347   8.642  13.573  0.00  0.00    +0.000 A 
ATOM     30  C   UNL     1      50.356   9.515  12.402  0.00  0.00    +0.000 A 
BRANCH  22  32
ATOM     31  C   UNL     1      47.299  10.633  12.268  0.00  0.00    +0.000 C 
ATOM     32  O   UNL     1      48.065   9.623  11.613  0.00  0.00    +0.000 OA
ENDBRANCH  22  32
ENDBRANCH  18  29
ENDBRANCH   1  20
TORSDOF 8
ENDMDL
MODEL 7
REMARK VINA RESULT:    -6.837      3.456      4.939
REMARK INTER + INTRA:         -11.497
REMARK INTER:                 -10.359
REMARK INTRA:                  -1.138
REMARK UNBOUND:                -1.463
REMARK  Name = 
REMARK  9 active torsions:
REMARK  status: ('A' for Active; 'I' for Inactive)
REMARK    1  A    between atoms: C_1  and  O_2
REMARK    2  A    between atoms: O_2  and  C_3
REMARK    3  A    between atoms: C_10  and  C_11
REMARK    4  A    between atoms: N_13  and  C_14
REMARK    5  A    between atoms: C_14  and  C_15
REMARK    6  A    between atoms: C_18  and  C_19
REMARK    7  A    between atoms: C_19  and  N_20
REMARK    8  A    between atoms: N_20  and  C_21
REMARK    9  A    between atoms: C_21  and  C_22
REMARK                            x       y       z     vdW  Elec       q    Type
REMARK                         _______ _______ _______ _____ _____    ______ ____
ROOT
ATOM      1  C   UNL     1      47.937   6.205  14.118  0.00  0.00    +0.000 C 
ENDROOT
BRANCH   1   2
ATOM      2  C   UNL     1      46.814   5.839  13.181  0.00  0.00    +0.000 A 
ATOM      3  C   UNL     1      46.763   6.376  11.890  0.00  0.00    +0.000 A 
ATOM      4  C   UNL     1      45.686   6.088  11.043  0.00  0.00    +0.000 A 
ATOM      5  C   UNL     1      44.647   5.239  11.453  0.00  0.00    +0.000 A 
ATOM      6  C   UNL     1      44.701   4.708  12.749  0.00  0.00    +0.000 A 
ATOM      7  C   UNL     1      45.772   5.005  13.604  0.00  0.00    +0.000 A 
BRANCH   5   8
ATOM      8  C   UNL     1      43.449   4.952  10.561  0.00  0.00    +0.000 C 
BRANCH   8   9
ATOM      9  N   UNL     1      43.857   4.414   9.262  0.00  0.00    +0.000 NA
ATOM     10  H   UNL     1      44.580   5.031   8.893  0.00  0.00    +0.000 HD
BRANCH   9  11
ATOM     11  C   UNL     1      44.373   3.050   9.343  0.00  0.00    +0.000 C 
BRANCH  11  12
ATOM     12  C   UNL     1      45.222   2.698   8.096  0.00  0.00    +0.000 C 
ATOM     13  C   UNL     1      46.100   1.464   8.383  0.00  0.00    +0.000 C 
ATOM     14  C   UNL     1      47.009   1.108   7.208  0.00  0.00    +0.000 C 
ATOM     15  C   UNL     1      47.863   2.296   6.777  0.00  0.00    +0.000 C 
ATOM     16  C   UNL     1      46.992   3.499   6.445  0.00  0.00    +0.000 C 
ATOM     17  C   UNL     1      46.092   3.877   7.619  0.00  0.00    +0.000 C 
ENDBRANCH  11  12
ENDBRANCH   9  11
ENDBRANCH   8   9
ENDBRANCH   5   8
ENDBRANCH   1   2
BRANCH   1  20
ATOM     18  C   UNL     1      49.580   7.939  13.534  0.00  0.00    +0.000 C 
ATOM     19  O   UNL     1      49.036   8.741  14.291  0.00  0.00    +0.000 OA
ATOM     20  N   UNL     1      49.094   6.666  13.388  0.00  0.00    +0.000 N 
ATOM     21  H   UNL     1      49.521   6.029  12.730  0.00  0.00    +0.000 HD
BRANCH  18  29
ATOM     22  C   UNL     1      52.886   8.501  14.353  0.00  0.00    +0.000 A 
ATOM     23  N   UNL     1      54.207   8.764  14.383  0.00  0.00    +0.000 NA
ATOM     24  C   UNL     1      54.815   9.077  13.238  0.00  0.00    +0.000 A 
ATOM     25  N   UNL     1      54.256   9.166  12.035  0.00  0.00    +0.000 NA
ATOM     26  C   UNL     1      52.940   8.890  12.047  0.00  0.00    +0.000 A 
ATOM     27  S   UNL     1      52.063   8.957  10.594  0.00  0.00    +0.000 S 
ATOM     28  C   UNL     1      50.625   8.522  11.388  0.00  0.00    +0.000 A 
ATOM     29  C   UNL     1      50.773   8.314  12.754  0.00  0.00    +0.000 A 
ATOM     30  C   UNL     1      52.163   8.538  13.146  0.00  0.00    +0.000 A 
BRANCH  22  32
ATOM     31  C   UNL     1      52.688   6.867  16.004  0.00  0.00    +0.000 C 
ATOM     32  O   UNL     1      52.270   8.149  15.537  0.00  0.00    +0.000 OA
ENDBRANCH  22  32
ENDBRANCH  18  29
ENDBRANCH   1  20
TORSDOF 8
ENDMDL
MODEL 8
REMARK VINA RESULT:    -6.810      2.730      4.052
REMARK INTER + INTRA:         -11.458
REMARK INTER:                 -10.535
REMARK INTRA:                  -0.923
REMARK UNBOUND:                -1.463
REMARK  Name = 
REMARK  9 active torsions:
REMARK  status: ('A' for Active; 'I' for Inactive)
REMARK    1  A    between atoms: C_1  and  O_2
REMARK    2  A    between atoms: O_2  and  C_3
REMARK    3  A    between atoms: C_10  and  C_11
REMARK    4  A    between atoms: N_13  and  C_14
REMARK    5  A    between atoms: C_14  and  C_15
REMARK    6  A    between atoms: C_18  and  C_19
REMARK    7  A    between atoms: C_19  and  N_20
REMARK    8  A    between atoms: N_20  and  C_21
REMARK    9  A    between atoms: C_21  and  C_22
REMARK                            x       y       z     vdW  Elec       q    Type
REMARK                         _______ _______ _______ _____ _____    ______ ____
ROOT
ATOM      1  C   UNL     1      45.897   8.110  12.941  0.00  0.00    +0.000 C 
ENDROOT
BRANCH   1   2
ATOM      2  C   UNL     1      45.354   6.784  12.474  0.00  0.00    +0.000 A 
ATOM      3  C   UNL     1      44.201   6.727  11.683  0.00  0.00    +0.000 A 
ATOM      4  C   UNL     1      43.659   5.494  11.304  0.00  0.00    +0.000 A 
ATOM      5  C   UNL     1      44.265   4.287  11.685  0.00  0.00    +0.000 A 
ATOM      6  C   UNL     1      45.418   4.350  12.481  0.00  0.00    +0.000 A 
ATOM      7  C   UNL     1      45.955   5.584  12.872  0.00  0.00    +0.000 A 
BRANCH   5   8
ATOM      8  C   UNL     1      43.665   2.939  11.318  0.00  0.00    +0.000 C 
BRANCH   8   9
ATOM      9  N   UNL     1      44.324   2.350  10.150  0.00  0.00    +0.000 NA
ATOM     10  H   UNL     1      43.750   1.565   9.844  0.00  0.00    +0.000 HD
BRANCH   9  11
ATOM     11  C   UNL     1      44.487   3.295   9.048  0.00  0.00    +0.000 C 
BRANCH  11  12
ATOM     12  C   UNL     1      45.307   2.668   7.893  0.00  0.00    +0.000 C 
ATOM     13  C   UNL     1      46.102   1.451   8.406  0.00  0.00    +0.000 C 
ATOM     14  C   UNL     1      46.982   0.829   7.323  0.00  0.00    +0.000 C 
ATOM     15  C   UNL     1      47.912   1.861   6.693  0.00  0.00    +0.000 C 
ATOM     16  C   UNL     1      47.122   3.038   6.141  0.00  0.00    +0.000 C 
ATOM     17  C   UNL     1      46.253   3.681   7.219  0.00  0.00    +0.000 C 
ENDBRANCH  11  12
ENDBRANCH   9  11
ENDBRANCH   8   9
ENDBRANCH   5   8
ENDBRANCH   1   2
BRANCH   1  20
ATOM     18  C   UNL     1      48.107   9.089  12.488  0.00  0.00    +0.000 C 
ATOM     19  O   UNL     1      47.590  10.048  11.920  0.00  0.00    +0.000 OA
ATOM     20  N   UNL     1      47.339   8.084  13.017  0.00  0.00    +0.000 N 
ATOM     21  H   UNL     1      47.775   7.278  13.442  0.00  0.00    +0.000 HD
BRANCH  18  29
ATOM     22  C   UNL     1      50.188   7.811  14.929  0.00  0.00    +0.000 A 
ATOM     23  N   UNL     1      51.215   7.390  15.694  0.00  0.00    +0.000 NA
ATOM     24  C   UNL     1      52.456   7.581  15.247  0.00  0.00    +0.000 A 
ATOM     25  N   UNL     1      52.813   8.157  14.102  0.00  0.00    +0.000 NA
ATOM     26  C   UNL     1      51.762   8.556  13.366  0.00  0.00    +0.000 A 
ATOM     27  S   UNL     1      52.033   9.315  11.870  0.00  0.00    +0.000 S 
ATOM     28  C   UNL     1      50.364   9.489  11.603  0.00  0.00    +0.000 A 
ATOM     29  C   UNL     1      49.571   8.979  12.624  0.00  0.00    +0.000 A 
ATOM     30  C   UNL     1      50.413   8.423  13.681  0.00  0.00    +0.000 A 
BRANCH  22  32
ATOM     31  C   UNL     1      48.858   6.554  16.373  0.00  0.00    +0.000 C 
ATOM     32  O   UNL     1      48.906   7.583  15.385  0.00  0.00    +0.000 OA
ENDBRANCH  22  32
ENDBRANCH  18  29
ENDBRANCH   1  20
TORSDOF 8
ENDMDL
MODEL 9
REMARK VINA RESULT:    -6.434      2.484      2.999
REMARK INTER + INTRA:         -10.906
REMARK INTER:                  -9.798
REMARK INTRA:                  -1.108
REMARK UNBOUND:                -1.463
REMARK  Name = 
REMARK  9 active torsions:
REMARK  status: ('A' for Active; 'I' for Inactive)
REMARK    1  A    between atoms: C_1  and  O_2
REMARK    2  A    between atoms: O_2  and  C_3
REMARK    3  A    between atoms: C_10  and  C_11
REMARK    4  A    between atoms: N_13  and  C_14
REMARK    5  A    between atoms: C_14  and  C_15
REMARK    6  A    between atoms: C_18  and  C_19
REMARK    7  A    between atoms: C_19  and  N_20
REMARK    8  A    between atoms: N_20  and  C_21
REMARK    9  A    between atoms: C_21  and  C_22
REMARK                            x       y       z     vdW  Elec       q    Type
REMARK                         _______ _______ _______ _____ _____    ______ ____
ROOT
ATOM      1  C   UNL     1      47.648   8.239  12.961  0.00  0.00    +0.000 C 
ENDROOT
BRANCH   1   2
ATOM      2  C   UNL     1      46.728   7.062  12.762  0.00  0.00    +0.000 A 
ATOM      3  C   UNL     1      47.145   5.769  13.099  0.00  0.00    +0.000 A 
ATOM      4  C   UNL     1      46.316   4.668  12.853  0.00  0.00    +0.000 A 
ATOM      5  C   UNL     1      45.042   4.831  12.287  0.00  0.00    +0.000 A 
ATOM      6  C   UNL     1      44.632   6.128  11.947  0.00  0.00    +0.000 A 
ATOM      7  C   UNL     1      45.465   7.230  12.181  0.00  0.00    +0.000 A 
BRANCH   5   8
ATOM      8  C   UNL     1      44.148   3.642  11.974  0.00  0.00    +0.000 C 
BRANCH   8   9
ATOM      9  N   UNL     1      44.615   2.907  10.796  0.00  0.00    +0.000 NA
ATOM     10  H   UNL     1      44.239   1.961  10.862  0.00  0.00    +0.000 HD
BRANCH   9  11
ATOM     11  C   UNL     1      44.192   3.514   9.537  0.00  0.00    +0.000 C 
BRANCH  11  12
ATOM     12  C   UNL     1      44.990   2.936   8.342  0.00  0.00    +0.000 C 
ATOM     13  C   UNL     1      45.744   1.662   8.774  0.00  0.00    +0.000 C 
ATOM     14  C   UNL     1      46.602   1.081   7.651  0.00  0.00    +0.000 C 
ATOM     15  C   UNL     1      47.565   2.120   7.086  0.00  0.00    +0.000 C 
ATOM     16  C   UNL     1      46.815   3.356   6.611  0.00  0.00    +0.000 C 
ATOM     17  C   UNL     1      45.968   3.957   7.730  0.00  0.00    +0.000 C 
ENDBRANCH  11  12
ENDBRANCH   9  11
ENDBRANCH   8   9
ENDBRANCH   5   8
ENDBRANCH   1   2
BRANCH   1  20
ATOM     18  C   UNL     1      49.685   8.577  14.297  0.00  0.00    +0.000 C 
ATOM     19  O   UNL     1      49.272   9.666  14.691  0.00  0.00    +0.000 OA
ATOM     20  N   UNL     1      48.944   7.812  13.435  0.00  0.00    +0.000 N 
ATOM     21  H   UNL     1      49.312   6.939  13.082  0.00  0.00    +0.000 HD
BRANCH  18  29
ATOM     22  C   UNL     1      50.690   6.546  16.901  0.00  0.00    +0.000 A 
ATOM     23  N   UNL     1      51.350   5.785  17.797  0.00  0.00    +0.000 NA
ATOM     24  C   UNL     1      52.672   5.664  17.672  0.00  0.00    +0.000 A 
ATOM     25  N   UNL     1      53.440   6.224  16.741  0.00  0.00    +0.000 NA
ATOM     26  C   UNL     1      52.744   6.968  15.864  0.00  0.00    +0.000 A 
ATOM     27  S   UNL     1      53.568   7.759  14.607  0.00  0.00    +0.000 S 
ATOM     28  C   UNL     1      52.120   8.415  14.008  0.00  0.00    +0.000 A 
ATOM     29  C   UNL     1      50.991   8.052  14.734  0.00  0.00    +0.000 A 
ATOM     30  C   UNL     1      51.371   7.186  15.848  0.00  0.00    +0.000 A 
BRANCH  22  32
ATOM     31  C   UNL     1      48.645   5.528  16.435  0.00  0.00    +0.000 C 
ATOM     32  O   UNL     1      49.319   6.642  17.020  0.00  0.00    +0.000 OA
ENDBRANCH  22  32
ENDBRANCH  18  29
ENDBRANCH   1  20
TORSDOF 8
ENDMDL
