MODEL 1
REMARK VINA RESULT:    -8.177      0.000      0.000
REMARK INTER + INTRA:         -11.420
REMARK INTER:                 -11.045
REMARK INTRA:                  -0.375
REMARK UNBOUND:                -0.375
REMARK  Name = 
REMARK  7 active torsions:
REMARK  status: ('A' for Active; 'I' for Inactive)
REMARK    1  A    between atoms: C_1  and  O_2
REMARK    2  A    between atoms: O_2  and  C_3
REMARK    3  A    between atoms: C_5  and  C_6
REMARK    4  A    between atoms: C_11  and  O_12
REMARK    5  A    between atoms: O_12  and  C_13
REMARK    6  A    between atoms: C_13  and  C_14
REMARK    7  A    between atoms: C_19  and  C_20
REMARK                            x       y       z     vdW  Elec       q    Type
REMARK                         _______ _______ _______ _____ _____    ______ ____
ROOT
ATOM      1  O   UNL     1      43.820   5.245  10.090  0.00  0.00    +0.000 OA
ENDROOT
BRANCH   1   7
ATOM      2  C   UNL     1      44.313   2.799   9.870  0.00  0.00    +0.000 A 
ATOM      3  C   UNL     1      45.114   1.853   9.219  0.00  0.00    +0.000 A 
ATOM      4  C   UNL     1      46.073   2.229   8.264  0.00  0.00    +0.000 A 
ATOM      5  C   UNL     1      46.224   3.580   7.953  0.00  0.00    +0.000 A 
ATOM      6  C   UNL     1      45.432   4.534   8.603  0.00  0.00    +0.000 A 
ATOM      7  C   UNL     1      44.480   4.162   9.561  0.00  0.00    +0.000 A 
BRANCH   4   8
ATOM      8  C   UNL     1      46.868   1.137   7.633  0.00  0.00    +0.000 C 
ATOM      9  N   UNL     1      47.884   1.463   6.781  0.00  0.00    +0.000 N 
ATOM     10  O   UNL     1      46.627  -0.045   7.869  0.00  0.00    +0.000 OA
ATOM     11  H   UNL     1      48.158   2.398   6.526  0.00  0.00    +0.000 HD
ATOM     12  H   UNL     1      48.395   0.690   6.375  0.00  0.00    +0.000 HD
ENDBRANCH   4   8
BRANCH   2  14
ATOM     13  C   UNL     1      43.691   2.293  12.121  0.00  0.00    +0.000 C 
ATOM     14  O   UNL     1      43.331   2.433  10.752  0.00  0.00    +0.000 OA
ENDBRANCH   2  14
ENDBRANCH   1   7
BRANCH   1  15
ATOM     15  C   UNL     1      43.908   5.448  11.497  0.00  0.00    +0.000 C 
BRANCH  15  16
ATOM     16  C   UNL     1      45.309   5.801  11.951  0.00  0.00    +0.000 A 
ATOM     17  C   UNL     1      46.146   6.671  11.251  0.00  0.00    +0.000 A 
ATOM     18  C   UNL     1      47.412   6.966  11.750  0.00  0.00    +0.000 A 
ATOM     19  C   UNL     1      47.837   6.404  12.955  0.00  0.00    +0.000 A 
ATOM     20  F   UNL     1      49.069   6.723  13.381  0.00  0.00    +0.000 F 
ATOM     21  C   UNL     1      47.027   5.539  13.705  0.00  0.00    +0.000 A 
ATOM     22  C   UNL     1      45.763   5.239  13.163  0.00  0.00    +0.000 A 
BRANCH  21  23
ATOM     23  C   UNL     1      47.441   4.989  15.014  0.00  0.00    +0.000 A 
ATOM     24  C   UNL     1      48.226   5.716  15.924  0.00  0.00    +0.000 A 
ATOM     25  C   UNL     1      48.621   5.155  17.137  0.00  0.00    +0.000 A 
ATOM     26  C   UNL     1      48.218   3.865  17.426  0.00  0.00    +0.000 A 
ATOM     27  N   UNL     1      47.471   3.117  16.592  0.00  0.00    +0.000 NA
ATOM     28  C   UNL     1      47.107   3.692  15.418  0.00  0.00    +0.000 A 
ENDBRANCH  21  23
ENDBRANCH  15  16
ENDBRANCH   1  15
TORSDOF 6
ENDMDL
MODEL 2
REMARK VINA RESULT:    -7.904      2.046      3.151
REMARK INTER + INTRA:         -11.052
REMARK INTER:                 -10.825
REMARK INTRA:                  -0.227
REMARK UNBOUND:                -0.375
REMARK  Name = 
REMARK  7 active torsions:
REMARK  status: ('A' for Active; 'I' for Inactive)
REMARK    1  A    between atoms: C_1  and  O_2
REMARK    2  A    between atoms: O_2  and  C_3
REMARK    3  A    between atoms: C_5  and  C_6
REMARK    4  A    between atoms: C_11  and  O_12
REMARK    5  A    between atoms: O_12  and  C_13
REMARK    6  A    between atoms: C_13  and  C_14
REMARK    7  A    between atoms: C_19  and  C_20
REMARK                            x       y       z     vdW  Elec       q    Type
REMARK                         _______ _______ _______ _____ _____    ______ ____
ROOT
ATOM      1  O   UNL     1      43.965   4.952  10.209  0.00  0.00    +0.000 OA
ENDROOT
BRANCH   1   7
ATOM      2  C   UNL     1      44.628   2.625   9.565  0.00  0.00    +0.000 A 
ATOM      3  C   UNL     1      45.490   1.868   8.761  0.00  0.00    +0.000 A 
ATOM      4  C   UNL     1      46.414   2.473   7.893  0.00  0.00    +0.000 A 
ATOM      5  C   UNL     1      46.466   3.865   7.826  0.00  0.00    +0.000 A 
ATOM      6  C   UNL     1      45.614   4.631   8.630  0.00  0.00    +0.000 A 
ATOM      7  C   UNL     1      44.697   4.029   9.501  0.00  0.00    +0.000 A 
BRANCH   4   8
ATOM      8  C   UNL     1      47.280   1.568   7.084  0.00  0.00    +0.000 C 
ATOM      9  N   UNL     1      48.343   2.096   6.410  0.00  0.00    +0.000 N 
ATOM     10  O   UNL     1      47.055   0.362   7.018  0.00  0.00    +0.000 OA
ATOM     11  H   UNL     1      48.609   3.068   6.402  0.00  0.00    +0.000 HD
ATOM     12  H   UNL     1      48.902   1.445   5.873  0.00  0.00    +0.000 HD
ENDBRANCH   4   8
BRANCH   2  14
ATOM     13  C   UNL     1      43.553   2.519  11.695  0.00  0.00    +0.000 C 
ATOM     14  O   UNL     1      43.681   2.040  10.362  0.00  0.00    +0.000 OA
ENDBRANCH   2  14
ENDBRANCH   1   7
BRANCH   1  15
ATOM     15  C   UNL     1      44.606   6.176  10.557  0.00  0.00    +0.000 C 
BRANCH  15  16
ATOM     16  C   UNL     1      45.551   6.029  11.732  0.00  0.00    +0.000 A 
ATOM     17  C   UNL     1      45.281   5.220  12.837  0.00  0.00    +0.000 A 
ATOM     18  C   UNL     1      46.215   5.118  13.864  0.00  0.00    +0.000 A 
ATOM     19  C   UNL     1      47.423   5.812  13.784  0.00  0.00    +0.000 A 
ATOM     20  F   UNL     1      48.280   5.677  14.809  0.00  0.00    +0.000 F 
ATOM     21  C   UNL     1      47.749   6.624  12.687  0.00  0.00    +0.000 A 
ATOM     22  C   UNL     1      46.775   6.727  11.675  0.00  0.00    +0.000 A 
BRANCH  21  23
ATOM     23  C   UNL     1      49.051   7.312  12.560  0.00  0.00    +0.000 A 
ATOM     24  C   UNL     1      49.737   7.410  11.339  0.00  0.00    +0.000 A 
ATOM     25  C   UNL     1      50.978   8.043  11.263  0.00  0.00    +0.000 A 
ATOM     26  C   UNL     1      51.515   8.576  12.419  0.00  0.00    +0.000 A 
ATOM     27  N   UNL     1      50.907   8.507  13.619  0.00  0.00    +0.000 NA
ATOM     28  C   UNL     1      49.704   7.881  13.659  0.00  0.00    +0.000 A 
ENDBRANCH  21  23
ENDBRANCH  15  16
ENDBRANCH   1  15
TORSDOF 6
ENDMDL
MODEL 3
REMARK VINA RESULT:    -7.827      3.111      7.060
REMARK INTER + INTRA:         -10.947
REMARK INTER:                 -10.086
REMARK INTRA:                  -0.861
REMARK UNBOUND:                -0.375
REMARK  Name = 
REMARK  7 active torsions:
REMARK  status: ('A' for Active; 'I' for Inactive)
REMARK    1  A    between atoms: C_1  and  O_2
REMARK    2  A    between atoms: O_2  and  C_3
REMARK    3  A    between atoms: C_5  and  C_6
REMARK    4  A    between atoms: C_11  and  O_12
REMARK    5  A    between atoms: O_12  and  C_13
REMARK    6  A    between atoms: C_13  and  C_14
REMARK    7  A    between atoms: C_19  and  C_20
REMARK                            x       y       z     vdW  Elec       q    Type
REMARK                         _______ _______ _______ _____ _____    ______ ____
ROOT
ATOM      1  O   UNL     1      44.956   6.900  12.638  0.00  0.00    +0.000 OA
ENDROOT
BRANCH   1   7
ATOM      2  C   UNL     1      47.297   6.071  12.959  0.00  0.00    +0.000 A 
ATOM      3  C   UNL     1      48.651   6.420  12.871  0.00  0.00    +0.000 A 
ATOM      4  C   UNL     1      49.059   7.691  12.436  0.00  0.00    +0.000 A 
ATOM      5  C   UNL     1      48.090   8.627  12.076  0.00  0.00    +0.000 A 
ATOM      6  C   UNL     1      46.734   8.290  12.167  0.00  0.00    +0.000 A 
ATOM      7  C   UNL     1      46.324   7.025  12.607  0.00  0.00    +0.000 A 
BRANCH   4   8
ATOM      8  C   UNL     1      50.526   7.952  12.380  0.00  0.00    +0.000 C 
ATOM      9  N   UNL     1      51.218   8.107  13.547  0.00  0.00    +0.000 N 
ATOM     10  O   UNL     1      51.120   8.024  11.306  0.00  0.00    +0.000 OA
ATOM     11  H   UNL     1      50.823   8.064  14.472  0.00  0.00    +0.000 HD
ATOM     12  H   UNL     1      52.211   8.283  13.460  0.00  0.00    +0.000 HD
ENDBRANCH   4   8
BRANCH   2  14
ATOM     13  C   UNL     1      46.852   4.503  14.706  0.00  0.00    +0.000 C 
ATOM     14  O   UNL     1      46.896   4.812  13.318  0.00  0.00    +0.000 OA
ENDBRANCH   2  14
ENDBRANCH   1   7
BRANCH   1  15
ATOM     15  C   UNL     1      44.286   6.675  11.401  0.00  0.00    +0.000 C 
BRANCH  15  16
ATOM     16  C   UNL     1      44.184   5.206  11.047  0.00  0.00    +0.000 A 
ATOM     17  C   UNL     1      43.321   4.320  11.694  0.00  0.00    +0.000 A 
ATOM     18  C   UNL     1      43.267   2.988  11.291  0.00  0.00    +0.000 A 
ATOM     19  C   UNL     1      44.064   2.543  10.235  0.00  0.00    +0.000 A 
ATOM     20  F   UNL     1      43.971   1.248   9.897  0.00  0.00    +0.000 F 
ATOM     21  C   UNL     1      44.935   3.398   9.542  0.00  0.00    +0.000 A 
ATOM     22  C   UNL     1      44.986   4.733   9.988  0.00  0.00    +0.000 A 
BRANCH  21  23
ATOM     23  C   UNL     1      45.736   2.954   8.381  0.00  0.00    +0.000 A 
ATOM     24  C   UNL     1      46.022   3.797   7.295  0.00  0.00    +0.000 A 
ATOM     25  C   UNL     1      46.758   3.334   6.204  0.00  0.00    +0.000 A 
ATOM     26  C   UNL     1      47.202   2.026   6.219  0.00  0.00    +0.000 A 
ATOM     27  N   UNL     1      46.954   1.170   7.229  0.00  0.00    +0.000 NA
ATOM     28  C   UNL     1      46.232   1.651   8.272  0.00  0.00    +0.000 A 
ENDBRANCH  21  23
ENDBRANCH  15  16
ENDBRANCH   1  15
TORSDOF 6
ENDMDL
MODEL 4
REMARK VINA RESULT:    -7.700      3.073      7.802
REMARK INTER + INTRA:         -10.776
REMARK INTER:                 -10.175
REMARK INTRA:                  -0.602
REMARK UNBOUND:                -0.375
REMARK  Name = 
REMARK  7 active torsions:
REMARK  status: ('A' for Active; 'I' for Inactive)
REMARK    1  A    between atoms: C_1  and  O_2
REMARK    2  A    between atoms: O_2  and  C_3
REMARK    3  A    between atoms: C_5  and  C_6
REMARK    4  A    between atoms: C_11  and  O_12
REMARK    5  A    between atoms: O_12  and  C_13
REMARK    6  A    between atoms: C_13  and  C_14
REMARK    7  A    between atoms: C_19  and  C_20
REMARK                            x       y       z     vdW  Elec       q    Type
REMARK                         _______ _______ _______ _____ _____    ______ ____
ROOT
ATOM      1  O   UNL     1      46.243   6.643  11.134  0.00  0.00    +0.000 OA
ENDROOT
BRANCH   1   7
ATOM      2  C   UNL     1      47.677   7.567  12.967  0.00  0.00    +0.000 A 
ATOM      3  C   UNL     1      48.227   7.299  14.227  0.00  0.00    +0.000 A 
ATOM      4  C   UNL     1      47.981   6.091  14.899  0.00  0.00    +0.000 A 
ATOM      5  C   UNL     1      47.161   5.137  14.298  0.00  0.00    +0.000 A 
ATOM      6  C   UNL     1      46.611   5.392  13.036  0.00  0.00    +0.000 A 
ATOM      7  C   UNL     1      46.861   6.594  12.360  0.00  0.00    +0.000 A 
BRANCH   4   8
ATOM      8  C   UNL     1      48.618   5.915  16.237  0.00  0.00    +0.000 C 
ATOM      9  N   UNL     1      48.040   6.497  17.328  0.00  0.00    +0.000 N 
ATOM     10  O   UNL     1      49.646   5.254  16.371  0.00  0.00    +0.000 OA
ATOM     11  H   UNL     1      47.201   7.054  17.320  0.00  0.00    +0.000 HD
ATOM     12  H   UNL     1      48.507   6.352  18.214  0.00  0.00    +0.000 HD
ENDBRANCH   4   8
BRANCH   2  14
ATOM     13  C   UNL     1      48.994   9.542  12.707  0.00  0.00    +0.000 C 
ATOM     14  O   UNL     1      47.859   8.769  12.338  0.00  0.00    +0.000 OA
ENDBRANCH   2  14
ENDBRANCH   1   7
BRANCH   1  15
ATOM     15  C   UNL     1      44.885   6.219  11.063  0.00  0.00    +0.000 C 
BRANCH  15  16
ATOM     16  C   UNL     1      44.740   4.803  10.544  0.00  0.00    +0.000 A 
ATOM     17  C   UNL     1      43.827   3.885  11.065  0.00  0.00    +0.000 A 
ATOM     18  C   UNL     1      43.736   2.610  10.513  0.00  0.00    +0.000 A 
ATOM     19  C   UNL     1      44.546   2.255   9.434  0.00  0.00    +0.000 A 
ATOM     20  F   UNL     1      44.416   1.010   8.950  0.00  0.00    +0.000 F 
ATOM     21  C   UNL     1      45.467   3.147   8.863  0.00  0.00    +0.000 A 
ATOM     22  C   UNL     1      45.554   4.420   9.457  0.00  0.00    +0.000 A 
BRANCH  21  23
ATOM     23  C   UNL     1      46.284   2.804   7.679  0.00  0.00    +0.000 A 
ATOM     24  C   UNL     1      46.288   3.587   6.513  0.00  0.00    +0.000 A 
ATOM     25  C   UNL     1      47.050   3.217   5.405  0.00  0.00    +0.000 A 
ATOM     26  C   UNL     1      47.805   2.062   5.483  0.00  0.00    +0.000 A 
ATOM     27  N   UNL     1      47.836   1.269   6.571  0.00  0.00    +0.000 NA
ATOM     28  C   UNL     1      47.080   1.655   7.629  0.00  0.00    +0.000 A 
ENDBRANCH  21  23
ENDBRANCH  15  16
ENDBRANCH   1  15
TORSDOF 6
ENDMDL
MODEL 5
REMARK VINA RESULT:    -7.637      3.441      7.927
REMARK INTER + INTRA:         -10.690
REMARK INTER:                  -9.871
REMARK INTRA:                  -0.820
REMARK UNBOUND:                -0.375
REMARK  Name = 
REMARK  7 active torsions:
REMARK  status: ('A' for Active; 'I' for Inactive)
REMARK    1  A    between atoms: C_1  and  O_2
REMARK    2  A    between atoms: O_2  and  C_3
REMARK    3  A    between atoms: C_5  and  C_6
REMARK    4  A    between atoms: C_11  and  O_12
REMARK    5  A    between atoms: O_12  and  C_13
REMARK    6  A    between atoms: C_13  and  C_14
REMARK    7  A    between atoms: C_19  and  C_20
REMARK                            x       y       z     vdW  Elec       q    Type
REMARK                         _______ _______ _______ _____ _____    ______ ____
ROOT
ATOM      1  O   UNL     1      46.404   6.634  11.070  0.00  0.00    +0.000 OA
ENDROOT
BRANCH   1   7
ATOM      2  C   UNL     1      47.562   6.471  13.285  0.00  0.00    +0.000 A 
ATOM      3  C   UNL     1      48.068   7.209  14.362  0.00  0.00    +0.000 A 
ATOM      4  C   UNL     1      48.008   8.612  14.390  0.00  0.00    +0.000 A 
ATOM      5  C   UNL     1      47.436   9.286  13.312  0.00  0.00    +0.000 A 
ATOM      6  C   UNL     1      46.921   8.557  12.233  0.00  0.00    +0.000 A 
ATOM      7  C   UNL     1      46.973   7.158  12.206  0.00  0.00    +0.000 A 
BRANCH   4   8
ATOM      8  C   UNL     1      48.580   9.293  15.587  0.00  0.00    +0.000 C 
ATOM      9  N   UNL     1      48.490  10.652  15.683  0.00  0.00    +0.000 N 
ATOM     10  O   UNL     1      49.125   8.654  16.485  0.00  0.00    +0.000 OA
ATOM     11  H   UNL     1      48.064  11.261  15.003  0.00  0.00    +0.000 HD
ATOM     12  H   UNL     1      48.893  11.071  16.512  0.00  0.00    +0.000 HD
ENDBRANCH   4   8
BRANCH   2  14
ATOM     13  C   UNL     1      46.752   4.332  13.973  0.00  0.00    +0.000 C 
ATOM     14  O   UNL     1      47.678   5.108  13.222  0.00  0.00    +0.000 OA
ENDBRANCH   2  14
ENDBRANCH   1   7
BRANCH   1  15
ATOM     15  C   UNL     1      45.049   6.204  11.150  0.00  0.00    +0.000 C 
BRANCH  15  16
ATOM     16  C   UNL     1      44.849   4.797  10.626  0.00  0.00    +0.000 A 
ATOM     17  C   UNL     1      43.919   3.904  11.160  0.00  0.00    +0.000 A 
ATOM     18  C   UNL     1      43.777   2.636  10.603  0.00  0.00    +0.000 A 
ATOM     19  C   UNL     1      44.553   2.263   9.505  0.00  0.00    +0.000 A 
ATOM     20  F   UNL     1      44.374   1.026   9.016  0.00  0.00    +0.000 F 
ATOM     21  C   UNL     1      45.489   3.130   8.920  0.00  0.00    +0.000 A 
ATOM     22  C   UNL     1      45.628   4.396   9.520  0.00  0.00    +0.000 A 
BRANCH  21  23
ATOM     23  C   UNL     1      46.271   2.771   7.717  0.00  0.00    +0.000 A 
ATOM     24  C   UNL     1      46.296   3.574   6.566  0.00  0.00    +0.000 A 
ATOM     25  C   UNL     1      47.022   3.188   5.439  0.00  0.00    +0.000 A 
ATOM     26  C   UNL     1      47.721   1.997   5.485  0.00  0.00    +0.000 A 
ATOM     27  N   UNL     1      47.729   1.182   6.557  0.00  0.00    +0.000 NA
ATOM     28  C   UNL     1      47.009   1.585   7.634  0.00  0.00    +0.000 A 
ENDBRANCH  21  23
ENDBRANCH  15  16
ENDBRANCH   1  15
TORSDOF 6
ENDMDL
MODEL 6
REMARK VINA RESULT:    -7.249      3.769      8.162
REMARK INTER + INTRA:         -10.166
REMARK INTER:                  -9.161
REMARK INTRA:                  -1.005
REMARK UNBOUND:                -0.375
REMARK  Name = 
REMARK  7 active torsions:
REMARK  status: ('A' for Active; 'I' for Inactive)
REMARK    1  A    between atoms: C_1  and  O_2
REMARK    2  A    between atoms: O_2  and  C_3
REMARK    3  A    between atoms: C_5  and  C_6
REMARK    4  A    between atoms: C_11  and  O_12
REMARK    5  A    between atoms: O_12  and  C_13
REMARK    6  A    between atoms: C_13  and  C_14
REMARK    7  A    between atoms: C_19  and  C_20
REMARK                            x       y       z     vdW  Elec       q    Type
REMARK                         _______ _______ _______ _____ _____    ______ ____
ROOT
ATOM      1  O   UNL     1      48.763   5.967  14.487  0.00  0.00    +0.000 OA
ENDROOT
BRANCH   1   7
ATOM      2  C   UNL     1      48.058   4.891  16.636  0.00  0.00    +0.000 A 
ATOM      3  C   UNL     1      47.832   5.113  18.000  0.00  0.00    +0.000 A 
ATOM      4  C   UNL     1      48.041   6.371  18.589  0.00  0.00    +0.000 A 
ATOM      5  C   UNL     1      48.493   7.423  17.793  0.00  0.00    +0.000 A 
ATOM      6  C   UNL     1      48.715   7.213  16.427  0.00  0.00    +0.000 A 
ATOM      7  C   UNL     1      48.501   5.961  15.836  0.00  0.00    +0.000 A 
BRANCH   4   8
ATOM      8  C   UNL     1      47.770   6.491  20.050  0.00  0.00    +0.000 C 
ATOM      9  N   UNL     1      47.123   5.474  20.691  0.00  0.00    +0.000 N 
ATOM     10  O   UNL     1      48.122   7.484  20.684  0.00  0.00    +0.000 OA
ATOM     11  H   UNL     1      46.797   4.623  20.261  0.00  0.00    +0.000 HD
ATOM     12  H   UNL     1      46.959   5.599  21.681  0.00  0.00    +0.000 HD
ENDBRANCH   4   8
BRANCH   2  14
ATOM     13  C   UNL     1      48.564   2.558  16.714  0.00  0.00    +0.000 C 
ATOM     14  O   UNL     1      47.921   3.651  16.071  0.00  0.00    +0.000 OA
ENDBRANCH   2  14
ENDBRANCH   1   7
BRANCH   1  15
ATOM     15  C   UNL     1      48.621   7.203  13.793  0.00  0.00    +0.000 C 
BRANCH  15  16
ATOM     16  C   UNL     1      47.285   7.331  13.092  0.00  0.00    +0.000 A 
ATOM     17  C   UNL     1      46.472   8.461  13.191  0.00  0.00    +0.000 A 
ATOM     18  C   UNL     1      45.269   8.512  12.491  0.00  0.00    +0.000 A 
ATOM     19  C   UNL     1      44.883   7.442  11.683  0.00  0.00    +0.000 A 
ATOM     20  F   UNL     1      43.711   7.548  11.039  0.00  0.00    +0.000 F 
ATOM     21  C   UNL     1      45.674   6.291  11.536  0.00  0.00    +0.000 A 
ATOM     22  C   UNL     1      46.872   6.258  12.275  0.00  0.00    +0.000 A 
BRANCH  21  23
ATOM     23  C   UNL     1      45.308   5.179  10.633  0.00  0.00    +0.000 A 
ATOM     24  C   UNL     1      45.701   5.141   9.286  0.00  0.00    +0.000 A 
ATOM     25  C   UNL     1      45.313   4.089   8.456  0.00  0.00    +0.000 A 
ATOM     26  C   UNL     1      44.534   3.082   8.993  0.00  0.00    +0.000 A 
ATOM     27  N   UNL     1      44.121   3.068  10.275  0.00  0.00    +0.000 NA
ATOM     28  C   UNL     1      44.513   4.108  11.053  0.00  0.00    +0.000 A 
ENDBRANCH  21  23
ENDBRANCH  15  16
ENDBRANCH   1  15
TORSDOF 6
ENDMDL
MODEL 7
REMARK VINA RESULT:    -7.196      3.962      6.031
REMARK INTER + INTRA:         -10.095
REMARK INTER:                  -8.947
REMARK INTRA:                  -1.148
REMARK UNBOUND:                -0.375
REMARK  Name = 
REMARK  7 active torsions:
REMARK  status: ('A' for Active; 'I' for Inactive)
REMARK    1  A    between atoms: C_1  and  O_2
REMARK    2  A    between atoms: O_2  and  C_3
REMARK    3  A    between atoms: C_5  and  C_6
REMARK    4  A    between atoms: C_11  and  O_12
REMARK    5  A    between atoms: O_12  and  C_13
REMARK    6  A    between atoms: C_13  and  C_14
REMARK    7  A    between atoms: C_19  and  C_20
REMARK                            x       y       z     vdW  Elec       q    Type
REMARK                         _______ _______ _______ _____ _____    ______ ____
ROOT
ATOM      1  O   UNL     1      48.946   6.348  14.164  0.00  0.00    +0.000 OA
ENDROOT
BRANCH   1   7
ATOM      2  C   UNL     1      46.971   4.822  13.957  0.00  0.00    +0.000 A 
ATOM      3  C   UNL     1      45.679   4.698  13.431  0.00  0.00    +0.000 A 
ATOM      4  C   UNL     1      45.068   5.741  12.716  0.00  0.00    +0.000 A 
ATOM      5  C   UNL     1      45.767   6.934  12.532  0.00  0.00    +0.000 A 
ATOM      6  C   UNL     1      47.061   7.066  13.048  0.00  0.00    +0.000 A 
ATOM      7  C   UNL     1      47.675   6.024  13.755  0.00  0.00    +0.000 A 
BRANCH   4   8
ATOM      8  C   UNL     1      43.689   5.498  12.203  0.00  0.00    +0.000 C 
ATOM      9  N   UNL     1      42.647   5.485  13.085  0.00  0.00    +0.000 N 
ATOM     10  O   UNL     1      43.477   5.314  11.007  0.00  0.00    +0.000 OA
ATOM     11  H   UNL     1      42.718   5.625  14.080  0.00  0.00    +0.000 HD
ATOM     12  H   UNL     1      41.729   5.314  12.693  0.00  0.00    +0.000 HD
ENDBRANCH   4   8
BRANCH   2  14
ATOM     13  C   UNL     1      47.125   3.711  16.066  0.00  0.00    +0.000 C 
ATOM     14  O   UNL     1      47.544   3.834  14.712  0.00  0.00    +0.000 OA
ENDBRANCH   2  14
ENDBRANCH   1   7
BRANCH   1  15
ATOM     15  C   UNL     1      49.078   7.269  15.242  0.00  0.00    +0.000 C 
BRANCH  15  16
ATOM     16  C   UNL     1      49.234   6.584  16.584  0.00  0.00    +0.000 A 
ATOM     17  C   UNL     1      48.598   7.021  17.747  0.00  0.00    +0.000 A 
ATOM     18  C   UNL     1      48.771   6.318  18.936  0.00  0.00    +0.000 A 
ATOM     19  C   UNL     1      49.568   5.173  18.963  0.00  0.00    +0.000 A 
ATOM     20  F   UNL     1      49.700   4.542  20.141  0.00  0.00    +0.000 F 
ATOM     21  C   UNL     1      50.213   4.682  17.817  0.00  0.00    +0.000 A 
ATOM     22  C   UNL     1      50.040   5.427  16.636  0.00  0.00    +0.000 A 
BRANCH  21  23
ATOM     23  C   UNL     1      51.006   3.434  17.819  0.00  0.00    +0.000 A 
ATOM     24  C   UNL     1      52.334   3.384  18.273  0.00  0.00    +0.000 A 
ATOM     25  C   UNL     1      53.060   2.194  18.233  0.00  0.00    +0.000 A 
ATOM     26  C   UNL     1      52.439   1.062  17.740  0.00  0.00    +0.000 A 
ATOM     27  N   UNL     1      51.172   1.050  17.285  0.00  0.00    +0.000 NA
ATOM     28  C   UNL     1      50.495   2.225  17.334  0.00  0.00    +0.000 A 
ENDBRANCH  21  23
ENDBRANCH  15  16
ENDBRANCH   1  15
TORSDOF 6
ENDMDL
MODEL 8
REMARK VINA RESULT:    -7.136      4.259      7.601
REMARK INTER + INTRA:         -10.014
REMARK INTER:                  -8.967
REMARK INTRA:                  -1.046
REMARK UNBOUND:                -0.375
REMARK  Name = 
REMARK  7 active torsions:
REMARK  status: ('A' for Active; 'I' for Inactive)
REMARK    1  A    between atoms: C_1  and  O_2
REMARK    2  A    between atoms: O_2  and  C_3
REMARK    3  A    between atoms: C_5  and  C_6
REMARK    4  A    between atoms: C_11  and  O_12
REMARK    5  A    between atoms: O_12  and  C_13
REMARK    6  A    between atoms: C_13  and  C_14
REMARK    7  A    between atoms: C_19  and  C_20
REMARK                            x       y       z     vdW  Elec       q    Type
REMARK                         _______ _______ _______ _____ _____    ______ ____
ROOT
ATOM      1  O   UNL     1      49.450   5.832  17.293  0.00  0.00    +0.000 OA
ENDROOT
BRANCH   1   7
ATOM      2  C   UNL     1      49.494   3.346  16.990  0.00  0.00    +0.000 A 
ATOM      3  C   UNL     1      50.280   2.196  17.133  0.00  0.00    +0.000 A 
ATOM      4  C   UNL     1      51.601   2.257  17.606  0.00  0.00    +0.000 A 
ATOM      5  C   UNL     1      52.145   3.498  17.935  0.00  0.00    +0.000 A 
ATOM      6  C   UNL     1      51.365   4.654  17.802  0.00  0.00    +0.000 A 
ATOM      7  C   UNL     1      50.045   4.594  17.337  0.00  0.00    +0.000 A 
BRANCH   4   8
ATOM      8  C   UNL     1      52.344   0.969  17.715  0.00  0.00    +0.000 C 
ATOM      9  N   UNL     1      51.732  -0.103  18.297  0.00  0.00    +0.000 N 
ATOM     10  O   UNL     1      53.492   0.857  17.288  0.00  0.00    +0.000 OA
ATOM     11  H   UNL     1      50.798  -0.112  18.675  0.00  0.00    +0.000 HD
ATOM     12  H   UNL     1      52.274  -0.956  18.351  0.00  0.00    +0.000 HD
ENDBRANCH   4   8
BRANCH   2  14
ATOM     13  C   UNL     1      47.139   3.264  17.378  0.00  0.00    +0.000 C 
ATOM     14  O   UNL     1      48.230   3.300  16.466  0.00  0.00    +0.000 OA
ENDBRANCH   2  14
ENDBRANCH   1   7
BRANCH   1  15
ATOM     15  C   UNL     1      50.112   6.856  16.558  0.00  0.00    +0.000 C 
BRANCH  15  16
ATOM     16  C   UNL     1      49.573   7.010  15.151  0.00  0.00    +0.000 A 
ATOM     17  C   UNL     1      50.250   7.694  14.140  0.00  0.00    +0.000 A 
ATOM     18  C   UNL     1      49.699   7.767  12.864  0.00  0.00    +0.000 A 
ATOM     19  C   UNL     1      48.478   7.149  12.592  0.00  0.00    +0.000 A 
ATOM     20  F   UNL     1      47.995   7.259  11.345  0.00  0.00    +0.000 F 
ATOM     21  C   UNL     1      47.766   6.435  13.569  0.00  0.00    +0.000 A 
ATOM     22  C   UNL     1      48.336   6.399  14.856  0.00  0.00    +0.000 A 
BRANCH  21  23
ATOM     23  C   UNL     1      46.504   5.721  13.278  0.00  0.00    +0.000 A 
ATOM     24  C   UNL     1      45.332   6.388  12.889  0.00  0.00    +0.000 A 
ATOM     25  C   UNL     1      44.152   5.684  12.649  0.00  0.00    +0.000 A 
ATOM     26  C   UNL     1      44.166   4.310  12.799  0.00  0.00    +0.000 A 
ATOM     27  N   UNL     1      45.257   3.616  13.175  0.00  0.00    +0.000 NA
ATOM     28  C   UNL     1      46.386   4.333  13.405  0.00  0.00    +0.000 A 
ENDBRANCH  21  23
ENDBRANCH  15  16
ENDBRANCH   1  15
TORSDOF 6
ENDMDL
MODEL 9
REMARK VINA RESULT:    -6.819      3.424      5.920
REMARK INTER + INTRA:          -9.585
REMARK INTER:                  -8.552
REMARK INTRA:                  -1.033
REMARK UNBOUND:                -0.375
REMARK  Name = 
REMARK  7 active torsions:
REMARK  status: ('A' for Active; 'I' for Inactive)
REMARK    1  A    between atoms: C_1  and  O_2
REMARK    2  A    between atoms: O_2  and  C_3
REMARK    3  A    between atoms: C_5  and  C_6
REMARK    4  A    between atoms: C_11  and  O_12
REMARK    5  A    between atoms: O_12  and  C_13
REMARK    6  A    between atoms: C_13  and  C_14
REMARK    7  A    between atoms: C_19  and  C_20
REMARK                            x       y       z     vdW  Elec       q    Type
REMARK                         _______ _______ _______ _____ _____    ______ ____
ROOT
ATOM      1  O   UNL     1      48.785   6.292  14.189  0.00  0.00    +0.000 OA
ENDROOT
BRANCH   1   7
ATOM      2  C   UNL     1      47.215   6.687  12.278  0.00  0.00    +0.000 A 
ATOM      3  C   UNL     1      46.022   6.264  11.679  0.00  0.00    +0.000 A 
ATOM      4  C   UNL     1      45.268   5.202  12.203  0.00  0.00    +0.000 A 
ATOM      5  C   UNL     1      45.725   4.547  13.345  0.00  0.00    +0.000 A 
ATOM      6  C   UNL     1      46.913   4.966  13.956  0.00  0.00    +0.000 A 
ATOM      7  C   UNL     1      47.664   6.030  13.439  0.00  0.00    +0.000 A 
BRANCH   4   8
ATOM      8  C   UNL     1      44.015   4.837  11.481  0.00  0.00    +0.000 C 
ATOM      9  N   UNL     1      43.898   5.147  10.157  0.00  0.00    +0.000 N 
ATOM     10  O   UNL     1      43.093   4.261  12.056  0.00  0.00    +0.000 OA
ATOM     11  H   UNL     1      44.594   5.616   9.600  0.00  0.00    +0.000 HD
ATOM     12  H   UNL     1      43.030   4.882   9.709  0.00  0.00    +0.000 HD
ENDBRANCH   4   8
BRANCH   2  14
ATOM     13  C   UNL     1      47.674   9.022  12.074  0.00  0.00    +0.000 C 
ATOM     14  O   UNL     1      47.988   7.677  11.733  0.00  0.00    +0.000 OA
ENDBRANCH   2  14
ENDBRANCH   1   7
BRANCH   1  15
ATOM     15  C   UNL     1      48.650   7.194  15.283  0.00  0.00    +0.000 C 
BRANCH  15  16
ATOM     16  C   UNL     1      48.958   6.547  16.618  0.00  0.00    +0.000 A 
ATOM     17  C   UNL     1      48.443   7.008  17.831  0.00  0.00    +0.000 A 
ATOM     18  C   UNL     1      48.753   6.340  19.012  0.00  0.00    +0.000 A 
ATOM     19  C   UNL     1      49.566   5.206  18.983  0.00  0.00    +0.000 A 
ATOM     20  F   UNL     1      49.833   4.610  20.156  0.00  0.00    +0.000 F 
ATOM     21  C   UNL     1      50.094   4.694  17.788  0.00  0.00    +0.000 A 
ATOM     22  C   UNL     1      49.784   5.404  16.613  0.00  0.00    +0.000 A 
BRANCH  21  23
ATOM     23  C   UNL     1      50.903   3.457  17.737  0.00  0.00    +0.000 A 
ATOM     24  C   UNL     1      52.252   3.421  18.124  0.00  0.00    +0.000 A 
ATOM     25  C   UNL     1      52.992   2.242  18.035  0.00  0.00    +0.000 A 
ATOM     26  C   UNL     1      52.363   1.106  17.561  0.00  0.00    +0.000 A 
ATOM     27  N   UNL     1      51.074   1.081  17.169  0.00  0.00    +0.000 NA
ATOM     28  C   UNL     1      50.385   2.246  17.264  0.00  0.00    +0.000 A 
ENDBRANCH  21  23
ENDBRANCH  15  16
ENDBRANCH   1  15
TORSDOF 6
ENDMDL
