MODEL 1
REMARK VINA RESULT:    -8.167      0.000      0.000
REMARK INTER + INTRA:         -12.140
REMARK INTER:                 -11.271
REMARK INTRA:                  -0.869
REMARK UNBOUND:                -0.869
REMARK  Name = 
REMARK  7 active torsions:
REMARK  status: ('A' for Active; 'I' for Inactive)
REMARK    1  A    between atoms: N_1  and  C_2
REMARK    2  A    between atoms: C_2  and  C_3
REMARK    3  A    between atoms: C_6  and  O_7
REMARK    4  A    between atoms: O_7  and  C_8
REMARK    5  A    between atoms: C_8  and  C_9
REMARK    6  A    between atoms: C_9  and  C_12
REMARK    7  A    between atoms: C_15  and  C_16
REMARK                            x       y       z     vdW  Elec       q    Type
REMARK                         _______ _______ _______ _____ _____    ______ ____
ROOT
ATOM      1  C   UNL     1      43.524   4.897  12.241  0.00  0.00    +0.000 C 
ATOM      2  F   UNL     1      42.748   5.944  11.827  0.00  0.00    +0.000 F 
ATOM      3  F   UNL     1      42.923   4.465  13.398  0.00  0.00    +0.000 F 
ENDROOT
BRANCH   1   4
ATOM      4  C   UNL     1      44.960   5.310  12.502  0.00  0.00    +0.000 A 
ATOM      5  C   UNL     1      45.604   6.234  11.669  0.00  0.00    +0.000 A 
ATOM      6  C   UNL     1      46.906   6.657  11.952  0.00  0.00    +0.000 A 
ATOM      7  C   UNL     1      47.581   6.168  13.077  0.00  0.00    +0.000 A 
ATOM      8  C   UNL     1      46.960   5.217  13.894  0.00  0.00    +0.000 A 
ATOM      9  C   UNL     1      45.659   4.792  13.606  0.00  0.00    +0.000 A 
BRANCH   7  10
ATOM     10  C   UNL     1      48.951   6.681  13.352  0.00  0.00    +0.000 C 
ATOM     11  N   UNL     1      49.699   7.096  12.284  0.00  0.00    +0.000 N 
ATOM     12  O   UNL     1      49.415   6.692  14.483  0.00  0.00    +0.000 OA
ATOM     13  H   UNL     1      49.447   6.911  11.326  0.00  0.00    +0.000 HD
ATOM     14  H   UNL     1      50.664   7.329  12.482  0.00  0.00    +0.000 HD
ENDBRANCH   7  10
ENDBRANCH   1   4
BRANCH   1  15
ATOM     15  C   UNL     1      43.387   3.753  11.229  0.00  0.00    +0.000 C 
BRANCH  15  16
ATOM     16  O   UNL     1      43.600   4.186   9.881  0.00  0.00    +0.000 OA
BRANCH  16  20
ATOM     17  C   UNL     1      46.583   2.291   7.638  0.00  0.00    +0.000 A 
ATOM     18  C   UNL     1      45.763   1.518   8.467  0.00  0.00    +0.000 A 
ATOM     19  C   UNL     1      44.748   2.111   9.225  0.00  0.00    +0.000 A 
ATOM     20  C   UNL     1      44.544   3.491   9.172  0.00  0.00    +0.000 A 
ATOM     21  C   UNL     1      45.354   4.265   8.342  0.00  0.00    +0.000 A 
ATOM     22  C   UNL     1      46.367   3.674   7.579  0.00  0.00    +0.000 A 
BRANCH  17  23
ATOM     23  C   UNL     1      47.697   1.645   6.855  0.00  0.00    +0.000 C 
BRANCH  23  24
ATOM     24  N   UNL     1      48.621   2.637   6.318  0.00  0.00    +0.000 NA
ATOM     25  H   UNL     1      49.448   2.677   6.911  0.00  0.00    +0.000 HD
ATOM     26  H   UNL     1      48.182   3.556   6.373  0.00  0.00    +0.000 HD
ENDBRANCH  23  24
ENDBRANCH  17  23
ENDBRANCH  16  20
ENDBRANCH  15  16
ENDBRANCH   1  15
TORSDOF 7
ENDMDL
MODEL 2
REMARK VINA RESULT:    -7.795      1.867      6.131
REMARK INTER + INTRA:         -11.626
REMARK INTER:                 -10.733
REMARK INTRA:                  -0.893
REMARK UNBOUND:                -0.869
REMARK  Name = 
REMARK  7 active torsions:
REMARK  status: ('A' for Active; 'I' for Inactive)
REMARK    1  A    between atoms: N_1  and  C_2
REMARK    2  A    between atoms: C_2  and  C_3
REMARK    3  A    between atoms: C_6  and  O_7
REMARK    4  A    between atoms: O_7  and  C_8
REMARK    5  A    between atoms: C_8  and  C_9
REMARK    6  A    between atoms: C_9  and  C_12
REMARK    7  A    between atoms: C_15  and  C_16
REMARK                            x       y       z     vdW  Elec       q    Type
REMARK                         _______ _______ _______ _____ _____    ______ ____
ROOT
ATOM      1  C   UNL     1      43.951   3.140  10.887  0.00  0.00    +0.000 C 
ATOM      2  F   UNL     1      43.162   2.043  11.098  0.00  0.00    +0.000 F 
ATOM      3  F   UNL     1      43.064   4.183  10.784  0.00  0.00    +0.000 F 
ENDROOT
BRANCH   1   4
ATOM      4  C   UNL     1      44.786   3.017   9.626  0.00  0.00    +0.000 A 
ATOM      5  C   UNL     1      45.176   4.156   8.909  0.00  0.00    +0.000 A 
ATOM      6  C   UNL     1      45.997   4.038   7.784  0.00  0.00    +0.000 A 
ATOM      7  C   UNL     1      46.446   2.781   7.362  0.00  0.00    +0.000 A 
ATOM      8  C   UNL     1      46.032   1.635   8.050  0.00  0.00    +0.000 A 
ATOM      9  C   UNL     1      45.206   1.755   9.172  0.00  0.00    +0.000 A 
BRANCH   7  10
ATOM     10  C   UNL     1      47.349   2.718   6.180  0.00  0.00    +0.000 C 
ATOM     11  N   UNL     1      48.680   2.502   6.411  0.00  0.00    +0.000 N 
ATOM     12  O   UNL     1      46.931   2.895   5.045  0.00  0.00    +0.000 OA
ATOM     13  H   UNL     1      49.101   2.562   7.324  0.00  0.00    +0.000 HD
ATOM     14  H   UNL     1      49.288   2.580   5.605  0.00  0.00    +0.000 HD
ENDBRANCH   7  10
ENDBRANCH   1   4
BRANCH   1  15
ATOM     15  C   UNL     1      44.781   3.399  12.150  0.00  0.00    +0.000 C 
BRANCH  15  16
ATOM     16  O   UNL     1      44.658   4.746  12.620  0.00  0.00    +0.000 OA
BRANCH  16  20
ATOM     17  C   UNL     1      48.255   6.874  12.842  0.00  0.00    +0.000 A 
ATOM     18  C   UNL     1      47.427   7.055  11.729  0.00  0.00    +0.000 A 
ATOM     19  C   UNL     1      46.212   6.370  11.621  0.00  0.00    +0.000 A 
ATOM     20  C   UNL     1      45.811   5.485  12.623  0.00  0.00    +0.000 A 
ATOM     21  C   UNL     1      46.629   5.307  13.739  0.00  0.00    +0.000 A 
ATOM     22  C   UNL     1      47.843   5.994  13.852  0.00  0.00    +0.000 A 
BRANCH  17  23
ATOM     23  C   UNL     1      49.579   7.589  12.929  0.00  0.00    +0.000 C 
BRANCH  23  24
ATOM     24  N   UNL     1      50.308   7.223  14.138  0.00  0.00    +0.000 NA
ATOM     25  H   UNL     1      51.206   7.704  14.143  0.00  0.00    +0.000 HD
ATOM     26  H   UNL     1      50.516   6.225  14.104  0.00  0.00    +0.000 HD
ENDBRANCH  23  24
ENDBRANCH  17  23
ENDBRANCH  16  20
ENDBRANCH  15  16
ENDBRANCH   1  15
TORSDOF 7
ENDMDL
MODEL 3
REMARK VINA RESULT:    -7.701      1.529      1.697
REMARK INTER + INTRA:         -11.497
REMARK INTER:                 -10.819
REMARK INTRA:                  -0.677
REMARK UNBOUND:                -0.869
REMARK  Name = 
REMARK  7 active torsions:
REMARK  status: ('A' for Active; 'I' for Inactive)
REMARK    1  A    between atoms: N_1  and  C_2
REMARK    2  A    between atoms: C_2  and  C_3
REMARK    3  A    between atoms: C_6  and  O_7
REMARK    4  A    between atoms: O_7  and  C_8
REMARK    5  A    between atoms: C_8  and  C_9
REMARK    6  A    between atoms: C_9  and  C_12
REMARK    7  A    between atoms: C_15  and  C_16
REMARK                            x       y       z     vdW  Elec       q    Type
REMARK                         _______ _______ _______ _____ _____    ______ ____
ROOT
ATOM      1  C   UNL     1      44.168   3.802  12.480  0.00  0.00    +0.000 C 
ATOM      2  F   UNL     1      43.305   3.636  13.527  0.00  0.00    +0.000 F 
ATOM      3  F   UNL     1      44.945   2.670  12.496  0.00  0.00    +0.000 F 
ENDROOT
BRANCH   1   4
ATOM      4  C   UNL     1      45.025   5.045  12.630  0.00  0.00    +0.000 A 
ATOM      5  C   UNL     1      44.457   6.324  12.544  0.00  0.00    +0.000 A 
ATOM      6  C   UNL     1      45.241   7.463  12.745  0.00  0.00    +0.000 A 
ATOM      7  C   UNL     1      46.604   7.341  13.043  0.00  0.00    +0.000 A 
ATOM      8  C   UNL     1      47.187   6.071  13.096  0.00  0.00    +0.000 A 
ATOM      9  C   UNL     1      46.401   4.933  12.889  0.00  0.00    +0.000 A 
BRANCH   7  10
ATOM     10  C   UNL     1      47.383   8.586  13.286  0.00  0.00    +0.000 C 
ATOM     11  N   UNL     1      47.308   9.148  14.531  0.00  0.00    +0.000 N 
ATOM     12  O   UNL     1      48.034   9.117  12.398  0.00  0.00    +0.000 OA
ATOM     13  H   UNL     1      46.629   8.874  15.222  0.00  0.00    +0.000 HD
ATOM     14  H   UNL     1      47.750  10.053  14.636  0.00  0.00    +0.000 HD
ENDBRANCH   7  10
ENDBRANCH   1   4
BRANCH   1  15
ATOM     15  C   UNL     1      43.368   3.761  11.173  0.00  0.00    +0.000 C 
BRANCH  15  16
ATOM     16  O   UNL     1      44.018   4.467  10.110  0.00  0.00    +0.000 OA
BRANCH  16  20
ATOM     17  C   UNL     1      46.606   2.392   7.557  0.00  0.00    +0.000 A 
ATOM     18  C   UNL     1      45.798   1.667   8.440  0.00  0.00    +0.000 A 
ATOM     19  C   UNL     1      44.912   2.322   9.302  0.00  0.00    +0.000 A 
ATOM     20  C   UNL     1      44.829   3.715   9.301  0.00  0.00    +0.000 A 
ATOM     21  C   UNL     1      45.626   4.443   8.418  0.00  0.00    +0.000 A 
ATOM     22  C   UNL     1      46.510   3.790   7.551  0.00  0.00    +0.000 A 
BRANCH  17  23
ATOM     23  C   UNL     1      47.582   1.677   6.659  0.00  0.00    +0.000 C 
BRANCH  23  24
ATOM     24  N   UNL     1      48.655   2.562   6.220  0.00  0.00    +0.000 NA
ATOM     25  H   UNL     1      48.366   3.038   5.368  0.00  0.00    +0.000 HD
ATOM     26  H   UNL     1      49.466   1.995   5.973  0.00  0.00    +0.000 HD
ENDBRANCH  23  24
ENDBRANCH  17  23
ENDBRANCH  16  20
ENDBRANCH  15  16
ENDBRANCH   1  15
TORSDOF 7
ENDMDL
MODEL 4
REMARK VINA RESULT:    -7.686      1.822      6.081
REMARK INTER + INTRA:         -11.476
REMARK INTER:                 -10.550
REMARK INTRA:                  -0.926
REMARK UNBOUND:                -0.869
REMARK  Name = 
REMARK  7 active torsions:
REMARK  status: ('A' for Active; 'I' for Inactive)
REMARK    1  A    between atoms: N_1  and  C_2
REMARK    2  A    between atoms: C_2  and  C_3
REMARK    3  A    between atoms: C_6  and  O_7
REMARK    4  A    between atoms: O_7  and  C_8
REMARK    5  A    between atoms: C_8  and  C_9
REMARK    6  A    between atoms: C_9  and  C_12
REMARK    7  A    between atoms: C_15  and  C_16
REMARK                            x       y       z     vdW  Elec       q    Type
REMARK                         _______ _______ _______ _____ _____    ______ ____
ROOT
ATOM      1  C   UNL     1      43.965   3.287  10.863  0.00  0.00    +0.000 C 
ATOM      2  F   UNL     1      43.149   2.199  11.007  0.00  0.00    +0.000 F 
ATOM      3  F   UNL     1      43.100   4.341  10.699  0.00  0.00    +0.000 F 
ENDROOT
BRANCH   1   4
ATOM      4  C   UNL     1      44.890   3.160   9.667  0.00  0.00    +0.000 A 
ATOM      5  C   UNL     1      45.302   1.901   9.209  0.00  0.00    +0.000 A 
ATOM      6  C   UNL     1      46.104   1.790   8.069  0.00  0.00    +0.000 A 
ATOM      7  C   UNL     1      46.500   2.934   7.367  0.00  0.00    +0.000 A 
ATOM      8  C   UNL     1      46.124   4.197   7.838  0.00  0.00    +0.000 A 
ATOM      9  C   UNL     1      45.326   4.306   8.981  0.00  0.00    +0.000 A 
BRANCH   7  10
ATOM     10  C   UNL     1      47.322   2.755   6.139  0.00  0.00    +0.000 C 
ATOM     11  N   UNL     1      48.654   2.486   6.301  0.00  0.00    +0.000 N 
ATOM     12  O   UNL     1      46.842   2.885   5.022  0.00  0.00    +0.000 OA
ATOM     13  H   UNL     1      49.134   2.578   7.181  0.00  0.00    +0.000 HD
ATOM     14  H   UNL     1      49.212   2.485   5.456  0.00  0.00    +0.000 HD
ENDBRANCH   7  10
ENDBRANCH   1   4
BRANCH   1  15
ATOM     15  C   UNL     1      44.699   3.530  12.186  0.00  0.00    +0.000 C 
BRANCH  15  16
ATOM     16  O   UNL     1      44.612   4.892  12.620  0.00  0.00    +0.000 OA
BRANCH  16  20
ATOM     17  C   UNL     1      48.281   6.884  12.917  0.00  0.00    +0.000 A 
ATOM     18  C   UNL     1      47.484   7.094  11.786  0.00  0.00    +0.000 A 
ATOM     19  C   UNL     1      46.246   6.455  11.653  0.00  0.00    +0.000 A 
ATOM     20  C   UNL     1      45.791   5.588  12.647  0.00  0.00    +0.000 A 
ATOM     21  C   UNL     1      46.578   5.380  13.780  0.00  0.00    +0.000 A 
ATOM     22  C   UNL     1      47.814   6.022  13.918  0.00  0.00    +0.000 A 
BRANCH  17  23
ATOM     23  C   UNL     1      49.628   7.549  13.031  0.00  0.00    +0.000 C 
BRANCH  23  24
ATOM     24  N   UNL     1      50.413   7.382  11.813  0.00  0.00    +0.000 NA
ATOM     25  H   UNL     1      51.394   7.559  12.024  0.00  0.00    +0.000 HD
ATOM     26  H   UNL     1      50.129   8.094  11.141  0.00  0.00    +0.000 HD
ENDBRANCH  23  24
ENDBRANCH  17  23
ENDBRANCH  16  20
ENDBRANCH  15  16
ENDBRANCH   1  15
TORSDOF 7
ENDMDL
MODEL 5
REMARK VINA RESULT:    -7.146      2.139      6.433
REMARK INTER + INTRA:         -10.731
REMARK INTER:                 -10.201
REMARK INTRA:                  -0.529
REMARK UNBOUND:                -0.869
REMARK  Name = 
REMARK  7 active torsions:
REMARK  status: ('A' for Active; 'I' for Inactive)
REMARK    1  A    between atoms: N_1  and  C_2
REMARK    2  A    between atoms: C_2  and  C_3
REMARK    3  A    between atoms: C_6  and  O_7
REMARK    4  A    between atoms: O_7  and  C_8
REMARK    5  A    between atoms: C_8  and  C_9
REMARK    6  A    between atoms: C_9  and  C_12
REMARK    7  A    between atoms: C_15  and  C_16
REMARK                            x       y       z     vdW  Elec       q    Type
REMARK                         _______ _______ _______ _____ _____    ______ ____
ROOT
ATOM      1  C   UNL     1      44.122   4.646  10.670  0.00  0.00    +0.000 C 
ATOM      2  F   UNL     1      43.699   3.812  11.668  0.00  0.00    +0.000 F 
ATOM      3  F   UNL     1      42.963   5.153  10.136  0.00  0.00    +0.000 F 
ENDROOT
BRANCH   1   4
ATOM      4  C   UNL     1      44.929   3.917   9.612  0.00  0.00    +0.000 A 
ATOM      5  C   UNL     1      45.613   4.626   8.616  0.00  0.00    +0.000 A 
ATOM      6  C   UNL     1      46.405   3.951   7.683  0.00  0.00    +0.000 A 
ATOM      7  C   UNL     1      46.530   2.558   7.735  0.00  0.00    +0.000 A 
ATOM      8  C   UNL     1      45.821   1.838   8.703  0.00  0.00    +0.000 A 
ATOM      9  C   UNL     1      45.026   2.515   9.633  0.00  0.00    +0.000 A 
BRANCH   7  10
ATOM     10  C   UNL     1      47.416   1.894   6.739  0.00  0.00    +0.000 C 
ATOM     11  N   UNL     1      48.536   2.570   6.339  0.00  0.00    +0.000 N 
ATOM     12  O   UNL     1      47.137   0.805   6.259  0.00  0.00    +0.000 OA
ATOM     13  H   UNL     1      48.697   3.544   6.540  0.00  0.00    +0.000 HD
ATOM     14  H   UNL     1      49.057   2.152   5.578  0.00  0.00    +0.000 HD
ENDBRANCH   7  10
ENDBRANCH   1   4
BRANCH   1  15
ATOM     15  C   UNL     1      44.863   5.831  11.301  0.00  0.00    +0.000 C 
BRANCH  15  16
ATOM     16  O   UNL     1      46.272   5.602  11.408  0.00  0.00    +0.000 OA
BRANCH  16  20
ATOM     17  C   UNL     1      47.884   5.484  15.269  0.00  0.00    +0.000 A 
ATOM     18  C   UNL     1      47.005   4.471  14.869  0.00  0.00    +0.000 A 
ATOM     19  C   UNL     1      46.453   4.468  13.583  0.00  0.00    +0.000 A 
ATOM     20  C   UNL     1      46.765   5.486  12.681  0.00  0.00    +0.000 A 
ATOM     21  C   UNL     1      47.645   6.494  13.072  0.00  0.00    +0.000 A 
ATOM     22  C   UNL     1      48.203   6.497  14.356  0.00  0.00    +0.000 A 
BRANCH  17  23
ATOM     23  C   UNL     1      48.443   5.495  16.668  0.00  0.00    +0.000 C 
BRANCH  23  24
ATOM     24  N   UNL     1      49.894   5.342  16.667  0.00  0.00    +0.000 NA
ATOM     25  H   UNL     1      50.318   6.201  17.011  0.00  0.00    +0.000 HD
ATOM     26  H   UNL     1      50.209   5.229  15.704  0.00  0.00    +0.000 HD
ENDBRANCH  23  24
ENDBRANCH  17  23
ENDBRANCH  16  20
ENDBRANCH  15  16
ENDBRANCH   1  15
TORSDOF 7
ENDMDL
MODEL 6
REMARK VINA RESULT:    -6.211      3.538      4.394
REMARK INTER + INTRA:          -9.441
REMARK INTER:                  -8.750
REMARK INTRA:                  -0.691
REMARK UNBOUND:                -0.869
REMARK  Name = 
REMARK  7 active torsions:
REMARK  status: ('A' for Active; 'I' for Inactive)
REMARK    1  A    between atoms: N_1  and  C_2
REMARK    2  A    between atoms: C_2  and  C_3
REMARK    3  A    between atoms: C_6  and  O_7
REMARK    4  A    between atoms: O_7  and  C_8
REMARK    5  A    between atoms: C_8  and  C_9
REMARK    6  A    between atoms: C_9  and  C_12
REMARK    7  A    between atoms: C_15  and  C_16
REMARK                            x       y       z     vdW  Elec       q    Type
REMARK                         _______ _______ _______ _____ _____    ______ ____
ROOT
ATOM      1  C   UNL     1      46.906   4.638  13.905  0.00  0.00    +0.000 C 
ATOM      2  F   UNL     1      47.325   3.532  13.220  0.00  0.00    +0.000 F 
ATOM      3  F   UNL     1      47.455   5.692  13.217  0.00  0.00    +0.000 F 
ENDROOT
BRANCH   1   4
ATOM      4  C   UNL     1      47.375   4.636  15.348  0.00  0.00    +0.000 A 
ATOM      5  C   UNL     1      47.042   3.581  16.209  0.00  0.00    +0.000 A 
ATOM      6  C   UNL     1      47.529   3.555  17.519  0.00  0.00    +0.000 A 
ATOM      7  C   UNL     1      48.362   4.579  17.986  0.00  0.00    +0.000 A 
ATOM      8  C   UNL     1      48.669   5.654  17.146  0.00  0.00    +0.000 A 
ATOM      9  C   UNL     1      48.177   5.681  15.837  0.00  0.00    +0.000 A 
BRANCH   7  10
ATOM     10  C   UNL     1      48.883   4.481  19.377  0.00  0.00    +0.000 C 
ATOM     11  N   UNL     1      48.361   3.506  20.182  0.00  0.00    +0.000 N 
ATOM     12  O   UNL     1      49.715   5.267  19.806  0.00  0.00    +0.000 OA
ATOM     13  H   UNL     1      47.535   2.978  19.949  0.00  0.00    +0.000 HD
ATOM     14  H   UNL     1      48.644   3.534  21.154  0.00  0.00    +0.000 HD
ENDBRANCH   7  10
ENDBRANCH   1   4
BRANCH   1  15
ATOM     15  C   UNL     1      45.386   4.765  13.752  0.00  0.00    +0.000 C 
BRANCH  15  16
ATOM     16  O   UNL     1      45.013   5.581  12.636  0.00  0.00    +0.000 OA
BRANCH  16  20
ATOM     17  C   UNL     1      45.417   3.965   8.796  0.00  0.00    +0.000 A 
ATOM     18  C   UNL     1      44.814   3.195   9.797  0.00  0.00    +0.000 A 
ATOM     19  C   UNL     1      44.651   3.702  11.091  0.00  0.00    +0.000 A 
ATOM     20  C   UNL     1      45.099   4.986  11.405  0.00  0.00    +0.000 A 
ATOM     21  C   UNL     1      45.694   5.761  10.410  0.00  0.00    +0.000 A 
ATOM     22  C   UNL     1      45.854   5.258   9.114  0.00  0.00    +0.000 A 
BRANCH  17  23
ATOM     23  C   UNL     1      45.620   3.393   7.417  0.00  0.00    +0.000 C 
BRANCH  23  24
ATOM     24  N   UNL     1      46.695   4.077   6.706  0.00  0.00    +0.000 NA
ATOM     25  H   UNL     1      47.193   3.402   6.129  0.00  0.00    +0.000 HD
ATOM     26  H   UNL     1      47.367   4.426   7.388  0.00  0.00    +0.000 HD
ENDBRANCH  23  24
ENDBRANCH  17  23
ENDBRANCH  16  20
ENDBRANCH  15  16
ENDBRANCH   1  15
TORSDOF 7
ENDMDL
MODEL 7
REMARK VINA RESULT:    -6.097      2.567      6.687
REMARK INTER + INTRA:          -9.282
REMARK INTER:                  -8.363
REMARK INTRA:                  -0.920
REMARK UNBOUND:                -0.869
REMARK  Name = 
REMARK  7 active torsions:
REMARK  status: ('A' for Active; 'I' for Inactive)
REMARK    1  A    between atoms: N_1  and  C_2
REMARK    2  A    between atoms: C_2  and  C_3
REMARK    3  A    between atoms: C_6  and  O_7
REMARK    4  A    between atoms: O_7  and  C_8
REMARK    5  A    between atoms: C_8  and  C_9
REMARK    6  A    between atoms: C_9  and  C_12
REMARK    7  A    between atoms: C_15  and  C_16
REMARK                            x       y       z     vdW  Elec       q    Type
REMARK                         _______ _______ _______ _____ _____    ______ ____
ROOT
ATOM      1  C   UNL     1      44.983   6.654  11.956  0.00  0.00    +0.000 C 
ATOM      2  F   UNL     1      44.307   6.317  13.096  0.00  0.00    +0.000 F 
ATOM      3  F   UNL     1      44.229   7.656  11.397  0.00  0.00    +0.000 F 
ENDROOT
BRANCH   1   4
ATOM      4  C   UNL     1      45.121   5.485  10.999  0.00  0.00    +0.000 A 
ATOM      5  C   UNL     1      45.632   5.671   9.707  0.00  0.00    +0.000 A 
ATOM      6  C   UNL     1      45.814   4.579   8.853  0.00  0.00    +0.000 A 
ATOM      7  C   UNL     1      45.494   3.284   9.280  0.00  0.00    +0.000 A 
ATOM      8  C   UNL     1      44.949   3.094  10.554  0.00  0.00    +0.000 A 
ATOM      9  C   UNL     1      44.763   4.188  11.405  0.00  0.00    +0.000 A 
BRANCH   7  10
ATOM     10  C   UNL     1      45.744   2.155   8.343  0.00  0.00    +0.000 C 
ATOM     11  N   UNL     1      46.275   2.453   7.118  0.00  0.00    +0.000 N 
ATOM     12  O   UNL     1      45.447   1.005   8.633  0.00  0.00    +0.000 OA
ATOM     13  H   UNL     1      46.337   3.390   6.755  0.00  0.00    +0.000 HD
ATOM     14  H   UNL     1      46.325   1.686   6.458  0.00  0.00    +0.000 HD
ENDBRANCH   7  10
ENDBRANCH   1   4
BRANCH   1  15
ATOM     15  C   UNL     1      46.323   7.288  12.349  0.00  0.00    +0.000 C 
BRANCH  15  16
ATOM     16  O   UNL     1      47.365   6.317  12.503  0.00  0.00    +0.000 OA
BRANCH  16  20
ATOM     17  C   UNL     1      47.923   4.937  16.415  0.00  0.00    +0.000 A 
ATOM     18  C   UNL     1      47.179   4.159  15.520  0.00  0.00    +0.000 A 
ATOM     19  C   UNL     1      46.978   4.580  14.201  0.00  0.00    +0.000 A 
ATOM     20  C   UNL     1      47.511   5.792  13.760  0.00  0.00    +0.000 A 
ATOM     21  C   UNL     1      48.259   6.568  14.645  0.00  0.00    +0.000 A 
ATOM     22  C   UNL     1      48.466   6.147  15.964  0.00  0.00    +0.000 A 
BRANCH  17  23
ATOM     23  C   UNL     1      48.102   4.490  17.843  0.00  0.00    +0.000 C 
BRANCH  23  24
ATOM     24  N   UNL     1      46.900   4.731  18.634  0.00  0.00    +0.000 NA
ATOM     25  H   UNL     1      46.174   4.081  18.342  0.00  0.00    +0.000 HD
ATOM     26  H   UNL     1      46.553   5.667  18.423  0.00  0.00    +0.000 HD
ENDBRANCH  23  24
ENDBRANCH  17  23
ENDBRANCH  16  20
ENDBRANCH  15  16
ENDBRANCH   1  15
TORSDOF 7
ENDMDL
MODEL 8
REMARK VINA RESULT:    -6.036      4.952      6.635
REMARK INTER + INTRA:          -9.198
REMARK INTER:                  -8.575
REMARK INTRA:                  -0.623
REMARK UNBOUND:                -0.869
REMARK  Name = 
REMARK  7 active torsions:
REMARK  status: ('A' for Active; 'I' for Inactive)
REMARK    1  A    between atoms: N_1  and  C_2
REMARK    2  A    between atoms: C_2  and  C_3
REMARK    3  A    between atoms: C_6  and  O_7
REMARK    4  A    between atoms: O_7  and  C_8
REMARK    5  A    between atoms: C_8  and  C_9
REMARK    6  A    between atoms: C_9  and  C_12
REMARK    7  A    between atoms: C_15  and  C_16
REMARK                            x       y       z     vdW  Elec       q    Type
REMARK                         _______ _______ _______ _____ _____    ______ ____
ROOT
ATOM      1  C   UNL     1      47.716   4.094  17.033  0.00  0.00    +0.000 C 
ATOM      2  F   UNL     1      47.280   4.862  18.077  0.00  0.00    +0.000 F 
ATOM      3  F   UNL     1      46.830   3.046  16.988  0.00  0.00    +0.000 F 
ENDROOT
BRANCH   1   4
ATOM      4  C   UNL     1      49.133   3.592  17.238  0.00  0.00    +0.000 A 
ATOM      5  C   UNL     1      50.140   4.452  17.699  0.00  0.00    +0.000 A 
ATOM      6  C   UNL     1      51.427   3.968  17.945  0.00  0.00    +0.000 A 
ATOM      7  C   UNL     1      51.727   2.615  17.742  0.00  0.00    +0.000 A 
ATOM      8  C   UNL     1      50.739   1.758  17.247  0.00  0.00    +0.000 A 
ATOM      9  C   UNL     1      49.452   2.245  16.997  0.00  0.00    +0.000 A 
BRANCH   7  10
ATOM     10  C   UNL     1      53.104   2.146  18.056  0.00  0.00    +0.000 C 
ATOM     11  N   UNL     1      54.140   2.999  17.791  0.00  0.00    +0.000 N 
ATOM     12  O   UNL     1      53.314   1.024  18.494  0.00  0.00    +0.000 OA
ATOM     13  H   UNL     1      54.041   3.837  17.241  0.00  0.00    +0.000 HD
ATOM     14  H   UNL     1      55.070   2.615  17.903  0.00  0.00    +0.000 HD
ENDBRANCH   7  10
ENDBRANCH   1   4
BRANCH   1  15
ATOM     15  C   UNL     1      47.524   4.880  15.730  0.00  0.00    +0.000 C 
BRANCH  15  16
ATOM     16  O   UNL     1      47.521   4.034  14.575  0.00  0.00    +0.000 OA
BRANCH  16  20
ATOM     17  C   UNL     1      44.362   4.853  11.954  0.00  0.00    +0.000 A 
ATOM     18  C   UNL     1      44.869   3.550  12.021  0.00  0.00    +0.000 A 
ATOM     19  C   UNL     1      45.917   3.233  12.891  0.00  0.00    +0.000 A 
ATOM     20  C   UNL     1      46.482   4.218  13.702  0.00  0.00    +0.000 A 
ATOM     21  C   UNL     1      45.976   5.516  13.645  0.00  0.00    +0.000 A 
ATOM     22  C   UNL     1      44.924   5.836  12.779  0.00  0.00    +0.000 A 
BRANCH  17  23
ATOM     23  C   UNL     1      43.257   5.189  10.986  0.00  0.00    +0.000 C 
BRANCH  23  24
ATOM     24  N   UNL     1      42.221   5.999  11.616  0.00  0.00    +0.000 NA
ATOM     25  H   UNL     1      42.255   6.941  11.231  0.00  0.00    +0.000 HD
ATOM     26  H   UNL     1      42.433   6.086  12.610  0.00  0.00    +0.000 HD
ENDBRANCH  23  24
ENDBRANCH  17  23
ENDBRANCH  16  20
ENDBRANCH  15  16
ENDBRANCH   1  15
TORSDOF 7
ENDMDL
MODEL 9
REMARK VINA RESULT:    -5.726      3.613      7.754
REMARK INTER + INTRA:          -8.771
REMARK INTER:                  -7.950
REMARK INTRA:                  -0.821
REMARK UNBOUND:                -0.869
REMARK  Name = 
REMARK  7 active torsions:
REMARK  status: ('A' for Active; 'I' for Inactive)
REMARK    1  A    between atoms: N_1  and  C_2
REMARK    2  A    between atoms: C_2  and  C_3
REMARK    3  A    between atoms: C_6  and  O_7
REMARK    4  A    between atoms: O_7  and  C_8
REMARK    5  A    between atoms: C_8  and  C_9
REMARK    6  A    between atoms: C_9  and  C_12
REMARK    7  A    between atoms: C_15  and  C_16
REMARK                            x       y       z     vdW  Elec       q    Type
REMARK                         _______ _______ _______ _____ _____    ______ ____
ROOT
ATOM      1  C   UNL     1      47.227   7.423  12.817  0.00  0.00    +0.000 C 
ATOM      2  F   UNL     1      46.564   8.272  13.659  0.00  0.00    +0.000 F 
ATOM      3  F   UNL     1      47.601   8.217  11.760  0.00  0.00    +0.000 F 
ENDROOT
BRANCH   1   4
ATOM      4  C   UNL     1      46.352   6.277  12.346  0.00  0.00    +0.000 A 
ATOM      5  C   UNL     1      45.981   6.163  10.999  0.00  0.00    +0.000 A 
ATOM      6  C   UNL     1      45.228   5.070  10.561  0.00  0.00    +0.000 A 
ATOM      7  C   UNL     1      44.839   4.071  11.462  0.00  0.00    +0.000 A 
ATOM      8  C   UNL     1      45.173   4.195  12.815  0.00  0.00    +0.000 A 
ATOM      9  C   UNL     1      45.923   5.292  13.251  0.00  0.00    +0.000 A 
BRANCH   7  10
ATOM     10  C   UNL     1      44.070   2.911  10.935  0.00  0.00    +0.000 C 
ATOM     11  N   UNL     1      44.592   2.239   9.864  0.00  0.00    +0.000 N 
ATOM     12  O   UNL     1      42.989   2.591  11.407  0.00  0.00    +0.000 OA
ATOM     13  H   UNL     1      45.360   2.587   9.312  0.00  0.00    +0.000 HD
ATOM     14  H   UNL     1      43.997   1.531   9.451  0.00  0.00    +0.000 HD
ENDBRANCH   7  10
ENDBRANCH   1   4
BRANCH   1  15
ATOM     15  C   UNL     1      48.524   6.968  13.498  0.00  0.00    +0.000 C 
BRANCH  15  16
ATOM     16  O   UNL     1      48.752   7.636  14.743  0.00  0.00    +0.000 OA
BRANCH  16  20
ATOM     17  C   UNL     1      48.769   5.420  18.294  0.00  0.00    +0.000 A 
ATOM     18  C   UNL     1      48.363   4.798  17.108  0.00  0.00    +0.000 A 
ATOM     19  C   UNL     1      48.353   5.501  15.898  0.00  0.00    +0.000 A 
ATOM     20  C   UNL     1      48.740   6.841  15.859  0.00  0.00    +0.000 A 
ATOM     21  C   UNL     1      49.152   7.464  17.037  0.00  0.00    +0.000 A 
ATOM     22  C   UNL     1      49.168   6.762  18.248  0.00  0.00    +0.000 A 
BRANCH  17  23
ATOM     23  C   UNL     1      48.741   4.662  19.596  0.00  0.00    +0.000 C 
BRANCH  23  24
ATOM     24  N   UNL     1      48.387   3.261  19.394  0.00  0.00    +0.000 NA
ATOM     25  H   UNL     1      48.648   2.985  18.450  0.00  0.00    +0.000 HD
ATOM     26  H   UNL     1      47.373   3.170  19.452  0.00  0.00    +0.000 HD
ENDBRANCH  23  24
ENDBRANCH  17  23
ENDBRANCH  16  20
ENDBRANCH  15  16
ENDBRANCH   1  15
TORSDOF 7
ENDMDL
