MODEL 1
REMARK VINA RESULT:    -7.871      0.000      0.000
REMARK INTER + INTRA:         -10.344
REMARK INTER:                  -9.711
REMARK INTRA:                  -0.632
REMARK UNBOUND:                -0.632
REMARK  Name = 
REMARK  5 active torsions:
REMARK  status: ('A' for Active; 'I' for Inactive)
REMARK    1  A    between atoms: C_1  and  C_2
REMARK    2  A    between atoms: C_2  and  O_3
REMARK    3  A    between atoms: C_2  and  C_13
REMARK    4  A    between atoms: O_3  and  C_4
REMARK    5  A    between atoms: C_7  and  C_8
REMARK                            x       y       z     vdW  Elec       q    Type
REMARK                         _______ _______ _______ _____ _____    ______ ____
ROOT
ATOM      1  C   UNL     1      44.574   3.832   9.262  0.00  0.00    +0.000 A 
ATOM      2  C   UNL     1      45.499   4.430   8.406  0.00  0.00    +0.000 A 
ATOM      3  C   UNL     1      46.396   3.639   7.692  0.00  0.00    +0.000 A 
ATOM      4  C   UNL     1      46.346   2.264   7.878  0.00  0.00    +0.000 A 
ATOM      5  N   UNL     1      45.484   1.645   8.733  0.00  0.00    +0.000 NA
ATOM      6  C   UNL     1      44.630   2.450   9.408  0.00  0.00    +0.000 A 
ENDROOT
BRANCH   4   7
ATOM      7  C   UNL     1      47.272   1.375   7.107  0.00  0.00    +0.000 C 
ATOM      8  N   UNL     1      48.332   2.005   6.517  0.00  0.00    +0.000 N 
ATOM      9  O   UNL     1      47.101   0.166   7.009  0.00  0.00    +0.000 OA
ATOM     10  H   UNL     1      48.437   3.010   6.617  0.00  0.00    +0.000 HD
ATOM     11  H   UNL     1      48.995   1.470   5.978  0.00  0.00    +0.000 HD
ENDBRANCH   4   7
BRANCH   1  12
ATOM     12  O   UNL     1      43.708   4.680   9.883  0.00  0.00    +0.000 OA
BRANCH  12  14
ATOM     13  C   UNL     1      42.372   5.415  11.799  0.00  0.00    +0.000 C 
ATOM     14  C   UNL     1      43.538   4.554  11.307  0.00  0.00    +0.000 C 
BRANCH  14  15
ATOM     15  C   UNL     1      44.840   5.006  11.948  0.00  0.00    +0.000 A 
ATOM     16  C   UNL     1      45.366   6.277  11.668  0.00  0.00    +0.000 A 
ATOM     17  C   UNL     1      46.540   6.713  12.287  0.00  0.00    +0.000 A 
ATOM     18  C   UNL     1      47.204   5.882  13.187  0.00  0.00    +0.000 A 
ATOM     19  C   UNL     1      46.709   4.609  13.455  0.00  0.00    +0.000 A 
ATOM     20  C   UNL     1      45.535   4.172  12.838  0.00  0.00    +0.000 A 
ENDBRANCH  14  15
ENDBRANCH  12  14
ENDBRANCH   1  12
TORSDOF 4
ENDMDL
MODEL 2
REMARK VINA RESULT:    -7.036      1.428      2.067
REMARK INTER + INTRA:          -9.314
REMARK INTER:                  -8.752
REMARK INTRA:                  -0.562
REMARK UNBOUND:                -0.632
REMARK  Name = 
REMARK  5 active torsions:
REMARK  status: ('A' for Active; 'I' for Inactive)
REMARK    1  A    between atoms: C_1  and  C_2
REMARK    2  A    between atoms: C_2  and  O_3
REMARK    3  A    between atoms: C_2  and  C_13
REMARK    4  A    between atoms: O_3  and  C_4
REMARK    5  A    between atoms: C_7  and  C_8
REMARK                            x       y       z     vdW  Elec       q    Type
REMARK                         _______ _______ _______ _____ _____    ______ ____
ROOT
ATOM      1  C   UNL     1      44.781   3.415   9.374  0.00  0.00    +0.000 A 
ATOM      2  C   UNL     1      45.229   2.107   9.192  0.00  0.00    +0.000 A 
ATOM      3  C   UNL     1      46.090   1.809   8.139  0.00  0.00    +0.000 A 
ATOM      4  C   UNL     1      46.458   2.838   7.284  0.00  0.00    +0.000 A 
ATOM      5  N   UNL     1      46.011   4.120   7.404  0.00  0.00    +0.000 NA
ATOM      6  C   UNL     1      45.177   4.368   8.441  0.00  0.00    +0.000 A 
ENDROOT
BRANCH   4   7
ATOM      7  C   UNL     1      47.405   2.567   6.156  0.00  0.00    +0.000 C 
ATOM      8  N   UNL     1      48.598   2.006   6.517  0.00  0.00    +0.000 N 
ATOM      9  O   UNL     1      47.137   2.824   4.989  0.00  0.00    +0.000 OA
ATOM     10  H   UNL     1      48.786   1.811   7.495  0.00  0.00    +0.000 HD
ATOM     11  H   UNL     1      49.287   1.798   5.810  0.00  0.00    +0.000 HD
ENDBRANCH   4   7
BRANCH   1  12
ATOM     12  O   UNL     1      43.980   3.623  10.456  0.00  0.00    +0.000 OA
BRANCH  12  14
ATOM     13  C   UNL     1      43.558   3.173  12.826  0.00  0.00    +0.000 C 
ATOM     14  C   UNL     1      44.581   3.582  11.763  0.00  0.00    +0.000 C 
BRANCH  14  15
ATOM     15  C   UNL     1      45.113   4.977  12.048  0.00  0.00    +0.000 A 
ATOM     16  C   UNL     1      46.339   5.149  12.709  0.00  0.00    +0.000 A 
ATOM     17  C   UNL     1      46.852   6.429  12.936  0.00  0.00    +0.000 A 
ATOM     18  C   UNL     1      46.143   7.550  12.511  0.00  0.00    +0.000 A 
ATOM     19  C   UNL     1      44.913   7.397  11.877  0.00  0.00    +0.000 A 
ATOM     20  C   UNL     1      44.399   6.119  11.649  0.00  0.00    +0.000 A 
ENDBRANCH  14  15
ENDBRANCH  12  14
ENDBRANCH   1  12
TORSDOF 4
ENDMDL
MODEL 3
REMARK VINA RESULT:    -6.427      3.720      6.281
REMARK INTER + INTRA:          -8.563
REMARK INTER:                  -7.954
REMARK INTRA:                  -0.608
REMARK UNBOUND:                -0.632
REMARK  Name = 
REMARK  5 active torsions:
REMARK  status: ('A' for Active; 'I' for Inactive)
REMARK    1  A    between atoms: C_1  and  C_2
REMARK    2  A    between atoms: C_2  and  O_3
REMARK    3  A    between atoms: C_2  and  C_13
REMARK    4  A    between atoms: O_3  and  C_4
REMARK    5  A    between atoms: C_7  and  C_8
REMARK                            x       y       z     vdW  Elec       q    Type
REMARK                         _______ _______ _______ _____ _____    ______ ____
ROOT
ATOM      1  C   UNL     1      46.031   4.859  12.891  0.00  0.00    +0.000 A 
ATOM      2  C   UNL     1      46.229   6.208  12.595  0.00  0.00    +0.000 A 
ATOM      3  C   UNL     1      47.158   6.949  13.322  0.00  0.00    +0.000 A 
ATOM      4  C   UNL     1      47.847   6.310  14.344  0.00  0.00    +0.000 A 
ATOM      5  N   UNL     1      47.654   5.006  14.690  0.00  0.00    +0.000 NA
ATOM      6  C   UNL     1      46.743   4.322  13.959  0.00  0.00    +0.000 A 
ENDROOT
BRANCH   4   7
ATOM      7  C   UNL     1      48.875   7.062  15.130  0.00  0.00    +0.000 C 
ATOM      8  N   UNL     1      48.405   8.138  15.831  0.00  0.00    +0.000 N 
ATOM      9  O   UNL     1      50.058   6.742  15.153  0.00  0.00    +0.000 OA
ATOM     10  H   UNL     1      47.419   8.375  15.783  0.00  0.00    +0.000 HD
ATOM     11  H   UNL     1      49.042   8.695  16.381  0.00  0.00    +0.000 HD
ENDBRANCH   4   7
BRANCH   1  12
ATOM     12  O   UNL     1      45.137   4.203  12.099  0.00  0.00    +0.000 OA
BRANCH  12  14
ATOM     13  C   UNL     1      43.156   4.959  10.874  0.00  0.00    +0.000 C 
ATOM     14  C   UNL     1      44.684   4.858  10.901  0.00  0.00    +0.000 C 
BRANCH  14  15
ATOM     15  C   UNL     1      45.182   4.028   9.729  0.00  0.00    +0.000 A 
ATOM     16  C   UNL     1      45.790   4.649   8.625  0.00  0.00    +0.000 A 
ATOM     17  C   UNL     1      46.286   3.887   7.565  0.00  0.00    +0.000 A 
ATOM     18  C   UNL     1      46.175   2.499   7.592  0.00  0.00    +0.000 A 
ATOM     19  C   UNL     1      45.552   1.871   8.666  0.00  0.00    +0.000 A 
ATOM     20  C   UNL     1      45.056   2.630   9.727  0.00  0.00    +0.000 A 
ENDBRANCH  14  15
ENDBRANCH  12  14
ENDBRANCH   1  12
TORSDOF 4
ENDMDL
MODEL 4
REMARK VINA RESULT:    -6.394      3.486      6.357
REMARK INTER + INTRA:          -8.522
REMARK INTER:                  -7.985
REMARK INTRA:                  -0.536
REMARK UNBOUND:                -0.632
REMARK  Name = 
REMARK  5 active torsions:
REMARK  status: ('A' for Active; 'I' for Inactive)
REMARK    1  A    between atoms: C_1  and  C_2
REMARK    2  A    between atoms: C_2  and  O_3
REMARK    3  A    between atoms: C_2  and  C_13
REMARK    4  A    between atoms: O_3  and  C_4
REMARK    5  A    between atoms: C_7  and  C_8
REMARK                            x       y       z     vdW  Elec       q    Type
REMARK                         _______ _______ _______ _____ _____    ______ ____
ROOT
ATOM      1  C   UNL     1      45.274   5.828  11.592  0.00  0.00    +0.000 A 
ATOM      2  C   UNL     1      46.491   6.359  12.019  0.00  0.00    +0.000 A 
ATOM      3  C   UNL     1      46.616   7.731  12.222  0.00  0.00    +0.000 A 
ATOM      4  C   UNL     1      45.511   8.533  11.966  0.00  0.00    +0.000 A 
ATOM      5  N   UNL     1      44.318   8.057  11.510  0.00  0.00    +0.000 NA
ATOM      6  C   UNL     1      44.239   6.718  11.327  0.00  0.00    +0.000 A 
ENDROOT
BRANCH   4   7
ATOM      7  C   UNL     1      45.594  10.009  12.200  0.00  0.00    +0.000 C 
ATOM      8  N   UNL     1      46.832  10.480  12.538  0.00  0.00    +0.000 N 
ATOM      9  O   UNL     1      44.625  10.752  12.095  0.00  0.00    +0.000 OA
ATOM     10  H   UNL     1      47.609   9.833  12.620  0.00  0.00    +0.000 HD
ATOM     11  H   UNL     1      46.962  11.465  12.714  0.00  0.00    +0.000 HD
ENDBRANCH   4   7
BRANCH   1  12
ATOM     12  O   UNL     1      45.232   4.472  11.465  0.00  0.00    +0.000 OA
BRANCH  12  14
ATOM     13  C   UNL     1      43.511   2.755  11.166  0.00  0.00    +0.000 C 
ATOM     14  C   UNL     1      44.295   3.907  10.530  0.00  0.00    +0.000 C 
BRANCH  14  15
ATOM     15  C   UNL     1      45.102   3.408   9.343  0.00  0.00    +0.000 A 
ATOM     16  C   UNL     1      45.617   4.315   8.402  0.00  0.00    +0.000 A 
ATOM     17  C   UNL     1      46.395   3.865   7.333  0.00  0.00    +0.000 A 
ATOM     18  C   UNL     1      46.662   2.505   7.187  0.00  0.00    +0.000 A 
ATOM     19  C   UNL     1      46.137   1.592   8.097  0.00  0.00    +0.000 A 
ATOM     20  C   UNL     1      45.360   2.039   9.167  0.00  0.00    +0.000 A 
ENDBRANCH  14  15
ENDBRANCH  12  14
ENDBRANCH   1  12
TORSDOF 4
ENDMDL
MODEL 5
REMARK VINA RESULT:    -6.336      3.108      5.843
REMARK INTER + INTRA:          -8.450
REMARK INTER:                  -9.176
REMARK INTRA:                   0.726
REMARK UNBOUND:                -0.632
REMARK  Name = 
REMARK  5 active torsions:
REMARK  status: ('A' for Active; 'I' for Inactive)
REMARK    1  A    between atoms: C_1  and  C_2
REMARK    2  A    between atoms: C_2  and  O_3
REMARK    3  A    between atoms: C_2  and  C_13
REMARK    4  A    between atoms: O_3  and  C_4
REMARK    5  A    between atoms: C_7  and  C_8
REMARK                            x       y       z     vdW  Elec       q    Type
REMARK                         _______ _______ _______ _____ _____    ______ ____
ROOT
ATOM      1  C   UNL     1      45.338   5.202  11.783  0.00  0.00    +0.000 A 
ATOM      2  C   UNL     1      46.521   5.902  12.017  0.00  0.00    +0.000 A 
ATOM      3  C   UNL     1      47.243   5.674  13.185  0.00  0.00    +0.000 A 
ATOM      4  C   UNL     1      46.737   4.758  14.098  0.00  0.00    +0.000 A 
ATOM      5  N   UNL     1      45.566   4.083  13.925  0.00  0.00    +0.000 NA
ATOM      6  C   UNL     1      44.895   4.333  12.776  0.00  0.00    +0.000 A 
ENDROOT
BRANCH   4   7
ATOM      7  C   UNL     1      47.497   4.462  15.353  0.00  0.00    +0.000 C 
ATOM      8  N   UNL     1      47.719   5.535  16.170  0.00  0.00    +0.000 N 
ATOM      9  O   UNL     1      47.895   3.338  15.638  0.00  0.00    +0.000 OA
ATOM     10  H   UNL     1      47.378   6.451  15.898  0.00  0.00    +0.000 HD
ATOM     11  H   UNL     1      48.228   5.411  17.033  0.00  0.00    +0.000 HD
ENDBRANCH   4   7
BRANCH   1  12
ATOM     12  O   UNL     1      44.723   5.455  10.594  0.00  0.00    +0.000 OA
BRANCH  12  14
ATOM     13  C   UNL     1      43.413   3.426  10.995  0.00  0.00    +0.000 C 
ATOM     14  C   UNL     1      44.007   4.382   9.957  0.00  0.00    +0.000 C 
BRANCH  14  15
ATOM     15  C   UNL     1      45.002   3.652   9.070  0.00  0.00    +0.000 A 
ATOM     16  C   UNL     1      45.143   2.257   9.159  0.00  0.00    +0.000 A 
ATOM     17  C   UNL     1      46.026   1.577   8.317  0.00  0.00    +0.000 A 
ATOM     18  C   UNL     1      46.783   2.282   7.383  0.00  0.00    +0.000 A 
ATOM     19  C   UNL     1      46.673   3.667   7.301  0.00  0.00    +0.000 A 
ATOM     20  C   UNL     1      45.790   4.349   8.141  0.00  0.00    +0.000 A 
ENDBRANCH  14  15
ENDBRANCH  12  14
ENDBRANCH   1  12
TORSDOF 4
ENDMDL
MODEL 6
REMARK VINA RESULT:    -5.742      3.702      6.443
REMARK INTER + INTRA:          -7.716
REMARK INTER:                  -7.171
REMARK INTRA:                  -0.545
REMARK UNBOUND:                -0.632
REMARK  Name = 
REMARK  5 active torsions:
REMARK  status: ('A' for Active; 'I' for Inactive)
REMARK    1  A    between atoms: C_1  and  C_2
REMARK    2  A    between atoms: C_2  and  O_3
REMARK    3  A    between atoms: C_2  and  C_13
REMARK    4  A    between atoms: O_3  and  C_4
REMARK    5  A    between atoms: C_7  and  C_8
REMARK                            x       y       z     vdW  Elec       q    Type
REMARK                         _______ _______ _______ _____ _____    ______ ____
ROOT
ATOM      1  C   UNL     1      45.971   4.939  12.978  0.00  0.00    +0.000 A 
ATOM      2  C   UNL     1      46.456   4.216  14.068  0.00  0.00    +0.000 A 
ATOM      3  C   UNL     1      47.426   4.776  14.896  0.00  0.00    +0.000 A 
ATOM      4  C   UNL     1      47.894   6.046  14.588  0.00  0.00    +0.000 A 
ATOM      5  N   UNL     1      47.475   6.768  13.511  0.00  0.00    +0.000 NA
ATOM      6  C   UNL     1      46.532   6.188  12.732  0.00  0.00    +0.000 A 
ENDROOT
BRANCH   4   7
ATOM      7  C   UNL     1      48.915   6.696  15.469  0.00  0.00    +0.000 C 
ATOM      8  N   UNL     1      49.922   7.349  14.815  0.00  0.00    +0.000 N 
ATOM      9  O   UNL     1      48.859   6.653  16.692  0.00  0.00    +0.000 OA
ATOM     10  H   UNL     1      49.938   7.358  13.800  0.00  0.00    +0.000 HD
ATOM     11  H   UNL     1      50.648   7.808  15.345  0.00  0.00    +0.000 HD
ENDBRANCH   4   7
BRANCH   1  12
ATOM     12  O   UNL     1      44.992   4.331  12.252  0.00  0.00    +0.000 OA
BRANCH  12  14
ATOM     13  C   UNL     1      43.010   5.062  11.015  0.00  0.00    +0.000 C 
ATOM     14  C   UNL     1      44.538   4.978  11.049  0.00  0.00    +0.000 C 
BRANCH  14  15
ATOM     15  C   UNL     1      45.051   4.150   9.882  0.00  0.00    +0.000 A 
ATOM     16  C   UNL     1      44.866   2.758   9.862  0.00  0.00    +0.000 A 
ATOM     17  C   UNL     1      45.299   1.999   8.772  0.00  0.00    +0.000 A 
ATOM     18  C   UNL     1      45.927   2.620   7.695  0.00  0.00    +0.000 A 
ATOM     19  C   UNL     1      46.141   3.995   7.712  0.00  0.00    +0.000 A 
ATOM     20  C   UNL     1      45.709   4.756   8.799  0.00  0.00    +0.000 A 
ENDBRANCH  14  15
ENDBRANCH  12  14
ENDBRANCH   1  12
TORSDOF 4
ENDMDL
MODEL 7
REMARK VINA RESULT:    -5.648      3.778      6.007
REMARK INTER + INTRA:          -7.601
REMARK INTER:                  -7.235
REMARK INTRA:                  -0.366
REMARK UNBOUND:                -0.632
REMARK  Name = 
REMARK  5 active torsions:
REMARK  status: ('A' for Active; 'I' for Inactive)
REMARK    1  A    between atoms: C_1  and  C_2
REMARK    2  A    between atoms: C_2  and  O_3
REMARK    3  A    between atoms: C_2  and  C_13
REMARK    4  A    between atoms: O_3  and  C_4
REMARK    5  A    between atoms: C_7  and  C_8
REMARK                            x       y       z     vdW  Elec       q    Type
REMARK                         _______ _______ _______ _____ _____    ______ ____
ROOT
ATOM      1  C   UNL     1      46.989   5.083  13.439  0.00  0.00    +0.000 A 
ATOM      2  C   UNL     1      46.214   6.100  12.883  0.00  0.00    +0.000 A 
ATOM      3  C   UNL     1      44.979   5.799  12.315  0.00  0.00    +0.000 A 
ATOM      4  C   UNL     1      44.569   4.472  12.306  0.00  0.00    +0.000 A 
ATOM      5  N   UNL     1      45.314   3.445  12.804  0.00  0.00    +0.000 NA
ATOM      6  C   UNL     1      46.508   3.781  13.347  0.00  0.00    +0.000 A 
ENDROOT
BRANCH   4   7
ATOM      7  C   UNL     1      43.235   4.109  11.732  0.00  0.00    +0.000 C 
ATOM      8  N   UNL     1      42.286   5.091  11.791  0.00  0.00    +0.000 N 
ATOM      9  O   UNL     1      43.001   3.011  11.241  0.00  0.00    +0.000 OA
ATOM     10  H   UNL     1      42.516   5.986  12.210  0.00  0.00    +0.000 HD
ATOM     11  H   UNL     1      41.362   4.916  11.426  0.00  0.00    +0.000 HD
ENDBRANCH   4   7
BRANCH   1  12
ATOM     12  O   UNL     1      48.161   5.477  14.012  0.00  0.00    +0.000 OA
BRANCH  12  14
ATOM     13  C   UNL     1      49.201   7.212  15.393  0.00  0.00    +0.000 C 
ATOM     14  C   UNL     1      48.102   6.151  15.283  0.00  0.00    +0.000 C 
BRANCH  14  15
ATOM     15  C   UNL     1      48.279   5.089  16.355  0.00  0.00    +0.000 A 
ATOM     16  C   UNL     1      49.510   4.945  17.017  0.00  0.00    +0.000 A 
ATOM     17  C   UNL     1      49.665   3.998  18.032  0.00  0.00    +0.000 A 
ATOM     18  C   UNL     1      48.596   3.180  18.391  0.00  0.00    +0.000 A 
ATOM     19  C   UNL     1      47.379   3.292  17.727  0.00  0.00    +0.000 A 
ATOM     20  C   UNL     1      47.221   4.238  16.713  0.00  0.00    +0.000 A 
ENDBRANCH  14  15
ENDBRANCH  12  14
ENDBRANCH   1  12
TORSDOF 4
ENDMDL
MODEL 8
REMARK VINA RESULT:    -5.616      3.138      5.211
REMARK INTER + INTRA:          -7.561
REMARK INTER:                  -6.994
REMARK INTRA:                  -0.567
REMARK UNBOUND:                -0.632
REMARK  Name = 
REMARK  5 active torsions:
REMARK  status: ('A' for Active; 'I' for Inactive)
REMARK    1  A    between atoms: C_1  and  C_2
REMARK    2  A    between atoms: C_2  and  O_3
REMARK    3  A    between atoms: C_2  and  C_13
REMARK    4  A    between atoms: O_3  and  C_4
REMARK    5  A    between atoms: C_7  and  C_8
REMARK                            x       y       z     vdW  Elec       q    Type
REMARK                         _______ _______ _______ _____ _____    ______ ____
ROOT
ATOM      1  C   UNL     1      46.297   5.900  12.644  0.00  0.00    +0.000 A 
ATOM      2  C   UNL     1      45.851   5.999  11.327  0.00  0.00    +0.000 A 
ATOM      3  C   UNL     1      45.091   4.971  10.772  0.00  0.00    +0.000 A 
ATOM      4  C   UNL     1      44.822   3.860  11.560  0.00  0.00    +0.000 A 
ATOM      5  N   UNL     1      45.272   3.708  12.837  0.00  0.00    +0.000 NA
ATOM      6  C   UNL     1      46.006   4.730  13.338  0.00  0.00    +0.000 A 
ENDROOT
BRANCH   4   7
ATOM      7  C   UNL     1      43.985   2.746  11.012  0.00  0.00    +0.000 C 
ATOM      8  N   UNL     1      44.484   2.132   9.898  0.00  0.00    +0.000 N 
ATOM      9  O   UNL     1      42.925   2.400  11.522  0.00  0.00    +0.000 OA
ATOM     10  H   UNL     1      45.362   2.450   9.501  0.00  0.00    +0.000 HD
ATOM     11  H   UNL     1      43.971   1.375   9.472  0.00  0.00    +0.000 HD
ENDBRANCH   4   7
BRANCH   1  12
ATOM     12  O   UNL     1      46.992   6.972  13.117  0.00  0.00    +0.000 OA
BRANCH  12  14
ATOM     13  C   UNL     1      48.931   6.915  14.611  0.00  0.00    +0.000 C 
ATOM     14  C   UNL     1      48.428   6.882  13.166  0.00  0.00    +0.000 C 
BRANCH  14  15
ATOM     15  C   UNL     1      48.971   8.069  12.386  0.00  0.00    +0.000 A 
ATOM     16  C   UNL     1      48.141   9.161  12.085  0.00  0.00    +0.000 A 
ATOM     17  C   UNL     1      48.647  10.272  11.405  0.00  0.00    +0.000 A 
ATOM     18  C   UNL     1      49.983  10.301  11.014  0.00  0.00    +0.000 A 
ATOM     19  C   UNL     1      50.812   9.216  11.283  0.00  0.00    +0.000 A 
ATOM     20  C   UNL     1      50.309   8.105  11.962  0.00  0.00    +0.000 A 
ENDBRANCH  14  15
ENDBRANCH  12  14
ENDBRANCH   1  12
TORSDOF 4
ENDMDL
MODEL 9
REMARK VINA RESULT:    -5.380      4.400      6.486
REMARK INTER + INTRA:          -7.270
REMARK INTER:                  -6.687
REMARK INTRA:                  -0.583
REMARK UNBOUND:                -0.632
REMARK  Name = 
REMARK  5 active torsions:
REMARK  status: ('A' for Active; 'I' for Inactive)
REMARK    1  A    between atoms: C_1  and  C_2
REMARK    2  A    between atoms: C_2  and  O_3
REMARK    3  A    between atoms: C_2  and  C_13
REMARK    4  A    between atoms: O_3  and  C_4
REMARK    5  A    between atoms: C_7  and  C_8
REMARK                            x       y       z     vdW  Elec       q    Type
REMARK                         _______ _______ _______ _____ _____    ______ ____
ROOT
ATOM      1  C   UNL     1      47.311   5.136  14.402  0.00  0.00    +0.000 A 
ATOM      2  C   UNL     1      46.730   3.912  14.071  0.00  0.00    +0.000 A 
ATOM      3  C   UNL     1      45.945   3.804  12.926  0.00  0.00    +0.000 A 
ATOM      4  C   UNL     1      45.751   4.943  12.156  0.00  0.00    +0.000 A 
ATOM      5  N   UNL     1      46.268   6.165  12.467  0.00  0.00    +0.000 NA
ATOM      6  C   UNL     1      47.026   6.227  13.588  0.00  0.00    +0.000 A 
ENDROOT
BRANCH   4   7
ATOM      7  C   UNL     1      44.938   4.864  10.902  0.00  0.00    +0.000 C 
ATOM      8  N   UNL     1      44.065   5.898  10.704  0.00  0.00    +0.000 N 
ATOM      9  O   UNL     1      45.042   3.942  10.101  0.00  0.00    +0.000 OA
ATOM     10  H   UNL     1      44.004   6.641  11.392  0.00  0.00    +0.000 HD
ATOM     11  H   UNL     1      43.482   5.909   9.881  0.00  0.00    +0.000 HD
ENDBRANCH   4   7
BRANCH   1  12
ATOM     12  O   UNL     1      48.099   5.136  15.513  0.00  0.00    +0.000 OA
BRANCH  12  14
ATOM     13  C   UNL     1      47.129   4.689  17.717  0.00  0.00    +0.000 C 
ATOM     14  C   UNL     1      47.874   4.119  16.506  0.00  0.00    +0.000 C 
BRANCH  14  15
ATOM     15  C   UNL     1      49.240   3.597  16.921  0.00  0.00    +0.000 A 
ATOM     16  C   UNL     1      50.215   4.475  17.419  0.00  0.00    +0.000 A 
ATOM     17  C   UNL     1      51.457   3.994  17.840  0.00  0.00    +0.000 A 
ATOM     18  C   UNL     1      51.741   2.632  17.762  0.00  0.00    +0.000 A 
ATOM     19  C   UNL     1      50.793   1.752  17.246  0.00  0.00    +0.000 A 
ATOM     20  C   UNL     1      49.551   2.231  16.825  0.00  0.00    +0.000 A 
ENDBRANCH  14  15
ENDBRANCH  12  14
ENDBRANCH   1  12
TORSDOF 4
ENDMDL
