MODEL 1
REMARK VINA RESULT:    -7.473      0.000      0.000
REMARK INTER + INTRA:         -11.173
REMARK INTER:                 -10.094
REMARK INTRA:                  -1.078
REMARK UNBOUND:                -1.078
REMARK  Name = 
REMARK  8 active torsions:
REMARK  status: ('A' for Active; 'I' for Inactive)
REMARK    1  A    between atoms: C_1  and  O_2
REMARK    2  A    between atoms: O_2  and  C_3
REMARK    3  A    between atoms: C_5  and  C_6
REMARK    4  A    between atoms: C_11  and  O_12
REMARK    5  A    between atoms: O_12  and  C_13
REMARK    6  A    between atoms: C_13  and  C_14
REMARK    7  A    between atoms: C_18  and  C_19
REMARK    8  A    between atoms: C_23  and  C_24
REMARK                            x       y       z     vdW  Elec       q    Type
REMARK                         _______ _______ _______ _____ _____    ______ ____
ROOT
ATOM      1  O   UNL     1      45.393   7.407  12.827  0.00  0.00    +0.000 OA
ENDROOT
BRANCH   1   7
ATOM      2  C   UNL     1      47.712   6.467  12.849  0.00  0.00    +0.000 A 
ATOM      3  C   UNL     1      49.067   6.759  12.633  0.00  0.00    +0.000 A 
ATOM      4  C   UNL     1      49.486   8.025  12.201  0.00  0.00    +0.000 A 
ATOM      5  C   UNL     1      48.531   9.018  11.980  0.00  0.00    +0.000 A 
ATOM      6  C   UNL     1      47.176   8.740  12.208  0.00  0.00    +0.000 A 
ATOM      7  C   UNL     1      46.754   7.476  12.646  0.00  0.00    +0.000 A 
BRANCH   4   8
ATOM      8  C   UNL     1      50.952   8.217  11.987  0.00  0.00    +0.000 C 
ATOM      9  N   UNL     1      51.568   7.508  10.994  0.00  0.00    +0.000 N 
ATOM     10  O   UNL     1      51.605   8.993  12.675  0.00  0.00    +0.000 OA
ATOM     11  H   UNL     1      51.122   6.848  10.380  0.00  0.00    +0.000 HD
ATOM     12  H   UNL     1      52.563   7.662  10.882  0.00  0.00    +0.000 HD
ENDBRANCH   4   8
BRANCH   2  14
ATOM     13  C   UNL     1      46.876   4.967  14.517  0.00  0.00    +0.000 C 
ATOM     14  O   UNL     1      47.284   5.209  13.178  0.00  0.00    +0.000 OA
ENDBRANCH   2  14
ENDBRANCH   1   7
BRANCH   1  15
ATOM     15  C   UNL     1      44.576   7.290  11.665  0.00  0.00    +0.000 C 
BRANCH  15  16
ATOM     16  C   UNL     1      44.336   5.835  11.342  0.00  0.00    +0.000 A 
ATOM     17  C   UNL     1      43.335   5.118  12.008  0.00  0.00    +0.000 A 
ATOM     18  C   UNL     1      43.077   3.795  11.667  0.00  0.00    +0.000 A 
ATOM     19  C   UNL     1      43.804   3.182  10.645  0.00  0.00    +0.000 A 
ATOM     20  C   UNL     1      44.801   3.875   9.936  0.00  0.00    +0.000 A 
ATOM     21  C   UNL     1      45.060   5.204  10.318  0.00  0.00    +0.000 A 
BRANCH  20  22
ATOM     22  C   UNL     1      45.519   3.252   8.806  0.00  0.00    +0.000 A 
ATOM     23  C   UNL     1      46.034   4.004   7.748  0.00  0.00    +0.000 A 
ATOM     24  N   UNL     1      46.726   3.503   6.694  0.00  0.00    +0.000 NA
ATOM     25  C   UNL     1      46.935   2.171   6.690  0.00  0.00    +0.000 A 
ATOM     26  C   UNL     1      46.483   1.313   7.682  0.00  0.00    +0.000 A 
ATOM     27  C   UNL     1      46.753  -0.156   7.639  0.00  0.00    +0.000 C 
ATOM     28  C   UNL     1      45.761   1.872   8.742  0.00  0.00    +0.000 A 
ENDBRANCH  20  22
ENDBRANCH  15  16
ENDBRANCH   1  15
TORSDOF 6
ENDMDL
MODEL 2
REMARK VINA RESULT:    -7.465      2.479      6.867
REMARK INTER + INTRA:         -11.162
REMARK INTER:                 -10.893
REMARK INTRA:                  -0.269
REMARK UNBOUND:                -1.078
REMARK  Name = 
REMARK  8 active torsions:
REMARK  status: ('A' for Active; 'I' for Inactive)
REMARK    1  A    between atoms: C_1  and  O_2
REMARK    2  A    between atoms: O_2  and  C_3
REMARK    3  A    between atoms: C_5  and  C_6
REMARK    4  A    between atoms: C_11  and  O_12
REMARK    5  A    between atoms: O_12  and  C_13
REMARK    6  A    between atoms: C_13  and  C_14
REMARK    7  A    between atoms: C_18  and  C_19
REMARK    8  A    between atoms: C_23  and  C_24
REMARK                            x       y       z     vdW  Elec       q    Type
REMARK                         _______ _______ _______ _____ _____    ______ ____
ROOT
ATOM      1  O   UNL     1      44.034   4.927  10.327  0.00  0.00    +0.000 OA
ENDROOT
BRANCH   1   7
ATOM      2  C   UNL     1      44.682   2.663   9.482  0.00  0.00    +0.000 A 
ATOM      3  C   UNL     1      45.542   1.965   8.620  0.00  0.00    +0.000 A 
ATOM      4  C   UNL     1      46.460   2.635   7.798  0.00  0.00    +0.000 A 
ATOM      5  C   UNL     1      46.518   4.029   7.839  0.00  0.00    +0.000 A 
ATOM      6  C   UNL     1      45.673   4.733   8.709  0.00  0.00    +0.000 A 
ATOM      7  C   UNL     1      44.758   4.065   9.537  0.00  0.00    +0.000 A 
BRANCH   4   8
ATOM      8  C   UNL     1      47.312   1.792   6.907  0.00  0.00    +0.000 C 
ATOM      9  N   UNL     1      48.366   2.377   6.263  0.00  0.00    +0.000 N 
ATOM     10  O   UNL     1      47.088   0.598   6.747  0.00  0.00    +0.000 OA
ATOM     11  H   UNL     1      48.629   3.346   6.327  0.00  0.00    +0.000 HD
ATOM     12  H   UNL     1      48.918   1.775   5.664  0.00  0.00    +0.000 HD
ENDBRANCH   4   8
BRANCH   2  14
ATOM     13  C   UNL     1      43.520   2.435  11.563  0.00  0.00    +0.000 C 
ATOM     14  O   UNL     1      43.719   2.026  10.217  0.00  0.00    +0.000 OA
ENDBRANCH   2  14
ENDBRANCH   1   7
BRANCH   1  15
ATOM     15  C   UNL     1      44.647   6.161  10.693  0.00  0.00    +0.000 C 
BRANCH  15  16
ATOM     16  C   UNL     1      45.574   5.953  11.866  0.00  0.00    +0.000 A 
ATOM     17  C   UNL     1      45.277   4.996  12.842  0.00  0.00    +0.000 A 
ATOM     18  C   UNL     1      46.163   4.766  13.889  0.00  0.00    +0.000 A 
ATOM     19  C   UNL     1      47.361   5.477  13.960  0.00  0.00    +0.000 A 
ATOM     20  C   UNL     1      47.708   6.430  12.986  0.00  0.00    +0.000 A 
ATOM     21  C   UNL     1      46.783   6.663  11.952  0.00  0.00    +0.000 A 
BRANCH  20  22
ATOM     22  C   UNL     1      49.008   7.130  13.019  0.00  0.00    +0.000 A 
ATOM     23  C   UNL     1      49.661   7.428  14.217  0.00  0.00    +0.000 A 
ATOM     24  N   UNL     1      50.866   8.043  14.321  0.00  0.00    +0.000 NA
ATOM     25  C   UNL     1      51.474   8.374  13.163  0.00  0.00    +0.000 A 
ATOM     26  C   UNL     1      50.937   8.129  11.908  0.00  0.00    +0.000 A 
ATOM     27  C   UNL     1      51.657   8.503  10.654  0.00  0.00    +0.000 C 
ATOM     28  C   UNL     1      49.685   7.507  11.850  0.00  0.00    +0.000 A 
ENDBRANCH  20  22
ENDBRANCH  15  16
ENDBRANCH   1  15
TORSDOF 6
ENDMDL
MODEL 3
REMARK VINA RESULT:    -7.111      2.635      3.831
REMARK INTER + INTRA:         -10.684
REMARK INTER:                  -9.920
REMARK INTRA:                  -0.765
REMARK UNBOUND:                -1.078
REMARK  Name = 
REMARK  8 active torsions:
REMARK  status: ('A' for Active; 'I' for Inactive)
REMARK    1  A    between atoms: C_1  and  O_2
REMARK    2  A    between atoms: O_2  and  C_3
REMARK    3  A    between atoms: C_5  and  C_6
REMARK    4  A    between atoms: C_11  and  O_12
REMARK    5  A    between atoms: O_12  and  C_13
REMARK    6  A    between atoms: C_13  and  C_14
REMARK    7  A    between atoms: C_18  and  C_19
REMARK    8  A    between atoms: C_23  and  C_24
REMARK                            x       y       z     vdW  Elec       q    Type
REMARK                         _______ _______ _______ _____ _____    ______ ____
ROOT
ATOM      1  O   UNL     1      47.455   6.739  12.383  0.00  0.00    +0.000 OA
ENDROOT
BRANCH   1   7
ATOM      2  C   UNL     1      48.501   6.881  14.652  0.00  0.00    +0.000 A 
ATOM      3  C   UNL     1      48.640   6.238  15.891  0.00  0.00    +0.000 A 
ATOM      4  C   UNL     1      47.980   5.032  16.170  0.00  0.00    +0.000 A 
ATOM      5  C   UNL     1      47.166   4.460  15.192  0.00  0.00    +0.000 A 
ATOM      6  C   UNL     1      47.034   5.089  13.945  0.00  0.00    +0.000 A 
ATOM      7  C   UNL     1      47.697   6.292  13.660  0.00  0.00    +0.000 A 
BRANCH   4   8
ATOM      8  C   UNL     1      48.186   4.446  17.528  0.00  0.00    +0.000 C 
ATOM      9  N   UNL     1      47.190   4.573  18.456  0.00  0.00    +0.000 N 
ATOM     10  O   UNL     1      49.219   3.856  17.823  0.00  0.00    +0.000 OA
ATOM     11  H   UNL     1      46.310   5.039  18.312  0.00  0.00    +0.000 HD
ATOM     12  H   UNL     1      47.368   4.167  19.366  0.00  0.00    +0.000 HD
ENDBRANCH   4   8
BRANCH   2  14
ATOM     13  C   UNL     1      48.519   9.241  15.059  0.00  0.00    +0.000 C 
ATOM     14  O   UNL     1      49.063   8.104  14.403  0.00  0.00    +0.000 OA
ENDBRANCH   2  14
ENDBRANCH   1   7
BRANCH   1  15
ATOM     15  C   UNL     1      46.181   7.322  12.117  0.00  0.00    +0.000 C 
BRANCH  15  16
ATOM     16  C   UNL     1      45.265   6.303  11.483  0.00  0.00    +0.000 A 
ATOM     17  C   UNL     1      43.883   6.373  11.684  0.00  0.00    +0.000 A 
ATOM     18  C   UNL     1      43.037   5.468  11.051  0.00  0.00    +0.000 A 
ATOM     19  C   UNL     1      43.564   4.499  10.196  0.00  0.00    +0.000 A 
ATOM     20  C   UNL     1      44.946   4.412   9.948  0.00  0.00    +0.000 A 
ATOM     21  C   UNL     1      45.781   5.322  10.622  0.00  0.00    +0.000 A 
BRANCH  20  22
ATOM     22  C   UNL     1      45.498   3.436   8.988  0.00  0.00    +0.000 A 
ATOM     23  C   UNL     1      45.459   2.059   9.222  0.00  0.00    +0.000 A 
ATOM     24  N   UNL     1      45.921   1.106   8.375  0.00  0.00    +0.000 NA
ATOM     25  C   UNL     1      46.446   1.540   7.211  0.00  0.00    +0.000 A 
ATOM     26  C   UNL     1      46.538   2.877   6.854  0.00  0.00    +0.000 A 
ATOM     27  C   UNL     1      47.117   3.306   5.544  0.00  0.00    +0.000 C 
ATOM     28  C   UNL     1      46.063   3.826   7.766  0.00  0.00    +0.000 A 
ENDBRANCH  20  22
ENDBRANCH  15  16
ENDBRANCH   1  15
TORSDOF 6
ENDMDL
MODEL 4
REMARK VINA RESULT:    -6.856      1.925      2.256
REMARK INTER + INTRA:         -10.340
REMARK INTER:                  -9.392
REMARK INTRA:                  -0.947
REMARK UNBOUND:                -1.078
REMARK  Name = 
REMARK  8 active torsions:
REMARK  status: ('A' for Active; 'I' for Inactive)
REMARK    1  A    between atoms: C_1  and  O_2
REMARK    2  A    between atoms: O_2  and  C_3
REMARK    3  A    between atoms: C_5  and  C_6
REMARK    4  A    between atoms: C_11  and  O_12
REMARK    5  A    between atoms: O_12  and  C_13
REMARK    6  A    between atoms: C_13  and  C_14
REMARK    7  A    between atoms: C_18  and  C_19
REMARK    8  A    between atoms: C_23  and  C_24
REMARK                            x       y       z     vdW  Elec       q    Type
REMARK                         _______ _______ _______ _____ _____    ______ ____
ROOT
ATOM      1  O   UNL     1      47.369   4.969  13.622  0.00  0.00    +0.000 OA
ENDROOT
BRANCH   1   7
ATOM      2  C   UNL     1      48.711   6.688  14.849  0.00  0.00    +0.000 A 
ATOM      3  C   UNL     1      49.127   8.028  14.850  0.00  0.00    +0.000 A 
ATOM      4  C   UNL     1      48.775   8.908  13.817  0.00  0.00    +0.000 A 
ATOM      5  C   UNL     1      47.991   8.439  12.762  0.00  0.00    +0.000 A 
ATOM      6  C   UNL     1      47.558   7.105  12.760  0.00  0.00    +0.000 A 
ATOM      7  C   UNL     1      47.904   6.224  13.796  0.00  0.00    +0.000 A 
BRANCH   4   8
ATOM      8  C   UNL     1      49.290  10.307  13.913  0.00  0.00    +0.000 C 
ATOM      9  N   UNL     1      48.391  11.331  14.009  0.00  0.00    +0.000 N 
ATOM     10  O   UNL     1      50.491  10.550  13.912  0.00  0.00    +0.000 OA
ATOM     11  H   UNL     1      47.390  11.235  14.015  0.00  0.00    +0.000 HD
ATOM     12  H   UNL     1      48.778  12.265  14.067  0.00  0.00    +0.000 HD
ENDBRANCH   4   8
BRANCH   2  14
ATOM     13  C   UNL     1      48.459   5.793  17.055  0.00  0.00    +0.000 C 
ATOM     14  O   UNL     1      49.127   5.798  15.801  0.00  0.00    +0.000 OA
ENDBRANCH   2  14
ENDBRANCH   1   7
BRANCH   1  15
ATOM     15  C   UNL     1      46.020   4.762  14.032  0.00  0.00    +0.000 C 
BRANCH  15  16
ATOM     16  C   UNL     1      45.129   4.594  12.824  0.00  0.00    +0.000 A 
ATOM     17  C   UNL     1      43.806   5.046  12.853  0.00  0.00    +0.000 A 
ATOM     18  C   UNL     1      43.006   4.943  11.719  0.00  0.00    +0.000 A 
ATOM     19  C   UNL     1      43.528   4.406  10.542  0.00  0.00    +0.000 A 
ATOM     20  C   UNL     1      44.861   3.963  10.465  0.00  0.00    +0.000 A 
ATOM     21  C   UNL     1      45.640   4.053  11.634  0.00  0.00    +0.000 A 
BRANCH  20  22
ATOM     22  C   UNL     1      45.437   3.463   9.201  0.00  0.00    +0.000 A 
ATOM     23  C   UNL     1      45.737   4.312   8.134  0.00  0.00    +0.000 A 
ATOM     24  N   UNL     1      46.291   3.927   6.957  0.00  0.00    +0.000 NA
ATOM     25  C   UNL     1      46.579   2.616   6.829  0.00  0.00    +0.000 A 
ATOM     26  C   UNL     1      46.338   1.670   7.813  0.00  0.00    +0.000 A 
ATOM     27  C   UNL     1      46.689   0.229   7.627  0.00  0.00    +0.000 C 
ATOM     28  C   UNL     1      45.751   2.110   9.005  0.00  0.00    +0.000 A 
ENDBRANCH  20  22
ENDBRANCH  15  16
ENDBRANCH   1  15
TORSDOF 6
ENDMDL
MODEL 5
REMARK VINA RESULT:    -6.808      1.998      2.078
REMARK INTER + INTRA:         -10.274
REMARK INTER:                  -9.309
REMARK INTRA:                  -0.964
REMARK UNBOUND:                -1.078
REMARK  Name = 
REMARK  8 active torsions:
REMARK  status: ('A' for Active; 'I' for Inactive)
REMARK    1  A    between atoms: C_1  and  O_2
REMARK    2  A    between atoms: O_2  and  C_3
REMARK    3  A    between atoms: C_5  and  C_6
REMARK    4  A    between atoms: C_11  and  O_12
REMARK    5  A    between atoms: O_12  and  C_13
REMARK    6  A    between atoms: C_13  and  C_14
REMARK    7  A    between atoms: C_18  and  C_19
REMARK    8  A    between atoms: C_23  and  C_24
REMARK                            x       y       z     vdW  Elec       q    Type
REMARK                         _______ _______ _______ _____ _____    ______ ____
ROOT
ATOM      1  O   UNL     1      46.390   7.510  11.662  0.00  0.00    +0.000 OA
ENDROOT
BRANCH   1   7
ATOM      2  C   UNL     1      47.594   6.404  13.558  0.00  0.00    +0.000 A 
ATOM      3  C   UNL     1      48.328   6.627  14.733  0.00  0.00    +0.000 A 
ATOM      4  C   UNL     1      48.639   7.922  15.170  0.00  0.00    +0.000 A 
ATOM      5  C   UNL     1      48.207   9.015  14.419  0.00  0.00    +0.000 A 
ATOM      6  C   UNL     1      47.460   8.803  13.252  0.00  0.00    +0.000 A 
ATOM      7  C   UNL     1      47.142   7.508  12.814  0.00  0.00    +0.000 A 
BRANCH   4   8
ATOM      8  C   UNL     1      49.442   8.039  16.425  0.00  0.00    +0.000 C 
ATOM      9  N   UNL     1      49.262   7.106  17.407  0.00  0.00    +0.000 N 
ATOM     10  O   UNL     1      50.252   8.944  16.586  0.00  0.00    +0.000 OA
ATOM     11  H   UNL     1      48.622   6.331  17.371  0.00  0.00    +0.000 HD
ATOM     12  H   UNL     1      49.820   7.221  18.244  0.00  0.00    +0.000 HD
ENDBRANCH   4   8
BRANCH   2  14
ATOM     13  C   UNL     1      46.850   4.164  13.960  0.00  0.00    +0.000 C 
ATOM     14  O   UNL     1      47.367   5.145  13.071  0.00  0.00    +0.000 OA
ENDBRANCH   2  14
ENDBRANCH   1   7
BRANCH   1  15
ATOM     15  C   UNL     1      44.982   7.336  11.792  0.00  0.00    +0.000 C 
BRANCH  15  16
ATOM     16  C   UNL     1      44.591   5.936  11.382  0.00  0.00    +0.000 A 
ATOM     17  C   UNL     1      43.500   5.301  11.985  0.00  0.00    +0.000 A 
ATOM     18  C   UNL     1      43.107   4.035  11.564  0.00  0.00    +0.000 A 
ATOM     19  C   UNL     1      43.789   3.400  10.525  0.00  0.00    +0.000 A 
ATOM     20  C   UNL     1      44.875   4.015   9.877  0.00  0.00    +0.000 A 
ATOM     21  C   UNL     1      45.269   5.285  10.340  0.00  0.00    +0.000 A 
BRANCH  20  22
ATOM     22  C   UNL     1      45.551   3.378   8.729  0.00  0.00    +0.000 A 
ATOM     23  C   UNL     1      46.010   4.115   7.635  0.00  0.00    +0.000 A 
ATOM     24  N   UNL     1      46.661   3.601   6.561  0.00  0.00    +0.000 NA
ATOM     25  C   UNL     1      46.885   2.272   6.574  0.00  0.00    +0.000 A 
ATOM     26  C   UNL     1      46.487   1.429   7.601  0.00  0.00    +0.000 A 
ATOM     27  C   UNL     1      46.773  -0.038   7.575  0.00  0.00    +0.000 C 
ATOM     28  C   UNL     1      45.805   2.000   8.681  0.00  0.00    +0.000 A 
ENDBRANCH  20  22
ENDBRANCH  15  16
ENDBRANCH   1  15
TORSDOF 6
ENDMDL
MODEL 6
REMARK VINA RESULT:    -6.747      3.755      5.221
REMARK INTER + INTRA:         -10.191
REMARK INTER:                  -9.263
REMARK INTRA:                  -0.928
REMARK UNBOUND:                -1.078
REMARK  Name = 
REMARK  8 active torsions:
REMARK  status: ('A' for Active; 'I' for Inactive)
REMARK    1  A    between atoms: C_1  and  O_2
REMARK    2  A    between atoms: O_2  and  C_3
REMARK    3  A    between atoms: C_5  and  C_6
REMARK    4  A    between atoms: C_11  and  O_12
REMARK    5  A    between atoms: O_12  and  C_13
REMARK    6  A    between atoms: C_13  and  C_14
REMARK    7  A    between atoms: C_18  and  C_19
REMARK    8  A    between atoms: C_23  and  C_24
REMARK                            x       y       z     vdW  Elec       q    Type
REMARK                         _______ _______ _______ _____ _____    ______ ____
ROOT
ATOM      1  O   UNL     1      48.905   6.290  14.497  0.00  0.00    +0.000 OA
ENDROOT
BRANCH   1   7
ATOM      2  C   UNL     1      48.274   5.156  16.636  0.00  0.00    +0.000 A 
ATOM      3  C   UNL     1      48.014   5.351  18.001  0.00  0.00    +0.000 A 
ATOM      4  C   UNL     1      48.129   6.614  18.598  0.00  0.00    +0.000 A 
ATOM      5  C   UNL     1      48.511   7.704  17.815  0.00  0.00    +0.000 A 
ATOM      6  C   UNL     1      48.758   7.522  16.446  0.00  0.00    +0.000 A 
ATOM      7  C   UNL     1      48.638   6.259  15.845  0.00  0.00    +0.000 A 
BRANCH   4   8
ATOM      8  C   UNL     1      47.845   6.701  20.062  0.00  0.00    +0.000 C 
ATOM      9  N   UNL     1      47.124   5.700  20.651  0.00  0.00    +0.000 N 
ATOM     10  O   UNL     1      48.246   7.640  20.739  0.00  0.00    +0.000 OA
ATOM     11  H   UNL     1      46.751   4.892  20.182  0.00  0.00    +0.000 HD
ATOM     12  H   UNL     1      46.948   5.796  21.643  0.00  0.00    +0.000 HD
ENDBRANCH   4   8
BRANCH   2  14
ATOM     13  C   UNL     1      48.145   2.782  16.917  0.00  0.00    +0.000 C 
ATOM     14  O   UNL     1      48.258   3.913  16.065  0.00  0.00    +0.000 OA
ENDBRANCH   2  14
ENDBRANCH   1   7
BRANCH   1  15
ATOM     15  C   UNL     1      48.685   7.518  13.807  0.00  0.00    +0.000 C 
BRANCH  15  16
ATOM     16  C   UNL     1      47.334   7.500  13.131  0.00  0.00    +0.000 A 
ATOM     17  C   UNL     1      46.543   8.653  13.102  0.00  0.00    +0.000 A 
ATOM     18  C   UNL     1      45.326   8.650  12.428  0.00  0.00    +0.000 A 
ATOM     19  C   UNL     1      44.898   7.500  11.763  0.00  0.00    +0.000 A 
ATOM     20  C   UNL     1      45.677   6.328  11.748  0.00  0.00    +0.000 A 
ATOM     21  C   UNL     1      46.891   6.350  12.459  0.00  0.00    +0.000 A 
BRANCH  20  22
ATOM     22  C   UNL     1      45.262   5.135  10.984  0.00  0.00    +0.000 A 
ATOM     23  C   UNL     1      44.441   4.148  11.534  0.00  0.00    +0.000 A 
ATOM     24  N   UNL     1      43.999   3.043  10.883  0.00  0.00    +0.000 NA
ATOM     25  C   UNL     1      44.384   2.909   9.598  0.00  0.00    +0.000 A 
ATOM     26  C   UNL     1      45.191   3.819   8.931  0.00  0.00    +0.000 A 
ATOM     27  C   UNL     1      45.578   3.631   7.500  0.00  0.00    +0.000 C 
ATOM     28  C   UNL     1      45.635   4.936   9.647  0.00  0.00    +0.000 A 
ENDBRANCH  20  22
ENDBRANCH  15  16
ENDBRANCH   1  15
TORSDOF 6
ENDMDL
MODEL 7
REMARK VINA RESULT:    -6.480      2.680      3.274
REMARK INTER + INTRA:          -9.832
REMARK INTER:                  -9.088
REMARK INTRA:                  -0.744
REMARK UNBOUND:                -1.078
REMARK  Name = 
REMARK  8 active torsions:
REMARK  status: ('A' for Active; 'I' for Inactive)
REMARK    1  A    between atoms: C_1  and  O_2
REMARK    2  A    between atoms: O_2  and  C_3
REMARK    3  A    between atoms: C_5  and  C_6
REMARK    4  A    between atoms: C_11  and  O_12
REMARK    5  A    between atoms: O_12  and  C_13
REMARK    6  A    between atoms: C_13  and  C_14
REMARK    7  A    between atoms: C_18  and  C_19
REMARK    8  A    between atoms: C_23  and  C_24
REMARK                            x       y       z     vdW  Elec       q    Type
REMARK                         _______ _______ _______ _____ _____    ______ ____
ROOT
ATOM      1  O   UNL     1      46.666   4.335  13.887  0.00  0.00    +0.000 OA
ENDROOT
BRANCH   1   7
ATOM      2  C   UNL     1      47.759   4.576  16.125  0.00  0.00    +0.000 A 
ATOM      3  C   UNL     1      48.548   5.412  16.930  0.00  0.00    +0.000 A 
ATOM      4  C   UNL     1      49.043   6.634  16.454  0.00  0.00    +0.000 A 
ATOM      5  C   UNL     1      48.743   7.028  15.150  0.00  0.00    +0.000 A 
ATOM      6  C   UNL     1      47.942   6.206  14.344  0.00  0.00    +0.000 A 
ATOM      7  C   UNL     1      47.441   4.985  14.819  0.00  0.00    +0.000 A 
BRANCH   4   8
ATOM      8  C   UNL     1      49.888   7.434  17.392  0.00  0.00    +0.000 C 
ATOM      9  N   UNL     1      49.273   8.141  18.387  0.00  0.00    +0.000 N 
ATOM     10  O   UNL     1      51.108   7.465  17.288  0.00  0.00    +0.000 OA
ATOM     11  H   UNL     1      48.282   8.182  18.551  0.00  0.00    +0.000 HD
ATOM     12  H   UNL     1      49.878   8.675  18.999  0.00  0.00    +0.000 HD
ENDBRANCH   4   8
BRANCH   2  14
ATOM     13  C   UNL     1      47.581   2.979  17.901  0.00  0.00    +0.000 C 
ATOM     14  O   UNL     1      47.351   3.339  16.546  0.00  0.00    +0.000 OA
ENDBRANCH   2  14
ENDBRANCH   1   7
BRANCH   1  15
ATOM     15  C   UNL     1      45.250   4.410  14.036  0.00  0.00    +0.000 C 
BRANCH  15  16
ATOM     16  C   UNL     1      44.588   4.484  12.681  0.00  0.00    +0.000 A 
ATOM     17  C   UNL     1      43.382   5.173  12.519  0.00  0.00    +0.000 A 
ATOM     18  C   UNL     1      42.805   5.290  11.259  0.00  0.00    +0.000 A 
ATOM     19  C   UNL     1      43.439   4.735  10.146  0.00  0.00    +0.000 A 
ATOM     20  C   UNL     1      44.666   4.056  10.263  0.00  0.00    +0.000 A 
ATOM     21  C   UNL     1      45.214   3.930  11.553  0.00  0.00    +0.000 A 
BRANCH  20  22
ATOM     22  C   UNL     1      45.375   3.533   9.078  0.00  0.00    +0.000 A 
ATOM     23  C   UNL     1      45.827   4.369   8.054  0.00  0.00    +0.000 A 
ATOM     24  N   UNL     1      46.506   3.962   6.953  0.00  0.00    +0.000 NA
ATOM     25  C   UNL     1      46.769   2.643   6.862  0.00  0.00    +0.000 A 
ATOM     26  C   UNL     1      46.383   1.709   7.812  0.00  0.00    +0.000 A 
ATOM     27  C   UNL     1      46.712   0.257   7.671  0.00  0.00    +0.000 C 
ATOM     28  C   UNL     1      45.670   2.171   8.923  0.00  0.00    +0.000 A 
ENDBRANCH  20  22
ENDBRANCH  15  16
ENDBRANCH   1  15
TORSDOF 6
ENDMDL
MODEL 8
REMARK VINA RESULT:    -6.427      3.558      5.207
REMARK INTER + INTRA:          -9.760
REMARK INTER:                  -8.999
REMARK INTRA:                  -0.761
REMARK UNBOUND:                -1.078
REMARK  Name = 
REMARK  8 active torsions:
REMARK  status: ('A' for Active; 'I' for Inactive)
REMARK    1  A    between atoms: C_1  and  O_2
REMARK    2  A    between atoms: O_2  and  C_3
REMARK    3  A    between atoms: C_5  and  C_6
REMARK    4  A    between atoms: C_11  and  O_12
REMARK    5  A    between atoms: O_12  and  C_13
REMARK    6  A    between atoms: C_13  and  C_14
REMARK    7  A    between atoms: C_18  and  C_19
REMARK    8  A    between atoms: C_23  and  C_24
REMARK                            x       y       z     vdW  Elec       q    Type
REMARK                         _______ _______ _______ _____ _____    ______ ____
ROOT
ATOM      1  O   UNL     1      48.522   6.347  14.118  0.00  0.00    +0.000 OA
ENDROOT
BRANCH   1   7
ATOM      2  C   UNL     1      49.777   6.367  16.282  0.00  0.00    +0.000 A 
ATOM      3  C   UNL     1      49.838   5.826  17.575  0.00  0.00    +0.000 A 
ATOM      4  C   UNL     1      48.880   4.910  18.034  0.00  0.00    +0.000 A 
ATOM      5  C   UNL     1      47.843   4.528  17.183  0.00  0.00    +0.000 A 
ATOM      6  C   UNL     1      47.783   5.052  15.883  0.00  0.00    +0.000 A 
ATOM      7  C   UNL     1      48.743   5.964  15.420  0.00  0.00    +0.000 A 
BRANCH   4   8
ATOM      8  C   UNL     1      49.033   4.414  19.434  0.00  0.00    +0.000 C 
ATOM      9  N   UNL     1      48.281   3.346  19.838  0.00  0.00    +0.000 N 
ATOM     10  O   UNL     1      49.815   4.938  20.219  0.00  0.00    +0.000 OA
ATOM     11  H   UNL     1      47.612   2.852  19.272  0.00  0.00    +0.000 HD
ATOM     12  H   UNL     1      48.409   3.042  20.795  0.00  0.00    +0.000 HD
ENDBRANCH   4   8
BRANCH   2  14
ATOM     13  C   UNL     1      52.043   7.070  15.960  0.00  0.00    +0.000 C 
ATOM     14  O   UNL     1      50.650   7.332  15.858  0.00  0.00    +0.000 OA
ENDBRANCH   2  14
ENDBRANCH   1   7
BRANCH   1  15
ATOM     15  C   UNL     1      48.029   7.665  13.890  0.00  0.00    +0.000 C 
BRANCH  15  16
ATOM     16  C   UNL     1      46.799   7.616  13.016  0.00  0.00    +0.000 A 
ATOM     17  C   UNL     1      46.016   8.761  12.831  0.00  0.00    +0.000 A 
ATOM     18  C   UNL     1      44.918   8.728  11.979  0.00  0.00    +0.000 A 
ATOM     19  C   UNL     1      44.603   7.556  11.289  0.00  0.00    +0.000 A 
ATOM     20  C   UNL     1      45.379   6.391  11.429  0.00  0.00    +0.000 A 
ATOM     21  C   UNL     1      46.469   6.444  12.318  0.00  0.00    +0.000 A 
BRANCH  20  22
ATOM     22  C   UNL     1      45.092   5.174  10.645  0.00  0.00    +0.000 A 
ATOM     23  C   UNL     1      44.186   4.205  11.083  0.00  0.00    +0.000 A 
ATOM     24  N   UNL     1      43.855   3.078  10.404  0.00  0.00    +0.000 NA
ATOM     25  C   UNL     1      44.447   2.902   9.205  0.00  0.00    +0.000 A 
ATOM     26  C   UNL     1      45.358   3.791   8.653  0.00  0.00    +0.000 A 
ATOM     27  C   UNL     1      45.977   3.557   7.313  0.00  0.00    +0.000 C 
ATOM     28  C   UNL     1      45.682   4.931   9.396  0.00  0.00    +0.000 A 
ENDBRANCH  20  22
ENDBRANCH  15  16
ENDBRANCH   1  15
TORSDOF 6
ENDMDL
MODEL 9
REMARK VINA RESULT:    -6.405      4.346      6.493
REMARK INTER + INTRA:          -9.730
REMARK INTER:                  -8.779
REMARK INTRA:                  -0.951
REMARK UNBOUND:                -1.078
REMARK  Name = 
REMARK  8 active torsions:
REMARK  status: ('A' for Active; 'I' for Inactive)
REMARK    1  A    between atoms: C_1  and  O_2
REMARK    2  A    between atoms: O_2  and  C_3
REMARK    3  A    between atoms: C_5  and  C_6
REMARK    4  A    between atoms: C_11  and  O_12
REMARK    5  A    between atoms: O_12  and  C_13
REMARK    6  A    between atoms: C_13  and  C_14
REMARK    7  A    between atoms: C_18  and  C_19
REMARK    8  A    between atoms: C_23  and  C_24
REMARK                            x       y       z     vdW  Elec       q    Type
REMARK                         _______ _______ _______ _____ _____    ______ ____
ROOT
ATOM      1  O   UNL     1      49.316   6.748  16.801  0.00  0.00    +0.000 OA
ENDROOT
BRANCH   1   7
ATOM      2  C   UNL     1      49.201   4.317  17.382  0.00  0.00    +0.000 A 
ATOM      3  C   UNL     1      49.957   3.180  17.705  0.00  0.00    +0.000 A 
ATOM      4  C   UNL     1      51.359   3.215  17.738  0.00  0.00    +0.000 A 
ATOM      5  C   UNL     1      52.016   4.410  17.443  0.00  0.00    +0.000 A 
ATOM      6  C   UNL     1      51.267   5.555  17.135  0.00  0.00    +0.000 A 
ATOM      7  C   UNL     1      49.865   5.525  17.106  0.00  0.00    +0.000 A 
BRANCH   4   8
ATOM      8  C   UNL     1      52.061   1.941  18.076  0.00  0.00    +0.000 C 
ATOM      9  N   UNL     1      51.495   0.758  17.690  0.00  0.00    +0.000 N 
ATOM     10  O   UNL     1      53.126   1.937  18.683  0.00  0.00    +0.000 OA
ATOM     11  H   UNL     1      50.627   0.658  17.193  0.00  0.00    +0.000 HD
ATOM     12  H   UNL     1      51.998  -0.084  17.942  0.00  0.00    +0.000 HD
ENDBRANCH   4   8
BRANCH   2  14
ATOM     13  C   UNL     1      47.193   3.012  17.398  0.00  0.00    +0.000 C 
ATOM     14  O   UNL     1      47.839   4.270  17.254  0.00  0.00    +0.000 OA
ENDBRANCH   2  14
ENDBRANCH   1   7
BRANCH   1  15
ATOM     15  C   UNL     1      50.003   7.564  15.855  0.00  0.00    +0.000 C 
BRANCH  15  16
ATOM     16  C   UNL     1      49.242   7.600  14.551  0.00  0.00    +0.000 A 
ATOM     17  C   UNL     1      49.529   8.578  13.592  0.00  0.00    +0.000 A 
ATOM     18  C   UNL     1      48.868   8.573  12.369  0.00  0.00    +0.000 A 
ATOM     19  C   UNL     1      47.929   7.580  12.085  0.00  0.00    +0.000 A 
ATOM     20  C   UNL     1      47.631   6.566  13.013  0.00  0.00    +0.000 A 
ATOM     21  C   UNL     1      48.294   6.609  14.253  0.00  0.00    +0.000 A 
BRANCH  20  22
ATOM     22  C   UNL     1      46.693   5.473  12.687  0.00  0.00    +0.000 A 
ATOM     23  C   UNL     1      46.672   4.273  13.402  0.00  0.00    +0.000 A 
ATOM     24  N   UNL     1      45.823   3.240  13.176  0.00  0.00    +0.000 NA
ATOM     25  C   UNL     1      44.924   3.407  12.184  0.00  0.00    +0.000 A 
ATOM     26  C   UNL     1      44.835   4.549  11.403  0.00  0.00    +0.000 A 
ATOM     27  C   UNL     1      43.811   4.691  10.324  0.00  0.00    +0.000 C 
ATOM     28  C   UNL     1      45.742   5.583  11.662  0.00  0.00    +0.000 A 
ENDBRANCH  20  22
ENDBRANCH  15  16
ENDBRANCH   1  15
TORSDOF 6
ENDMDL
