MODEL 1
REMARK VINA RESULT:    -8.315      0.000      0.000
REMARK INTER + INTRA:         -12.235
REMARK INTER:                 -11.232
REMARK INTRA:                  -1.003
REMARK UNBOUND:                -1.003
REMARK  Name = 
REMARK  6 active torsions:
REMARK  status: ('A' for Active; 'I' for Inactive)
REMARK    1  A    between atoms: C_2  and  C_25
REMARK    2  A    between atoms: N_3  and  C_4
REMARK    3  A    between atoms: C_4  and  C_5
REMARK    4  A    between atoms: C_8  and  C_9
REMARK    5  A    between atoms: C_9  and  N_10
REMARK    6  A    between atoms: C_11  and  C_13
REMARK                            x       y       z     vdW  Elec       q    Type
REMARK                         _______ _______ _______ _____ _____    ______ ____
ROOT
ATOM      1  C   UNL     1      45.006   4.623  12.302  0.00  0.00    +0.000 A 
ATOM      2  C   UNL     1      44.495   5.918  12.248  0.00  0.00    +0.000 A 
ATOM      3  C   UNL     1      45.270   6.972  12.728  0.00  0.00    +0.000 A 
ATOM      4  C   UNL     1      46.529   6.717  13.274  0.00  0.00    +0.000 A 
ATOM      5  C   UNL     1      46.953   5.393  13.296  0.00  0.00    +0.000 A 
ATOM      6  N   UNL     1      46.225   4.349  12.834  0.00  0.00    +0.000 NA
ENDROOT
BRANCH   1   7
ATOM      7  C   UNL     1      44.208   3.471  11.735  0.00  0.00    +0.000 C 
BRANCH   7  10
ATOM      8  O   UNL     1      44.107   4.330   9.060  0.00  0.00    +0.000 OA
ATOM      9  C   UNL     1      44.807   3.364   9.351  0.00  0.00    +0.000 C 
ATOM     10  N   UNL     1      44.861   2.823  10.619  0.00  0.00    +0.000 N 
ATOM     11  H   UNL     1      45.583   2.131  10.796  0.00  0.00    +0.000 HD
BRANCH   9  12
ATOM     12  C   UNL     1      45.667   2.698   8.322  0.00  0.00    +0.000 A 
ATOM     13  C   UNL     1      46.067   3.418   7.200  0.00  0.00    +0.000 A 
ATOM     14  C   UNL     1      46.848   2.774   6.246  0.00  0.00    +0.000 A 
ATOM     15  C   UNL     1      47.200   1.443   6.444  0.00  0.00    +0.000 A 
ATOM     16  C   UNL     1      46.760   0.806   7.595  0.00  0.00    +0.000 A 
ATOM     17  N   UNL     1      46.002   1.398   8.547  0.00  0.00    +0.000 NA
ENDBRANCH   9  12
ENDBRANCH   7  10
ENDBRANCH   1   7
BRANCH   4  18
ATOM     18  C   UNL     1      47.405   7.826  13.777  0.00  0.00    +0.000 C 
BRANCH  18  19
ATOM     19  N   UNL     1      47.903   7.547  15.101  0.00  0.00    +0.000 N 
ATOM     20  C   UNL     1      49.195   7.128  15.300  0.00  0.00    +0.000 C 
ATOM     21  O   UNL     1      49.992   7.024  14.371  0.00  0.00    +0.000 OA
ATOM     22  H   UNL     1      47.217   7.397  15.834  0.00  0.00    +0.000 HD
BRANCH  20  23
ATOM     23  C   UNL     1      49.599   6.867  16.688  0.00  0.00    +0.000 A 
ATOM     24  C   UNL     1      50.610   7.625  17.263  0.00  0.00    +0.000 A 
ATOM     25  S   UNL     1      50.922   7.229  18.893  0.00  0.00    +0.000 S 
ATOM     26  C   UNL     1      49.753   5.992  18.872  0.00  0.00    +0.000 A 
ATOM     27  N   UNL     1      49.528   5.223  19.971  0.00  0.00    +0.000 NA
ATOM     28  C   UNL     1      48.637   4.304  19.805  0.00  0.00    +0.000 A 
ATOM     29  N   UNL     1      47.947   4.085  18.640  0.00  0.00    +0.000 N 
ATOM     30  C   UNL     1      48.119   4.854  17.515  0.00  0.00    +0.000 A 
ATOM     31  O   UNL     1      47.458   4.659  16.501  0.00  0.00    +0.000 OA
ATOM     32  C   UNL     1      49.121   5.897  17.645  0.00  0.00    +0.000 A 
ATOM     33  H   UNL     1      47.257   3.351  18.580  0.00  0.00    +0.000 HD
ENDBRANCH  20  23
ENDBRANCH  18  19
ENDBRANCH   4  18
TORSDOF 6
ENDMDL
MODEL 2
REMARK VINA RESULT:    -8.153      2.222      2.474
REMARK INTER + INTRA:         -12.016
REMARK INTER:                 -11.074
REMARK INTRA:                  -0.942
REMARK UNBOUND:                -1.003
REMARK  Name = 
REMARK  6 active torsions:
REMARK  status: ('A' for Active; 'I' for Inactive)
REMARK    1  A    between atoms: C_2  and  C_25
REMARK    2  A    between atoms: N_3  and  C_4
REMARK    3  A    between atoms: C_4  and  C_5
REMARK    4  A    between atoms: C_8  and  C_9
REMARK    5  A    between atoms: C_9  and  N_10
REMARK    6  A    between atoms: C_11  and  C_13
REMARK                            x       y       z     vdW  Elec       q    Type
REMARK                         _______ _______ _______ _____ _____    ______ ____
ROOT
ATOM      1  C   UNL     1      45.592   4.265  12.717  0.00  0.00    +0.000 A 
ATOM      2  C   UNL     1      46.338   3.643  13.716  0.00  0.00    +0.000 A 
ATOM      3  C   UNL     1      47.202   4.412  14.493  0.00  0.00    +0.000 A 
ATOM      4  C   UNL     1      47.326   5.780  14.248  0.00  0.00    +0.000 A 
ATOM      5  C   UNL     1      46.551   6.313  13.224  0.00  0.00    +0.000 A 
ATOM      6  N   UNL     1      45.700   5.593  12.455  0.00  0.00    +0.000 NA
ENDROOT
BRANCH   1   7
ATOM      7  C   UNL     1      44.606   3.462  11.899  0.00  0.00    +0.000 C 
BRANCH   7  10
ATOM      8  O   UNL     1      44.085   4.182   9.232  0.00  0.00    +0.000 OA
ATOM      9  C   UNL     1      44.933   3.324   9.465  0.00  0.00    +0.000 C 
ATOM     10  N   UNL     1      45.203   2.852  10.731  0.00  0.00    +0.000 N 
ATOM     11  H   UNL     1      46.024   2.263  10.840  0.00  0.00    +0.000 HD
BRANCH   9  12
ATOM     12  C   UNL     1      45.746   2.726   8.358  0.00  0.00    +0.000 A 
ATOM     13  C   UNL     1      46.078   3.509   7.257  0.00  0.00    +0.000 A 
ATOM     14  C   UNL     1      46.816   2.928   6.232  0.00  0.00    +0.000 A 
ATOM     15  C   UNL     1      47.194   1.594   6.340  0.00  0.00    +0.000 A 
ATOM     16  C   UNL     1      46.822   0.891   7.477  0.00  0.00    +0.000 A 
ATOM     17  N   UNL     1      46.108   1.421   8.496  0.00  0.00    +0.000 NA
ENDBRANCH   9  12
ENDBRANCH   7  10
ENDBRANCH   1   7
BRANCH   4  18
ATOM     18  C   UNL     1      48.225   6.648  15.079  0.00  0.00    +0.000 C 
BRANCH  18  19
ATOM     19  N   UNL     1      49.327   5.896  15.626  0.00  0.00    +0.000 N 
ATOM     20  C   UNL     1      49.561   5.862  16.978  0.00  0.00    +0.000 C 
ATOM     21  O   UNL     1      48.816   6.423  17.778  0.00  0.00    +0.000 OA
ATOM     22  H   UNL     1      50.073   5.634  14.989  0.00  0.00    +0.000 HD
BRANCH  20  23
ATOM     23  C   UNL     1      50.713   5.070  17.430  0.00  0.00    +0.000 A 
ATOM     24  C   UNL     1      51.829   5.714  17.947  0.00  0.00    +0.000 A 
ATOM     25  S   UNL     1      53.053   4.648  18.472  0.00  0.00    +0.000 S 
ATOM     26  C   UNL     1      52.158   3.289  17.976  0.00  0.00    +0.000 A 
ATOM     27  N   UNL     1      52.657   2.032  18.120  0.00  0.00    +0.000 NA
ATOM     28  C   UNL     1      51.886   1.098  17.673  0.00  0.00    +0.000 A 
ATOM     29  N   UNL     1      50.658   1.306  17.099  0.00  0.00    +0.000 N 
ATOM     30  C   UNL     1      50.100   2.554  16.961  0.00  0.00    +0.000 A 
ATOM     31  O   UNL     1      48.982   2.704  16.480  0.00  0.00    +0.000 OA
ATOM     32  C   UNL     1      50.933   3.643  17.437  0.00  0.00    +0.000 A 
ATOM     33  H   UNL     1      50.101   0.528  16.776  0.00  0.00    +0.000 HD
ENDBRANCH  20  23
ENDBRANCH  18  19
ENDBRANCH   4  18
TORSDOF 6
ENDMDL
MODEL 3
REMARK VINA RESULT:    -7.692      1.490      1.684
REMARK INTER + INTRA:         -11.394
REMARK INTER:                 -10.352
REMARK INTRA:                  -1.042
REMARK UNBOUND:                -1.003
REMARK  Name = 
REMARK  6 active torsions:
REMARK  status: ('A' for Active; 'I' for Inactive)
REMARK    1  A    between atoms: C_2  and  C_25
REMARK    2  A    between atoms: N_3  and  C_4
REMARK    3  A    between atoms: C_4  and  C_5
REMARK    4  A    between atoms: C_8  and  C_9
REMARK    5  A    between atoms: C_9  and  N_10
REMARK    6  A    between atoms: C_11  and  C_13
REMARK                            x       y       z     vdW  Elec       q    Type
REMARK                         _______ _______ _______ _____ _____    ______ ____
ROOT
ATOM      1  C   UNL     1      45.129   6.386  11.286  0.00  0.00    +0.000 A 
ATOM      2  C   UNL     1      46.367   5.997  11.792  0.00  0.00    +0.000 A 
ATOM      3  C   UNL     1      47.077   6.883  12.600  0.00  0.00    +0.000 A 
ATOM      4  C   UNL     1      46.555   8.149  12.871  0.00  0.00    +0.000 A 
ATOM      5  C   UNL     1      45.317   8.455  12.315  0.00  0.00    +0.000 A 
ATOM      6  N   UNL     1      44.602   7.614  11.530  0.00  0.00    +0.000 NA
ENDROOT
BRANCH   1   7
ATOM      7  C   UNL     1      44.315   5.421  10.454  0.00  0.00    +0.000 C 
BRANCH   7  10
ATOM      8  O   UNL     1      44.713   2.639  10.367  0.00  0.00    +0.000 OA
ATOM      9  C   UNL     1      45.183   3.339   9.474  0.00  0.00    +0.000 C 
ATOM     10  N   UNL     1      45.106   4.715   9.470  0.00  0.00    +0.000 N 
ATOM     11  H   UNL     1      45.382   5.192   8.617  0.00  0.00    +0.000 HD
BRANCH   9  12
ATOM     12  C   UNL     1      45.885   2.723   8.303  0.00  0.00    +0.000 A 
ATOM     13  C   UNL     1      46.135   3.498   7.174  0.00  0.00    +0.000 A 
ATOM     14  C   UNL     1      46.769   2.901   6.090  0.00  0.00    +0.000 A 
ATOM     15  C   UNL     1      47.129   1.560   6.169  0.00  0.00    +0.000 A 
ATOM     16  C   UNL     1      46.845   0.866   7.336  0.00  0.00    +0.000 A 
ATOM     17  N   UNL     1      46.233   1.411   8.413  0.00  0.00    +0.000 NA
ENDBRANCH   9  12
ENDBRANCH   7  10
ENDBRANCH   1   7
BRANCH   4  18
ATOM     18  C   UNL     1      47.274   9.122  13.758  0.00  0.00    +0.000 C 
BRANCH  18  19
ATOM     19  N   UNL     1      47.517   8.565  15.066  0.00  0.00    +0.000 N 
ATOM     20  C   UNL     1      48.767   8.595  15.629  0.00  0.00    +0.000 C 
ATOM     21  O   UNL     1      49.716   9.140  15.070  0.00  0.00    +0.000 OA
ATOM     22  H   UNL     1      46.826   7.915  15.430  0.00  0.00    +0.000 HD
BRANCH  20  23
ATOM     23  C   UNL     1      48.907   7.996  16.963  0.00  0.00    +0.000 A 
ATOM     24  C   UNL     1      49.262   8.795  18.042  0.00  0.00    +0.000 A 
ATOM     25  S   UNL     1      49.330   7.955  19.525  0.00  0.00    +0.000 S 
ATOM     26  C   UNL     1      48.940   6.481  18.769  0.00  0.00    +0.000 A 
ATOM     27  N   UNL     1      48.859   5.328  19.486  0.00  0.00    +0.000 NA
ATOM     28  C   UNL     1      48.586   4.280  18.782  0.00  0.00    +0.000 A 
ATOM     29  N   UNL     1      48.383   4.282  17.426  0.00  0.00    +0.000 N 
ATOM     30  C   UNL     1      48.426   5.426  16.665  0.00  0.00    +0.000 A 
ATOM     31  O   UNL     1      48.200   5.400  15.461  0.00  0.00    +0.000 OA
ATOM     32  C   UNL     1      48.741   6.632  17.408  0.00  0.00    +0.000 A 
ATOM     33  H   UNL     1      48.166   3.426  16.935  0.00  0.00    +0.000 HD
ENDBRANCH  20  23
ENDBRANCH  18  19
ENDBRANCH   4  18
TORSDOF 6
ENDMDL
MODEL 4
REMARK VINA RESULT:    -7.296      3.083      8.849
REMARK INTER + INTRA:         -10.859
REMARK INTER:                  -9.940
REMARK INTRA:                  -0.919
REMARK UNBOUND:                -1.003
REMARK  Name = 
REMARK  6 active torsions:
REMARK  status: ('A' for Active; 'I' for Inactive)
REMARK    1  A    between atoms: C_2  and  C_25
REMARK    2  A    between atoms: N_3  and  C_4
REMARK    3  A    between atoms: C_4  and  C_5
REMARK    4  A    between atoms: C_8  and  C_9
REMARK    5  A    between atoms: C_9  and  N_10
REMARK    6  A    between atoms: C_11  and  C_13
REMARK                            x       y       z     vdW  Elec       q    Type
REMARK                         _______ _______ _______ _____ _____    ______ ____
ROOT
ATOM      1  C   UNL     1      49.356   7.828  15.653  0.00  0.00    +0.000 A 
ATOM      2  C   UNL     1      48.383   8.811  15.487  0.00  0.00    +0.000 A 
ATOM      3  C   UNL     1      47.675   8.867  14.289  0.00  0.00    +0.000 A 
ATOM      4  C   UNL     1      47.963   7.960  13.268  0.00  0.00    +0.000 A 
ATOM      5  C   UNL     1      48.957   7.020  13.518  0.00  0.00    +0.000 A 
ATOM      6  N   UNL     1      49.659   6.939  14.673  0.00  0.00    +0.000 NA
ENDROOT
BRANCH   1   7
ATOM      7  C   UNL     1      50.098   7.713  16.966  0.00  0.00    +0.000 C 
BRANCH   7  10
ATOM      8  O   UNL     1      48.751   5.441  17.930  0.00  0.00    +0.000 OA
ATOM      9  C   UNL     1      49.925   5.338  17.583  0.00  0.00    +0.000 C 
ATOM     10  N   UNL     1      50.689   6.409  17.170  0.00  0.00    +0.000 N 
ATOM     11  H   UNL     1      51.592   6.200  16.756  0.00  0.00    +0.000 HD
BRANCH   9  12
ATOM     12  C   UNL     1      50.615   4.009  17.586  0.00  0.00    +0.000 A 
ATOM     13  C   UNL     1      51.886   3.903  18.143  0.00  0.00    +0.000 A 
ATOM     14  C   UNL     1      52.518   2.664  18.116  0.00  0.00    +0.000 A 
ATOM     15  C   UNL     1      51.863   1.581  17.539  0.00  0.00    +0.000 A 
ATOM     16  C   UNL     1      50.595   1.779  17.012  0.00  0.00    +0.000 A 
ATOM     17  N   UNL     1      49.946   2.966  17.021  0.00  0.00    +0.000 NA
ENDBRANCH   9  12
ENDBRANCH   7  10
ENDBRANCH   1   7
BRANCH   4  18
ATOM     18  C   UNL     1      47.205   7.968  11.973  0.00  0.00    +0.000 C 
BRANCH  18  19
ATOM     19  N   UNL     1      46.599   6.686  11.707  0.00  0.00    +0.000 N 
ATOM     20  C   UNL     1      45.234   6.539  11.677  0.00  0.00    +0.000 C 
ATOM     21  O   UNL     1      44.477   7.496  11.822  0.00  0.00    +0.000 OA
ATOM     22  H   UNL     1      47.182   5.863  11.822  0.00  0.00    +0.000 HD
BRANCH  20  23
ATOM     23  C   UNL     1      44.720   5.191  11.403  0.00  0.00    +0.000 A 
ATOM     24  C   UNL     1      43.969   4.533  12.366  0.00  0.00    +0.000 A 
ATOM     25  S   UNL     1      43.407   3.000  11.869  0.00  0.00    +0.000 S 
ATOM     26  C   UNL     1      44.195   3.139  10.367  0.00  0.00    +0.000 A 
ATOM     27  N   UNL     1      44.137   2.134   9.452  0.00  0.00    +0.000 NA
ATOM     28  C   UNL     1      44.806   2.360   8.371  0.00  0.00    +0.000 A 
ATOM     29  N   UNL     1      45.523   3.501   8.119  0.00  0.00    +0.000 N 
ATOM     30  C   UNL     1      45.585   4.554   9.000  0.00  0.00    +0.000 A 
ATOM     31  O   UNL     1      46.202   5.578   8.729  0.00  0.00    +0.000 OA
ATOM     32  C   UNL     1      44.860   4.346  10.240  0.00  0.00    +0.000 A 
ATOM     33  H   UNL     1      46.018   3.617   7.247  0.00  0.00    +0.000 HD
ENDBRANCH  20  23
ENDBRANCH  18  19
ENDBRANCH   4  18
TORSDOF 6
ENDMDL
MODEL 5
REMARK VINA RESULT:    -7.230      4.976      9.615
REMARK INTER + INTRA:         -10.769
REMARK INTER:                  -9.932
REMARK INTRA:                  -0.837
REMARK UNBOUND:                -1.003
REMARK  Name = 
REMARK  6 active torsions:
REMARK  status: ('A' for Active; 'I' for Inactive)
REMARK    1  A    between atoms: C_2  and  C_25
REMARK    2  A    between atoms: N_3  and  C_4
REMARK    3  A    between atoms: C_4  and  C_5
REMARK    4  A    between atoms: C_8  and  C_9
REMARK    5  A    between atoms: C_9  and  N_10
REMARK    6  A    between atoms: C_11  and  C_13
REMARK                            x       y       z     vdW  Elec       q    Type
REMARK                         _______ _______ _______ _____ _____    ______ ____
ROOT
ATOM      1  C   UNL     1      51.325   3.640  17.669  0.00  0.00    +0.000 A 
ATOM      2  C   UNL     1      50.764   2.403  17.355  0.00  0.00    +0.000 A 
ATOM      3  C   UNL     1      49.396   2.325  17.102  0.00  0.00    +0.000 A 
ATOM      4  C   UNL     1      48.606   3.472  17.190  0.00  0.00    +0.000 A 
ATOM      5  C   UNL     1      49.249   4.660  17.520  0.00  0.00    +0.000 A 
ATOM      6  N   UNL     1      50.576   4.768  17.767  0.00  0.00    +0.000 NA
ENDROOT
BRANCH   1   7
ATOM      7  C   UNL     1      52.815   3.759  17.891  0.00  0.00    +0.000 C 
BRANCH   7  10
ATOM      8  O   UNL     1      54.028   2.266  19.942  0.00  0.00    +0.000 OA
ATOM      9  C   UNL     1      54.018   1.815  18.799  0.00  0.00    +0.000 C 
ATOM     10  N   UNL     1      53.516   2.505  17.717  0.00  0.00    +0.000 N 
ATOM     11  H   UNL     1      53.408   1.990  16.849  0.00  0.00    +0.000 HD
BRANCH   9  12
ATOM     12  C   UNL     1      54.563   0.451  18.506  0.00  0.00    +0.000 A 
ATOM     13  C   UNL     1      54.753   0.064  17.182  0.00  0.00    +0.000 A 
ATOM     14  C   UNL     1      55.240  -1.214  16.931  0.00  0.00    +0.000 A 
ATOM     15  C   UNL     1      55.518  -2.056  18.002  0.00  0.00    +0.000 A 
ATOM     16  C   UNL     1      55.302  -1.584  19.289  0.00  0.00    +0.000 A 
ATOM     17  N   UNL     1      54.833  -0.348  19.574  0.00  0.00    +0.000 NA
ENDBRANCH   9  12
ENDBRANCH   7  10
ENDBRANCH   1   7
BRANCH   4  18
ATOM     18  C   UNL     1      47.134   3.436  16.899  0.00  0.00    +0.000 C 
BRANCH  18  19
ATOM     19  N   UNL     1      46.766   4.420  15.912  0.00  0.00    +0.000 N 
ATOM     20  C   UNL     1      46.918   4.171  14.570  0.00  0.00    +0.000 C 
ATOM     21  O   UNL     1      47.321   3.087  14.155  0.00  0.00    +0.000 OA
ATOM     22  H   UNL     1      46.663   5.380  16.228  0.00  0.00    +0.000 HD
BRANCH  20  23
ATOM     23  C   UNL     1      46.517   5.243  13.649  0.00  0.00    +0.000 A 
ATOM     24  C   UNL     1      47.401   6.278  13.373  0.00  0.00    +0.000 A 
ATOM     25  S   UNL     1      46.800   7.410  12.247  0.00  0.00    +0.000 S 
ATOM     26  C   UNL     1      45.315   6.587  12.130  0.00  0.00    +0.000 A 
ATOM     27  N   UNL     1      44.317   7.054  11.332  0.00  0.00    +0.000 NA
ATOM     28  C   UNL     1      43.236   6.349  11.363  0.00  0.00    +0.000 A 
ATOM     29  N   UNL     1      43.063   5.216  12.116  0.00  0.00    +0.000 N 
ATOM     30  C   UNL     1      44.052   4.690  12.912  0.00  0.00    +0.000 A 
ATOM     31  O   UNL     1      43.880   3.653  13.542  0.00  0.00    +0.000 OA
ATOM     32  C   UNL     1      45.286   5.453  12.923  0.00  0.00    +0.000 A 
ATOM     33  H   UNL     1      42.192   4.706  12.088  0.00  0.00    +0.000 HD
ENDBRANCH  20  23
ENDBRANCH  18  19
ENDBRANCH   4  18
TORSDOF 6
ENDMDL
MODEL 6
REMARK VINA RESULT:    -6.931      3.409      8.426
REMARK INTER + INTRA:         -10.365
REMARK INTER:                  -9.507
REMARK INTRA:                  -0.858
REMARK UNBOUND:                -1.003
REMARK  Name = 
REMARK  6 active torsions:
REMARK  status: ('A' for Active; 'I' for Inactive)
REMARK    1  A    between atoms: C_2  and  C_25
REMARK    2  A    between atoms: N_3  and  C_4
REMARK    3  A    between atoms: C_4  and  C_5
REMARK    4  A    between atoms: C_8  and  C_9
REMARK    5  A    between atoms: C_9  and  N_10
REMARK    6  A    between atoms: C_11  and  C_13
REMARK                            x       y       z     vdW  Elec       q    Type
REMARK                         _______ _______ _______ _____ _____    ______ ____
ROOT
ATOM      1  C   UNL     1      49.131   7.529  16.121  0.00  0.00    +0.000 A 
ATOM      2  C   UNL     1      48.300   8.613  15.842  0.00  0.00    +0.000 A 
ATOM      3  C   UNL     1      47.930   8.859  14.521  0.00  0.00    +0.000 A 
ATOM      4  C   UNL     1      48.411   8.039  13.499  0.00  0.00    +0.000 A 
ATOM      5  C   UNL     1      49.243   6.988  13.870  0.00  0.00    +0.000 A 
ATOM      6  N   UNL     1      49.617   6.721  15.144  0.00  0.00    +0.000 NA
ENDROOT
BRANCH   1   7
ATOM      7  C   UNL     1      49.499   7.209  17.551  0.00  0.00    +0.000 C 
BRANCH   7  10
ATOM      8  O   UNL     1      48.457   4.616  17.867  0.00  0.00    +0.000 OA
ATOM      9  C   UNL     1      49.672   4.763  17.760  0.00  0.00    +0.000 C 
ATOM     10  N   UNL     1      50.281   5.998  17.678  0.00  0.00    +0.000 N 
ATOM     11  H   UNL     1      51.266   6.012  17.434  0.00  0.00    +0.000 HD
BRANCH   9  12
ATOM     12  C   UNL     1      50.589   3.580  17.708  0.00  0.00    +0.000 A 
ATOM     13  C   UNL     1      51.871   3.689  18.240  0.00  0.00    +0.000 A 
ATOM     14  C   UNL     1      52.713   2.585  18.163  0.00  0.00    +0.000 A 
ATOM     15  C   UNL     1      52.251   1.420  17.561  0.00  0.00    +0.000 A 
ATOM     16  C   UNL     1      50.956   1.401  17.063  0.00  0.00    +0.000 A 
ATOM     17  N   UNL     1      50.106   2.451  17.121  0.00  0.00    +0.000 NA
ENDBRANCH   9  12
ENDBRANCH   7  10
ENDBRANCH   1   7
BRANCH   4  18
ATOM     18  C   UNL     1      48.015   8.254  12.068  0.00  0.00    +0.000 C 
BRANCH  18  19
ATOM     19  N   UNL     1      47.400   7.075  11.508  0.00  0.00    +0.000 N 
ATOM     20  C   UNL     1      46.042   7.005  11.322  0.00  0.00    +0.000 C 
ATOM     21  O   UNL     1      45.304   7.954  11.573  0.00  0.00    +0.000 OA
ATOM     22  H   UNL     1      47.943   6.217  11.519  0.00  0.00    +0.000 HD
BRANCH  20  23
ATOM     23  C   UNL     1      45.517   5.758  10.749  0.00  0.00    +0.000 A 
ATOM     24  C   UNL     1      45.736   5.473   9.408  0.00  0.00    +0.000 A 
ATOM     25  S   UNL     1      45.105   3.965   8.916  0.00  0.00    +0.000 S 
ATOM     26  C   UNL     1      44.469   3.665  10.466  0.00  0.00    +0.000 A 
ATOM     27  N   UNL     1      43.770   2.528  10.726  0.00  0.00    +0.000 NA
ATOM     28  C   UNL     1      43.319   2.444  11.933  0.00  0.00    +0.000 A 
ATOM     29  N   UNL     1      43.508   3.393  12.905  0.00  0.00    +0.000 N 
ATOM     30  C   UNL     1      44.232   4.542  12.697  0.00  0.00    +0.000 A 
ATOM     31  O   UNL     1      44.417   5.352  13.599  0.00  0.00    +0.000 OA
ATOM     32  C   UNL     1      44.752   4.691  11.350  0.00  0.00    +0.000 A 
ATOM     33  H   UNL     1      43.133   3.262  13.834  0.00  0.00    +0.000 HD
ENDBRANCH  20  23
ENDBRANCH  18  19
ENDBRANCH   4  18
TORSDOF 6
ENDMDL
MODEL 7
REMARK VINA RESULT:    -6.475      4.879      8.195
REMARK INTER + INTRA:          -9.749
REMARK INTER:                  -8.820
REMARK INTRA:                  -0.929
REMARK UNBOUND:                -1.003
REMARK  Name = 
REMARK  6 active torsions:
REMARK  status: ('A' for Active; 'I' for Inactive)
REMARK    1  A    between atoms: C_2  and  C_25
REMARK    2  A    between atoms: N_3  and  C_4
REMARK    3  A    between atoms: C_4  and  C_5
REMARK    4  A    between atoms: C_8  and  C_9
REMARK    5  A    between atoms: C_9  and  N_10
REMARK    6  A    between atoms: C_11  and  C_13
REMARK                            x       y       z     vdW  Elec       q    Type
REMARK                         _______ _______ _______ _____ _____    ______ ____
ROOT
ATOM      1  C   UNL     1      50.469   8.754  12.142  0.00  0.00    +0.000 A 
ATOM      2  C   UNL     1      49.767   7.724  11.520  0.00  0.00    +0.000 A 
ATOM      3  C   UNL     1      48.429   7.519  11.852  0.00  0.00    +0.000 A 
ATOM      4  C   UNL     1      47.820   8.326  12.815  0.00  0.00    +0.000 A 
ATOM      5  C   UNL     1      48.600   9.322  13.390  0.00  0.00    +0.000 A 
ATOM      6  N   UNL     1      49.901   9.548  13.085  0.00  0.00    +0.000 NA
ENDROOT
BRANCH   1   7
ATOM      7  C   UNL     1      51.904   9.031  11.756  0.00  0.00    +0.000 C 
BRANCH   7  10
ATOM      8  O   UNL     1      54.147   7.343  11.607  0.00  0.00    +0.000 OA
ATOM      9  C   UNL     1      53.406   7.439  10.632  0.00  0.00    +0.000 C 
ATOM     10  N   UNL     1      52.327   8.297  10.584  0.00  0.00    +0.000 N 
ATOM     11  H   UNL     1      51.686   8.190   9.803  0.00  0.00    +0.000 HD
BRANCH   9  12
ATOM     12  C   UNL     1      53.632   6.608   9.407  0.00  0.00    +0.000 A 
ATOM     13  C   UNL     1      52.866   6.848   8.270  0.00  0.00    +0.000 A 
ATOM     14  C   UNL     1      53.078   6.051   7.150  0.00  0.00    +0.000 A 
ATOM     15  C   UNL     1      54.040   5.049   7.204  0.00  0.00    +0.000 A 
ATOM     16  C   UNL     1      54.761   4.885   8.378  0.00  0.00    +0.000 A 
ATOM     17  N   UNL     1      54.587   5.641   9.487  0.00  0.00    +0.000 NA
ENDBRANCH   9  12
ENDBRANCH   7  10
ENDBRANCH   1   7
BRANCH   4  18
ATOM     18  C   UNL     1      46.375   8.156  13.181  0.00  0.00    +0.000 C 
BRANCH  18  19
ATOM     19  N   UNL     1      45.893   6.842  12.833  0.00  0.00    +0.000 N 
ATOM     20  C   UNL     1      44.970   6.667  11.832  0.00  0.00    +0.000 C 
ATOM     21  O   UNL     1      44.559   7.609  11.160  0.00  0.00    +0.000 OA
ATOM     22  H   UNL     1      46.031   6.101  13.514  0.00  0.00    +0.000 HD
BRANCH  20  23
ATOM     23  C   UNL     1      44.542   5.288  11.561  0.00  0.00    +0.000 A 
ATOM     24  C   UNL     1      43.793   4.603  12.508  0.00  0.00    +0.000 A 
ATOM     25  S   UNL     1      43.336   3.034  12.015  0.00  0.00    +0.000 S 
ATOM     26  C   UNL     1      44.170   3.196  10.541  0.00  0.00    +0.000 A 
ATOM     27  N   UNL     1      44.203   2.177   9.641  0.00  0.00    +0.000 NA
ATOM     28  C   UNL     1      44.897   2.424   8.581  0.00  0.00    +0.000 A 
ATOM     29  N   UNL     1      45.559   3.599   8.337  0.00  0.00    +0.000 N 
ATOM     30  C   UNL     1      45.530   4.666   9.203  0.00  0.00    +0.000 A 
ATOM     31  O   UNL     1      46.099   5.719   8.937  0.00  0.00    +0.000 OA
ATOM     32  C   UNL     1      44.772   4.436  10.418  0.00  0.00    +0.000 A 
ATOM     33  H   UNL     1      46.080   3.730   7.482  0.00  0.00    +0.000 HD
ENDBRANCH  20  23
ENDBRANCH  18  19
ENDBRANCH   4  18
TORSDOF 6
ENDMDL
MODEL 8
REMARK VINA RESULT:    -6.418      3.515      5.156
REMARK INTER + INTRA:          -9.672
REMARK INTER:                  -8.677
REMARK INTRA:                  -0.995
REMARK UNBOUND:                -1.003
REMARK  Name = 
REMARK  6 active torsions:
REMARK  status: ('A' for Active; 'I' for Inactive)
REMARK    1  A    between atoms: C_2  and  C_25
REMARK    2  A    between atoms: N_3  and  C_4
REMARK    3  A    between atoms: C_4  and  C_5
REMARK    4  A    between atoms: C_8  and  C_9
REMARK    5  A    between atoms: C_9  and  N_10
REMARK    6  A    between atoms: C_11  and  C_13
REMARK                            x       y       z     vdW  Elec       q    Type
REMARK                         _______ _______ _______ _____ _____    ______ ____
ROOT
ATOM      1  C   UNL     1      45.729   5.645  11.923  0.00  0.00    +0.000 A 
ATOM      2  C   UNL     1      46.654   6.586  11.478  0.00  0.00    +0.000 A 
ATOM      3  C   UNL     1      47.697   6.962  12.323  0.00  0.00    +0.000 A 
ATOM      4  C   UNL     1      47.787   6.414  13.603  0.00  0.00    +0.000 A 
ATOM      5  C   UNL     1      46.814   5.490  13.966  0.00  0.00    +0.000 A 
ATOM      6  N   UNL     1      45.791   5.102  13.166  0.00  0.00    +0.000 NA
ENDROOT
BRANCH   1   7
ATOM      7  C   UNL     1      44.623   5.179  11.004  0.00  0.00    +0.000 C 
BRANCH   7  10
ATOM      8  O   UNL     1      45.763   5.421   8.446  0.00  0.00    +0.000 OA
ATOM      9  C   UNL     1      45.634   4.304   8.940  0.00  0.00    +0.000 C 
ATOM     10  N   UNL     1      45.019   4.079  10.152  0.00  0.00    +0.000 N 
ATOM     11  H   UNL     1      45.101   3.147  10.547  0.00  0.00    +0.000 HD
BRANCH   9  12
ATOM     12  C   UNL     1      46.153   3.087   8.237  0.00  0.00    +0.000 A 
ATOM     13  C   UNL     1      46.996   3.242   7.140  0.00  0.00    +0.000 A 
ATOM     14  C   UNL     1      47.449   2.100   6.489  0.00  0.00    +0.000 A 
ATOM     15  C   UNL     1      47.049   0.852   6.952  0.00  0.00    +0.000 A 
ATOM     16  C   UNL     1      46.210   0.793   8.056  0.00  0.00    +0.000 A 
ATOM     17  N   UNL     1      45.751   1.880   8.718  0.00  0.00    +0.000 NA
ENDBRANCH   9  12
ENDBRANCH   7  10
ENDBRANCH   1   7
BRANCH   4  18
ATOM     18  C   UNL     1      48.909   6.771  14.533  0.00  0.00    +0.000 C 
BRANCH  18  19
ATOM     19  N   UNL     1      50.032   7.326  13.818  0.00  0.00    +0.000 N 
ATOM     20  C   UNL     1      50.803   8.319  14.367  0.00  0.00    +0.000 C 
ATOM     21  O   UNL     1      50.604   8.738  15.505  0.00  0.00    +0.000 OA
ATOM     22  H   UNL     1      50.066   7.171  12.814  0.00  0.00    +0.000 HD
BRANCH  20  23
ATOM     23  C   UNL     1      51.920   8.816  13.553  0.00  0.00    +0.000 A 
ATOM     24  C   UNL     1      53.224   8.644  13.996  0.00  0.00    +0.000 A 
ATOM     25  S   UNL     1      54.401   9.232  12.910  0.00  0.00    +0.000 S 
ATOM     26  C   UNL     1      53.207   9.788  11.833  0.00  0.00    +0.000 A 
ATOM     27  N   UNL     1      53.546  10.429  10.682  0.00  0.00    +0.000 NA
ATOM     28  C   UNL     1      52.541  10.824   9.975  0.00  0.00    +0.000 A 
ATOM     29  N   UNL     1      51.226  10.632  10.313  0.00  0.00    +0.000 N 
ATOM     30  C   UNL     1      50.835   9.965  11.449  0.00  0.00    +0.000 A 
ATOM     31  O   UNL     1      49.651   9.775  11.702  0.00  0.00    +0.000 OA
ATOM     32  C   UNL     1      51.929   9.510  12.287  0.00  0.00    +0.000 A 
ATOM     33  H   UNL     1      50.486  10.961   9.710  0.00  0.00    +0.000 HD
ENDBRANCH  20  23
ENDBRANCH  18  19
ENDBRANCH   4  18
TORSDOF 6
ENDMDL
MODEL 9
REMARK VINA RESULT:    -6.360      5.424      9.837
REMARK INTER + INTRA:          -9.594
REMARK INTER:                  -8.773
REMARK INTRA:                  -0.821
REMARK UNBOUND:                -1.003
REMARK  Name = 
REMARK  6 active torsions:
REMARK  status: ('A' for Active; 'I' for Inactive)
REMARK    1  A    between atoms: C_2  and  C_25
REMARK    2  A    between atoms: N_3  and  C_4
REMARK    3  A    between atoms: C_4  and  C_5
REMARK    4  A    between atoms: C_8  and  C_9
REMARK    5  A    between atoms: C_9  and  N_10
REMARK    6  A    between atoms: C_11  and  C_13
REMARK                            x       y       z     vdW  Elec       q    Type
REMARK                         _______ _______ _______ _____ _____    ______ ____
ROOT
ATOM      1  C   UNL     1      52.085   2.133  17.553  0.00  0.00    +0.000 A 
ATOM      2  C   UNL     1      50.775   1.786  17.230  0.00  0.00    +0.000 A 
ATOM      3  C   UNL     1      49.766   2.736  17.380  0.00  0.00    +0.000 A 
ATOM      4  C   UNL     1      50.074   4.006  17.870  0.00  0.00    +0.000 A 
ATOM      5  C   UNL     1      51.407   4.260  18.176  0.00  0.00    +0.000 A 
ATOM      6  N   UNL     1      52.409   3.359  18.037  0.00  0.00    +0.000 NA
ENDROOT
BRANCH   1   7
ATOM      7  C   UNL     1      53.203   1.138  17.344  0.00  0.00    +0.000 C 
BRANCH   7  10
ATOM      8  O   UNL     1      54.915  -1.092  17.300  0.00  0.00    +0.000 OA
ATOM      9  C   UNL     1      54.037  -1.029  18.157  0.00  0.00    +0.000 C 
ATOM     10  N   UNL     1      53.104  -0.016  18.212  0.00  0.00    +0.000 N 
ATOM     11  H   UNL     1      52.523   0.033  19.043  0.00  0.00    +0.000 HD
BRANCH   9  12
ATOM     12  C   UNL     1      53.924  -2.076  19.222  0.00  0.00    +0.000 A 
ATOM     13  C   UNL     1      55.060  -2.786  19.601  0.00  0.00    +0.000 A 
ATOM     14  C   UNL     1      54.929  -3.768  20.577  0.00  0.00    +0.000 A 
ATOM     15  C   UNL     1      53.679  -4.006  21.137  0.00  0.00    +0.000 A 
ATOM     16  C   UNL     1      52.603  -3.246  20.701  0.00  0.00    +0.000 A 
ATOM     17  N   UNL     1      52.690  -2.281  19.757  0.00  0.00    +0.000 NA
ENDBRANCH   9  12
ENDBRANCH   7  10
ENDBRANCH   1   7
BRANCH   4  18
ATOM     18  C   UNL     1      49.023   5.066  18.021  0.00  0.00    +0.000 C 
BRANCH  18  19
ATOM     19  N   UNL     1      48.309   5.281  16.786  0.00  0.00    +0.000 N 
ATOM     20  C   UNL     1      48.848   6.041  15.778  0.00  0.00    +0.000 C 
ATOM     21  O   UNL     1      49.975   6.523  15.863  0.00  0.00    +0.000 OA
ATOM     22  H   UNL     1      47.309   5.101  16.790  0.00  0.00    +0.000 HD
BRANCH  20  23
ATOM     23  C   UNL     1      48.036   6.201  14.565  0.00  0.00    +0.000 A 
ATOM     24  C   UNL     1      47.977   7.437  13.936  0.00  0.00    +0.000 A 
ATOM     25  S   UNL     1      47.033   7.439  12.514  0.00  0.00    +0.000 S 
ATOM     26  C   UNL     1      46.626   5.799  12.719  0.00  0.00    +0.000 A 
ATOM     27  N   UNL     1      45.802   5.168  11.839  0.00  0.00    +0.000 NA
ATOM     28  C   UNL     1      45.552   3.936  12.132  0.00  0.00    +0.000 A 
ATOM     29  N   UNL     1      46.055   3.275  13.224  0.00  0.00    +0.000 N 
ATOM     30  C   UNL     1      46.914   3.862  14.122  0.00  0.00    +0.000 A 
ATOM     31  O   UNL     1      47.378   3.232  15.066  0.00  0.00    +0.000 OA
ATOM     32  C   UNL     1      47.217   5.254  13.844  0.00  0.00    +0.000 A 
ATOM     33  H   UNL     1      45.825   2.307  13.391  0.00  0.00    +0.000 HD
ENDBRANCH  20  23
ENDBRANCH  18  19
ENDBRANCH   4  18
TORSDOF 6
ENDMDL
