MODEL 1
REMARK VINA RESULT:    -7.773      0.000      0.000
REMARK INTER + INTRA:         -11.441
REMARK INTER:                 -10.500
REMARK INTRA:                  -0.941
REMARK UNBOUND:                -0.941
REMARK  Name = 
REMARK  6 active torsions:
REMARK  status: ('A' for Active; 'I' for Inactive)
REMARK    1  A    between atoms: C_2  and  C_3
REMARK    2  A    between atoms: C_7  and  C_8
REMARK    3  A    between atoms: C_8  and  C_9
REMARK    4  A    between atoms: C_12  and  C_13
REMARK    5  A    between atoms: C_13  and  N_14
REMARK    6  A    between atoms: C_15  and  C_17
REMARK                            x       y       z     vdW  Elec       q    Type
REMARK                         _______ _______ _______ _____ _____    ______ ____
ROOT
ATOM      1  C   UNL     1      47.637   7.991  13.664  0.00  0.00    +0.000 C 
ENDROOT
BRANCH   1   5
ATOM      2  C   UNL     1      45.155   5.268  11.373  0.00  0.00    +0.000 A 
ATOM      3  C   UNL     1      44.975   6.654  11.269  0.00  0.00    +0.000 A 
ATOM      4  C   UNL     1      45.756   7.537  12.026  0.00  0.00    +0.000 A 
ATOM      5  C   UNL     1      46.738   7.053  12.897  0.00  0.00    +0.000 A 
ATOM      6  C   UNL     1      46.872   5.666  13.049  0.00  0.00    +0.000 A 
ATOM      7  C   UNL     1      46.098   4.783  12.289  0.00  0.00    +0.000 A 
BRANCH   2   8
ATOM      8  C   UNL     1      44.378   4.319  10.486  0.00  0.00    +0.000 C 
BRANCH   8  13
ATOM      9  C   UNL     1      46.200   2.023   8.029  0.00  0.00    +0.000 A 
ATOM     10  C   UNL     1      46.659   2.987   7.148  0.00  0.00    +0.000 A 
ATOM     11  N   UNL     1      46.417   4.312   7.285  0.00  0.00    +0.000 NA
ATOM     12  C   UNL     1      45.690   4.690   8.361  0.00  0.00    +0.000 A 
ATOM     13  C   UNL     1      45.168   3.809   9.306  0.00  0.00    +0.000 A 
ATOM     14  C   UNL     1      45.435   2.444   9.123  0.00  0.00    +0.000 A 
BRANCH   9  16
ATOM     15  N   UNL     1      46.766  -0.475   7.657  0.00  0.00    +0.000 NA
ATOM     16  C   UNL     1      46.513   0.645   7.822  0.00  0.00    +0.000 C 
ENDBRANCH   9  16
ENDBRANCH   8  13
ENDBRANCH   2   8
ENDBRANCH   1   5
BRANCH   1  17
ATOM     17  N   UNL     1      47.926   7.494  14.984  0.00  0.00    +0.000 N 
ATOM     18  C   UNL     1      49.209   7.198  15.371  0.00  0.00    +0.000 C 
ATOM     19  O   UNL     1      50.175   7.376  14.633  0.00  0.00    +0.000 OA
ATOM     20  H   UNL     1      47.150   7.098  15.503  0.00  0.00    +0.000 HD
BRANCH  18  21
ATOM     21  C   UNL     1      49.374   6.714  16.748  0.00  0.00    +0.000 A 
ATOM     22  C   UNL     1      50.027   7.504  17.686  0.00  0.00    +0.000 A 
ATOM     23  S   UNL     1      50.079   6.809  19.244  0.00  0.00    +0.000 S 
ATOM     24  C   UNL     1      49.281   5.406  18.706  0.00  0.00    +0.000 A 
ATOM     25  N   UNL     1      49.031   4.373  19.554  0.00  0.00    +0.000 NA
ATOM     26  C   UNL     1      48.444   3.362  19.007  0.00  0.00    +0.000 A 
ATOM     27  N   UNL     1      48.078   3.292  17.687  0.00  0.00    +0.000 N 
ATOM     28  C   UNL     1      48.281   4.323  16.802  0.00  0.00    +0.000 A 
ATOM     29  O   UNL     1      47.893   4.248  15.640  0.00  0.00    +0.000 OA
ATOM     30  C   UNL     1      48.954   5.478  17.364  0.00  0.00    +0.000 A 
ATOM     31  H   UNL     1      47.610   2.478  17.321  0.00  0.00    +0.000 HD
ENDBRANCH  18  21
ENDBRANCH   1  17
TORSDOF 6
ENDMDL
MODEL 2
REMARK VINA RESULT:    -7.645      1.706      2.191
REMARK INTER + INTRA:         -11.268
REMARK INTER:                 -10.232
REMARK INTRA:                  -1.036
REMARK UNBOUND:                -0.941
REMARK  Name = 
REMARK  6 active torsions:
REMARK  status: ('A' for Active; 'I' for Inactive)
REMARK    1  A    between atoms: C_2  and  C_3
REMARK    2  A    between atoms: C_7  and  C_8
REMARK    3  A    between atoms: C_8  and  C_9
REMARK    4  A    between atoms: C_12  and  C_13
REMARK    5  A    between atoms: C_13  and  N_14
REMARK    6  A    between atoms: C_15  and  C_17
REMARK                            x       y       z     vdW  Elec       q    Type
REMARK                         _______ _______ _______ _____ _____    ______ ____
ROOT
ATOM      1  C   UNL     1      47.942   7.473  13.996  0.00  0.00    +0.000 C 
ENDROOT
BRANCH   1   5
ATOM      2  C   UNL     1      45.268   5.145  11.494  0.00  0.00    +0.000 A 
ATOM      3  C   UNL     1      45.289   6.544  11.405  0.00  0.00    +0.000 A 
ATOM      4  C   UNL     1      46.132   7.302  12.229  0.00  0.00    +0.000 A 
ATOM      5  C   UNL     1      46.976   6.676  13.154  0.00  0.00    +0.000 A 
ATOM      6  C   UNL     1      46.906   5.283  13.288  0.00  0.00    +0.000 A 
ATOM      7  C   UNL     1      46.071   4.524  12.461  0.00  0.00    +0.000 A 
BRANCH   2   8
ATOM      8  C   UNL     1      44.430   4.323  10.540  0.00  0.00    +0.000 C 
BRANCH   8  13
ATOM      9  C   UNL     1      46.199   2.011   8.059  0.00  0.00    +0.000 A 
ATOM     10  C   UNL     1      46.652   2.971   7.170  0.00  0.00    +0.000 A 
ATOM     11  N   UNL     1      46.422   4.298   7.309  0.00  0.00    +0.000 NA
ATOM     12  C   UNL     1      45.713   4.682   8.396  0.00  0.00    +0.000 A 
ATOM     13  C   UNL     1      45.198   3.805   9.349  0.00  0.00    +0.000 A 
ATOM     14  C   UNL     1      45.453   2.439   9.163  0.00  0.00    +0.000 A 
BRANCH   9  16
ATOM     15  N   UNL     1      46.741  -0.491   7.677  0.00  0.00    +0.000 NA
ATOM     16  C   UNL     1      46.498   0.630   7.849  0.00  0.00    +0.000 C 
ENDBRANCH   9  16
ENDBRANCH   8  13
ENDBRANCH   2   8
ENDBRANCH   1   5
BRANCH   1  17
ATOM     17  N   UNL     1      47.917   7.056  15.374  0.00  0.00    +0.000 N 
ATOM     18  C   UNL     1      49.052   6.612  16.007  0.00  0.00    +0.000 C 
ATOM     19  O   UNL     1      50.145   6.584  15.450  0.00  0.00    +0.000 OA
ATOM     20  H   UNL     1      47.011   6.823  15.765  0.00  0.00    +0.000 HD
BRANCH  18  21
ATOM     21  C   UNL     1      48.899   6.232  17.417  0.00  0.00    +0.000 A 
ATOM     22  C   UNL     1      49.265   4.959  17.835  0.00  0.00    +0.000 A 
ATOM     23  S   UNL     1      49.071   4.709  19.512  0.00  0.00    +0.000 S 
ATOM     24  C   UNL     1      48.438   6.274  19.729  0.00  0.00    +0.000 A 
ATOM     25  N   UNL     1      48.033   6.704  20.953  0.00  0.00    +0.000 NA
ATOM     26  C   UNL     1      47.549   7.900  20.967  0.00  0.00    +0.000 A 
ATOM     27  N   UNL     1      47.439   8.711  19.866  0.00  0.00    +0.000 N 
ATOM     28  C   UNL     1      47.866   8.332  18.616  0.00  0.00    +0.000 A 
ATOM     29  O   UNL     1      47.802   9.102  17.663  0.00  0.00    +0.000 OA
ATOM     30  C   UNL     1      48.402   6.987  18.544  0.00  0.00    +0.000 A 
ATOM     31  H   UNL     1      47.063   9.643  19.944  0.00  0.00    +0.000 HD
ENDBRANCH  18  21
ENDBRANCH   1  17
TORSDOF 6
ENDMDL
MODEL 3
REMARK VINA RESULT:    -7.337      2.164      3.817
REMARK INTER + INTRA:         -10.851
REMARK INTER:                  -9.661
REMARK INTRA:                  -1.190
REMARK UNBOUND:                -0.941
REMARK  Name = 
REMARK  6 active torsions:
REMARK  status: ('A' for Active; 'I' for Inactive)
REMARK    1  A    between atoms: C_2  and  C_3
REMARK    2  A    between atoms: C_7  and  C_8
REMARK    3  A    between atoms: C_8  and  C_9
REMARK    4  A    between atoms: C_12  and  C_13
REMARK    5  A    between atoms: C_13  and  N_14
REMARK    6  A    between atoms: C_15  and  C_17
REMARK                            x       y       z     vdW  Elec       q    Type
REMARK                         _______ _______ _______ _____ _____    ______ ____
ROOT
ATOM      1  C   UNL     1      47.207   5.073  14.913  0.00  0.00    +0.000 C 
ENDROOT
BRANCH   1   5
ATOM      2  C   UNL     1      45.002   4.467  11.225  0.00  0.00    +0.000 A 
ATOM      3  C   UNL     1      45.513   5.732  11.550  0.00  0.00    +0.000 A 
ATOM      4  C   UNL     1      46.203   5.938  12.752  0.00  0.00    +0.000 A 
ATOM      5  C   UNL     1      46.403   4.884  13.650  0.00  0.00    +0.000 A 
ATOM      6  C   UNL     1      45.836   3.637  13.355  0.00  0.00    +0.000 A 
ATOM      7  C   UNL     1      45.152   3.427  12.152  0.00  0.00    +0.000 A 
BRANCH   2   8
ATOM      8  C   UNL     1      44.341   4.222   9.887  0.00  0.00    +0.000 C 
BRANCH   8  13
ATOM      9  C   UNL     1      46.366   1.750   7.785  0.00  0.00    +0.000 A 
ATOM     10  C   UNL     1      47.015   2.659   6.966  0.00  0.00    +0.000 A 
ATOM     11  N   UNL     1      46.839   3.999   7.038  0.00  0.00    +0.000 NA
ATOM     12  C   UNL     1      45.982   4.451   7.982  0.00  0.00    +0.000 A 
ATOM     13  C   UNL     1      45.267   3.630   8.852  0.00  0.00    +0.000 A 
ATOM     14  C   UNL     1      45.472   2.248   8.739  0.00  0.00    +0.000 A 
BRANCH   9  16
ATOM     15  N   UNL     1      46.826  -0.786   7.550  0.00  0.00    +0.000 NA
ATOM     16  C   UNL     1      46.619   0.350   7.655  0.00  0.00    +0.000 C 
ENDBRANCH   9  16
ENDBRANCH   8  13
ENDBRANCH   2   8
ENDBRANCH   1   5
BRANCH   1  17
ATOM     17  N   UNL     1      47.876   6.348  14.934  0.00  0.00    +0.000 N 
ATOM     18  C   UNL     1      49.032   6.537  15.649  0.00  0.00    +0.000 C 
ATOM     19  O   UNL     1      49.575   5.628  16.271  0.00  0.00    +0.000 OA
ATOM     20  H   UNL     1      47.328   7.156  14.658  0.00  0.00    +0.000 HD
BRANCH  18  21
ATOM     21  C   UNL     1      49.626   7.878  15.575  0.00  0.00    +0.000 A 
ATOM     22  C   UNL     1      49.840   8.606  16.738  0.00  0.00    +0.000 A 
ATOM     23  S   UNL     1      50.587  10.117  16.470  0.00  0.00    +0.000 S 
ATOM     24  C   UNL     1      50.598   9.875  14.786  0.00  0.00    +0.000 A 
ATOM     25  N   UNL     1      51.087  10.824  13.944  0.00  0.00    +0.000 NA
ATOM     26  C   UNL     1      51.009  10.521  12.692  0.00  0.00    +0.000 A 
ATOM     27  N   UNL     1      50.492   9.348  12.204  0.00  0.00    +0.000 N 
ATOM     28  C   UNL     1      50.018   8.347  13.017  0.00  0.00    +0.000 A 
ATOM     29  O   UNL     1      49.611   7.288  12.549  0.00  0.00    +0.000 OA
ATOM     30  C   UNL     1      50.067   8.647  14.434  0.00  0.00    +0.000 A 
ATOM     31  H   UNL     1      50.471   9.163  11.213  0.00  0.00    +0.000 HD
ENDBRANCH  18  21
ENDBRANCH   1  17
TORSDOF 6
ENDMDL
MODEL 4
REMARK VINA RESULT:    -7.081      3.023      8.600
REMARK INTER + INTRA:         -10.505
REMARK INTER:                  -9.317
REMARK INTRA:                  -1.188
REMARK UNBOUND:                -0.941
REMARK  Name = 
REMARK  6 active torsions:
REMARK  status: ('A' for Active; 'I' for Inactive)
REMARK    1  A    between atoms: C_2  and  C_3
REMARK    2  A    between atoms: C_7  and  C_8
REMARK    3  A    between atoms: C_8  and  C_9
REMARK    4  A    between atoms: C_12  and  C_13
REMARK    5  A    between atoms: C_13  and  N_14
REMARK    6  A    between atoms: C_15  and  C_17
REMARK                            x       y       z     vdW  Elec       q    Type
REMARK                         _______ _______ _______ _____ _____    ______ ____
ROOT
ATOM      1  C   UNL     1      47.472   7.949  11.683  0.00  0.00    +0.000 C 
ENDROOT
BRANCH   1   5
ATOM      2  C   UNL     1      49.433   8.127  15.549  0.00  0.00    +0.000 A 
ATOM      3  C   UNL     1      48.247   8.839  15.318  0.00  0.00    +0.000 A 
ATOM      4  C   UNL     1      47.623   8.805  14.064  0.00  0.00    +0.000 A 
ATOM      5  C   UNL     1      48.169   8.054  13.016  0.00  0.00    +0.000 A 
ATOM      6  C   UNL     1      49.389   7.397  13.229  0.00  0.00    +0.000 A 
ATOM      7  C   UNL     1      50.009   7.424  14.483  0.00  0.00    +0.000 A 
BRANCH   2   8
ATOM      8  C   UNL     1      50.053   8.087  16.928  0.00  0.00    +0.000 C 
BRANCH   8  13
ATOM      9  C   UNL     1      48.635   4.707  18.019  0.00  0.00    +0.000 A 
ATOM     10  C   UNL     1      49.500   4.449  19.069  0.00  0.00    +0.000 A 
ATOM     11  N   UNL     1      50.504   5.277  19.440  0.00  0.00    +0.000 NA
ATOM     12  C   UNL     1      50.641   6.423  18.733  0.00  0.00    +0.000 A 
ATOM     13  C   UNL     1      49.838   6.780  17.652  0.00  0.00    +0.000 A 
ATOM     14  C   UNL     1      48.814   5.891  17.296  0.00  0.00    +0.000 A 
BRANCH   9  16
ATOM     15  N   UNL     1      46.738   3.043  17.443  0.00  0.00    +0.000 NA
ATOM     16  C   UNL     1      47.588   3.787  17.700  0.00  0.00    +0.000 C 
ENDBRANCH   9  16
ENDBRANCH   8  13
ENDBRANCH   2   8
ENDBRANCH   1   5
BRANCH   1  17
ATOM     17  N   UNL     1      46.793   6.687  11.534  0.00  0.00    +0.000 N 
ATOM     18  C   UNL     1      45.423   6.605  11.560  0.00  0.00    +0.000 C 
ATOM     19  O   UNL     1      44.709   7.597  11.671  0.00  0.00    +0.000 OA
ATOM     20  H   UNL     1      47.342   5.851  11.704  0.00  0.00    +0.000 HD
BRANCH  18  21
ATOM     21  C   UNL     1      44.853   5.264  11.380  0.00  0.00    +0.000 A 
ATOM     22  C   UNL     1      44.130   4.675  12.409  0.00  0.00    +0.000 A 
ATOM     23  S   UNL     1      43.496   3.142  12.008  0.00  0.00    +0.000 S 
ATOM     24  C   UNL     1      44.212   3.188  10.465  0.00  0.00    +0.000 A 
ATOM     25  N   UNL     1      44.081   2.148   9.599  0.00  0.00    +0.000 NA
ATOM     26  C   UNL     1      44.698   2.306   8.476  0.00  0.00    +0.000 A 
ATOM     27  N   UNL     1      45.430   3.415   8.136  0.00  0.00    +0.000 N 
ATOM     28  C   UNL     1      45.562   4.503   8.964  0.00  0.00    +0.000 A 
ATOM     29  O   UNL     1      46.179   5.501   8.608  0.00  0.00    +0.000 OA
ATOM     30  C   UNL     1      44.901   4.368  10.248  0.00  0.00    +0.000 A 
ATOM     31  H   UNL     1      45.878   3.484   7.236  0.00  0.00    +0.000 HD
ENDBRANCH  18  21
ENDBRANCH   1  17
TORSDOF 6
ENDMDL
MODEL 5
REMARK VINA RESULT:    -7.017      1.383      1.894
REMARK INTER + INTRA:         -10.419
REMARK INTER:                  -9.379
REMARK INTRA:                  -1.040
REMARK UNBOUND:                -0.941
REMARK  Name = 
REMARK  6 active torsions:
REMARK  status: ('A' for Active; 'I' for Inactive)
REMARK    1  A    between atoms: C_2  and  C_3
REMARK    2  A    between atoms: C_7  and  C_8
REMARK    3  A    between atoms: C_8  and  C_9
REMARK    4  A    between atoms: C_12  and  C_13
REMARK    5  A    between atoms: C_13  and  N_14
REMARK    6  A    between atoms: C_15  and  C_17
REMARK                            x       y       z     vdW  Elec       q    Type
REMARK                         _______ _______ _______ _____ _____    ______ ____
ROOT
ATOM      1  C   UNL     1      49.407   7.424  13.679  0.00  0.00    +0.000 C 
ENDROOT
BRANCH   1   5
ATOM      2  C   UNL     1      45.624   6.349  11.846  0.00  0.00    +0.000 A 
ATOM      3  C   UNL     1      46.083   7.674  11.809  0.00  0.00    +0.000 A 
ATOM      4  C   UNL     1      47.291   8.031  12.421  0.00  0.00    +0.000 A 
ATOM      5  C   UNL     1      48.069   7.070  13.078  0.00  0.00    +0.000 A 
ATOM      6  C   UNL     1      47.577   5.761  13.171  0.00  0.00    +0.000 A 
ATOM      7  C   UNL     1      46.375   5.401  12.554  0.00  0.00    +0.000 A 
BRANCH   2   8
ATOM      8  C   UNL     1      44.369   5.946  11.104  0.00  0.00    +0.000 C 
BRANCH   8  13
ATOM      9  C   UNL     1      45.348   3.417   8.407  0.00  0.00    +0.000 A 
ATOM     10  C   UNL     1      44.683   2.312   8.909  0.00  0.00    +0.000 A 
ATOM     11  N   UNL     1      43.955   2.323  10.050  0.00  0.00    +0.000 NA
ATOM     12  C   UNL     1      43.882   3.500  10.714  0.00  0.00    +0.000 A 
ATOM     13  C   UNL     1      44.517   4.672  10.309  0.00  0.00    +0.000 A 
ATOM     14  C   UNL     1      45.268   4.615   9.126  0.00  0.00    +0.000 A 
BRANCH   9  16
ATOM     15  N   UNL     1      46.678   3.254   6.192  0.00  0.00    +0.000 NA
ATOM     16  C   UNL     1      46.083   3.328   7.185  0.00  0.00    +0.000 C 
ENDBRANCH   9  16
ENDBRANCH   8  13
ENDBRANCH   2   8
ENDBRANCH   1   5
BRANCH   1  17
ATOM     17  N   UNL     1      49.479   7.062  15.071  0.00  0.00    +0.000 N 
ATOM     18  C   UNL     1      48.880   7.826  16.041  0.00  0.00    +0.000 C 
ATOM     19  O   UNL     1      48.223   8.828  15.773  0.00  0.00    +0.000 OA
ATOM     20  H   UNL     1      50.213   6.413  15.337  0.00  0.00    +0.000 HD
BRANCH  18  21
ATOM     21  C   UNL     1      49.012   7.341  17.420  0.00  0.00    +0.000 A 
ATOM     22  C   UNL     1      49.370   8.222  18.433  0.00  0.00    +0.000 A 
ATOM     23  S   UNL     1      49.423   7.500  19.979  0.00  0.00    +0.000 S 
ATOM     24  C   UNL     1      49.026   5.973  19.340  0.00  0.00    +0.000 A 
ATOM     25  N   UNL     1      48.934   4.879  20.142  0.00  0.00    +0.000 NA
ATOM     26  C   UNL     1      48.653   3.783  19.521  0.00  0.00    +0.000 A 
ATOM     27  N   UNL     1      48.447   3.682  18.169  0.00  0.00    +0.000 N 
ATOM     28  C   UNL     1      48.496   4.765  17.325  0.00  0.00    +0.000 A 
ATOM     29  O   UNL     1      48.254   4.648  16.128  0.00  0.00    +0.000 OA
ATOM     30  C   UNL     1      48.827   6.019  17.971  0.00  0.00    +0.000 A 
ATOM     31  H   UNL     1      48.217   2.797  17.745  0.00  0.00    +0.000 HD
ENDBRANCH  18  21
ENDBRANCH   1  17
TORSDOF 6
ENDMDL
MODEL 6
REMARK VINA RESULT:    -6.918      4.927      7.797
REMARK INTER + INTRA:         -10.286
REMARK INTER:                  -9.379
REMARK INTRA:                  -0.907
REMARK UNBOUND:                -0.941
REMARK  Name = 
REMARK  6 active torsions:
REMARK  status: ('A' for Active; 'I' for Inactive)
REMARK    1  A    between atoms: C_2  and  C_3
REMARK    2  A    between atoms: C_7  and  C_8
REMARK    3  A    between atoms: C_8  and  C_9
REMARK    4  A    between atoms: C_12  and  C_13
REMARK    5  A    between atoms: C_13  and  N_14
REMARK    6  A    between atoms: C_15  and  C_17
REMARK                            x       y       z     vdW  Elec       q    Type
REMARK                         _______ _______ _______ _____ _____    ______ ____
ROOT
ATOM      1  C   UNL     1      46.496   8.133  12.767  0.00  0.00    +0.000 C 
ENDROOT
BRANCH   1   5
ATOM      2  C   UNL     1      50.469   9.010  11.261  0.00  0.00    +0.000 A 
ATOM      3  C   UNL     1      49.503  10.021  11.351  0.00  0.00    +0.000 A 
ATOM      4  C   UNL     1      48.210   9.738  11.813  0.00  0.00    +0.000 A 
ATOM      5  C   UNL     1      47.860   8.439  12.199  0.00  0.00    +0.000 A 
ATOM      6  C   UNL     1      48.807   7.417  12.046  0.00  0.00    +0.000 A 
ATOM      7  C   UNL     1      50.099   7.700  11.593  0.00  0.00    +0.000 A 
BRANCH   2   8
ATOM      8  C   UNL     1      51.890   9.334  10.854  0.00  0.00    +0.000 C 
BRANCH   8  13
ATOM      9  C   UNL     1      53.219   6.386   8.812  0.00  0.00    +0.000 A 
ATOM     10  C   UNL     1      54.148   5.908   9.721  0.00  0.00    +0.000 A 
ATOM     11  N   UNL     1      54.379   6.470  10.930  0.00  0.00    +0.000 NA
ATOM     12  C   UNL     1      53.638   7.556  11.249  0.00  0.00    +0.000 A 
ATOM     13  C   UNL     1      52.684   8.129  10.411  0.00  0.00    +0.000 A 
ATOM     14  C   UNL     1      52.481   7.521   9.164  0.00  0.00    +0.000 A 
BRANCH   9  16
ATOM     15  N   UNL     1      52.863   5.188   6.545  0.00  0.00    +0.000 NA
ATOM     16  C   UNL     1      53.024   5.725   7.560  0.00  0.00    +0.000 C 
ENDBRANCH   9  16
ENDBRANCH   8  13
ENDBRANCH   2   8
ENDBRANCH   1   5
BRANCH   1  17
ATOM     17  N   UNL     1      46.058   6.806  12.417  0.00  0.00    +0.000 N 
ATOM     18  C   UNL     1      44.882   6.596  11.742  0.00  0.00    +0.000 C 
ATOM     19  O   UNL     1      44.166   7.521  11.368  0.00  0.00    +0.000 OA
ATOM     20  H   UNL     1      46.478   6.037  12.929  0.00  0.00    +0.000 HD
BRANCH  18  21
ATOM     21  C   UNL     1      44.556   5.198  11.430  0.00  0.00    +0.000 A 
ATOM     22  C   UNL     1      43.812   4.443  12.327  0.00  0.00    +0.000 A 
ATOM     23  S   UNL     1      43.482   2.861  11.779  0.00  0.00    +0.000 S 
ATOM     24  C   UNL     1      44.370   3.112  10.348  0.00  0.00    +0.000 A 
ATOM     25  N   UNL     1      44.513   2.121   9.429  0.00  0.00    +0.000 NA
ATOM     26  C   UNL     1      45.233   2.440   8.406  0.00  0.00    +0.000 A 
ATOM     27  N   UNL     1      45.818   3.666   8.215  0.00  0.00    +0.000 N 
ATOM     28  C   UNL     1      45.673   4.707   9.100  0.00  0.00    +0.000 A 
ATOM     29  O   UNL     1      46.166   5.807   8.872  0.00  0.00    +0.000 OA
ATOM     30  C   UNL     1      44.886   4.394  10.277  0.00  0.00    +0.000 A 
ATOM     31  H   UNL     1      46.360   3.858   7.387  0.00  0.00    +0.000 HD
ENDBRANCH  18  21
ENDBRANCH   1  17
TORSDOF 6
ENDMDL
MODEL 7
REMARK VINA RESULT:    -6.482      3.424      8.928
REMARK INTER + INTRA:          -9.697
REMARK INTER:                  -8.821
REMARK INTRA:                  -0.876
REMARK UNBOUND:                -0.941
REMARK  Name = 
REMARK  6 active torsions:
REMARK  status: ('A' for Active; 'I' for Inactive)
REMARK    1  A    between atoms: C_2  and  C_3
REMARK    2  A    between atoms: C_7  and  C_8
REMARK    3  A    between atoms: C_8  and  C_9
REMARK    4  A    between atoms: C_12  and  C_13
REMARK    5  A    between atoms: C_13  and  N_14
REMARK    6  A    between atoms: C_15  and  C_17
REMARK                            x       y       z     vdW  Elec       q    Type
REMARK                         _______ _______ _______ _____ _____    ______ ____
ROOT
ATOM      1  C   UNL     1      45.272   6.895  11.101  0.00  0.00    +0.000 C 
ENDROOT
BRANCH   1   5
ATOM      2  C   UNL     1      48.393   7.796  13.977  0.00  0.00    +0.000 A 
ATOM      3  C   UNL     1      47.213   8.552  13.946  0.00  0.00    +0.000 A 
ATOM      4  C   UNL     1      46.213   8.282  13.002  0.00  0.00    +0.000 A 
ATOM      5  C   UNL     1      46.369   7.246  12.075  0.00  0.00    +0.000 A 
ATOM      6  C   UNL     1      47.577   6.534  12.064  0.00  0.00    +0.000 A 
ATOM      7  C   UNL     1      48.573   6.798  13.010  0.00  0.00    +0.000 A 
BRANCH   2   8
ATOM      8  C   UNL     1      49.430   8.025  15.055  0.00  0.00    +0.000 C 
BRANCH   8  13
ATOM      9  C   UNL     1      48.505   5.003  17.208  0.00  0.00    +0.000 A 
ATOM     10  C   UNL     1      49.534   5.084  18.131  0.00  0.00    +0.000 A 
ATOM     11  N   UNL     1      50.501   6.031  18.101  0.00  0.00    +0.000 NA
ATOM     12  C   UNL     1      50.427   6.946  17.107  0.00  0.00    +0.000 A 
ATOM     13  C   UNL     1      49.444   6.956  16.120  0.00  0.00    +0.000 A 
ATOM     14  C   UNL     1      48.466   5.953  16.182  0.00  0.00    +0.000 A 
BRANCH   9  16
ATOM     15  N   UNL     1      46.708   3.150  17.406  0.00  0.00    +0.000 NA
ATOM     16  C   UNL     1      47.512   3.981  17.318  0.00  0.00    +0.000 C 
ENDBRANCH   9  16
ENDBRANCH   8  13
ENDBRANCH   2   8
ENDBRANCH   1   5
BRANCH   1  17
ATOM     17  N   UNL     1      45.521   5.636  10.446  0.00  0.00    +0.000 N 
ATOM     18  C   UNL     1      44.494   4.790  10.109  0.00  0.00    +0.000 C 
ATOM     19  O   UNL     1      43.317   5.076  10.309  0.00  0.00    +0.000 OA
ATOM     20  H   UNL     1      46.464   5.268  10.509  0.00  0.00    +0.000 HD
BRANCH  18  21
ATOM     21  C   UNL     1      44.878   3.546   9.431  0.00  0.00    +0.000 A 
ATOM     22  C   UNL     1      44.243   2.354   9.757  0.00  0.00    +0.000 A 
ATOM     23  S   UNL     1      44.776   1.021   8.835  0.00  0.00    +0.000 S 
ATOM     24  C   UNL     1      45.914   1.979   8.007  0.00  0.00    +0.000 A 
ATOM     25  N   UNL     1      46.740   1.436   7.073  0.00  0.00    +0.000 NA
ATOM     26  C   UNL     1      47.571   2.271   6.545  0.00  0.00    +0.000 A 
ATOM     27  N   UNL     1      47.646   3.604   6.860  0.00  0.00    +0.000 N 
ATOM     28  C   UNL     1      46.809   4.202   7.771  0.00  0.00    +0.000 A 
ATOM     29  O   UNL     1      46.868   5.408   7.991  0.00  0.00    +0.000 OA
ATOM     30  C   UNL     1      45.868   3.302   8.408  0.00  0.00    +0.000 A 
ATOM     31  H   UNL     1      48.309   4.209   6.401  0.00  0.00    +0.000 HD
ENDBRANCH  18  21
ENDBRANCH   1  17
TORSDOF 6
ENDMDL
MODEL 8
REMARK VINA RESULT:    -6.279      3.676      8.434
REMARK INTER + INTRA:          -9.422
REMARK INTER:                  -8.281
REMARK INTRA:                  -1.142
REMARK UNBOUND:                -0.941
REMARK  Name = 
REMARK  6 active torsions:
REMARK  status: ('A' for Active; 'I' for Inactive)
REMARK    1  A    between atoms: C_2  and  C_3
REMARK    2  A    between atoms: C_7  and  C_8
REMARK    3  A    between atoms: C_8  and  C_9
REMARK    4  A    between atoms: C_12  and  C_13
REMARK    5  A    between atoms: C_13  and  N_14
REMARK    6  A    between atoms: C_15  and  C_17
REMARK                            x       y       z     vdW  Elec       q    Type
REMARK                         _______ _______ _______ _____ _____    ______ ____
ROOT
ATOM      1  C   UNL     1      48.343   8.921  14.709  0.00  0.00    +0.000 C 
ENDROOT
BRANCH   1   5
ATOM      2  C   UNL     1      50.882   7.299  17.831  0.00  0.00    +0.000 A 
ATOM      3  C   UNL     1      49.503   7.441  18.037  0.00  0.00    +0.000 A 
ATOM      4  C   UNL     1      48.682   7.988  17.041  0.00  0.00    +0.000 A 
ATOM      5  C   UNL     1      49.223   8.399  15.817  0.00  0.00    +0.000 A 
ATOM      6  C   UNL     1      50.611   8.317  15.639  0.00  0.00    +0.000 A 
ATOM      7  C   UNL     1      51.430   7.765  16.629  0.00  0.00    +0.000 A 
BRANCH   2   8
ATOM      8  C   UNL     1      51.752   6.622  18.867  0.00  0.00    +0.000 C 
BRANCH   8  13
ATOM      9  C   UNL     1      51.313   3.025  17.642  0.00  0.00    +0.000 A 
ATOM     10  C   UNL     1      52.428   2.466  18.242  0.00  0.00    +0.000 A 
ATOM     11  N   UNL     1      53.308   3.162  19.000  0.00  0.00    +0.000 NA
ATOM     12  C   UNL     1      53.052   4.480  19.172  0.00  0.00    +0.000 A 
ATOM     13  C   UNL     1      51.969   5.151  18.609  0.00  0.00    +0.000 A 
ATOM     14  C   UNL     1      51.086   4.394  17.826  0.00  0.00    +0.000 A 
BRANCH   9  16
ATOM     15  N   UNL     1      49.702   1.562  16.241  0.00  0.00    +0.000 NA
ATOM     16  C   UNL     1      50.423   2.217  16.870  0.00  0.00    +0.000 C 
ENDBRANCH   9  16
ENDBRANCH   8  13
ENDBRANCH   2   8
ENDBRANCH   1   5
BRANCH   1  17
ATOM     17  N   UNL     1      47.399   7.929  14.264  0.00  0.00    +0.000 N 
ATOM     18  C   UNL     1      47.785   6.884  13.462  0.00  0.00    +0.000 C 
ATOM     19  O   UNL     1      48.951   6.718  13.117  0.00  0.00    +0.000 OA
ATOM     20  H   UNL     1      46.417   8.180  14.310  0.00  0.00    +0.000 HD
BRANCH  18  21
ATOM     21  C   UNL     1      46.731   5.931  13.091  0.00  0.00    +0.000 A 
ATOM     22  C   UNL     1      46.888   4.580  13.373  0.00  0.00    +0.000 A 
ATOM     23  S   UNL     1      45.545   3.628  12.922  0.00  0.00    +0.000 S 
ATOM     24  C   UNL     1      44.731   4.979  12.284  0.00  0.00    +0.000 A 
ATOM     25  N   UNL     1      43.509   4.852  11.703  0.00  0.00    +0.000 NA
ATOM     26  C   UNL     1      43.020   5.952  11.238  0.00  0.00    +0.000 A 
ATOM     27  N   UNL     1      43.641   7.173  11.308  0.00  0.00    +0.000 N 
ATOM     28  C   UNL     1      44.860   7.356  11.915  0.00  0.00    +0.000 A 
ATOM     29  O   UNL     1      45.363   8.471  12.007  0.00  0.00    +0.000 OA
ATOM     30  C   UNL     1      45.461   6.145  12.438  0.00  0.00    +0.000 A 
ATOM     31  H   UNL     1      43.201   8.001  10.936  0.00  0.00    +0.000 HD
ENDBRANCH  18  21
ENDBRANCH   1  17
TORSDOF 6
ENDMDL
MODEL 9
REMARK VINA RESULT:    -6.206      4.693      8.762
REMARK INTER + INTRA:          -9.323
REMARK INTER:                  -8.150
REMARK INTRA:                  -1.173
REMARK UNBOUND:                -0.941
REMARK  Name = 
REMARK  6 active torsions:
REMARK  status: ('A' for Active; 'I' for Inactive)
REMARK    1  A    between atoms: C_2  and  C_3
REMARK    2  A    between atoms: C_7  and  C_8
REMARK    3  A    between atoms: C_8  and  C_9
REMARK    4  A    between atoms: C_12  and  C_13
REMARK    5  A    between atoms: C_13  and  N_14
REMARK    6  A    between atoms: C_15  and  C_17
REMARK                            x       y       z     vdW  Elec       q    Type
REMARK                         _______ _______ _______ _____ _____    ______ ____
ROOT
ATOM      1  C   UNL     1      44.306   3.655  11.900  0.00  0.00    +0.000 C 
ENDROOT
BRANCH   1   5
ATOM      2  C   UNL     1      46.924   6.660  13.614  0.00  0.00    +0.000 A 
ATOM      3  C   UNL     1      47.162   5.297  13.838  0.00  0.00    +0.000 A 
ATOM      4  C   UNL     1      46.305   4.323  13.308  0.00  0.00    +0.000 A 
ATOM      5  C   UNL     1      45.196   4.693  12.538  0.00  0.00    +0.000 A 
ATOM      6  C   UNL     1      44.922   6.057  12.371  0.00  0.00    +0.000 A 
ATOM      7  C   UNL     1      45.781   7.030  12.893  0.00  0.00    +0.000 A 
BRANCH   2   8
ATOM      8  C   UNL     1      47.901   7.706  14.105  0.00  0.00    +0.000 C 
BRANCH   8  13
ATOM      9  C   UNL     1      50.484   8.205  11.329  0.00  0.00    +0.000 A 
ATOM     10  C   UNL     1      50.241   9.541  11.059  0.00  0.00    +0.000 A 
ATOM     11  N   UNL     1      49.306  10.282  11.698  0.00  0.00    +0.000 NA
ATOM     12  C   UNL     1      48.587   9.658  12.659  0.00  0.00    +0.000 A 
ATOM     13  C   UNL     1      48.737   8.317  13.007  0.00  0.00    +0.000 A 
ATOM     14  C   UNL     1      49.712   7.583  12.316  0.00  0.00    +0.000 A 
BRANCH   9  16
ATOM     15  N   UNL     1      52.327   6.921  10.042  0.00  0.00    +0.000 NA
ATOM     16  C   UNL     1      51.502   7.496  10.620  0.00  0.00    +0.000 C 
ENDBRANCH   9  16
ENDBRANCH   8  13
ENDBRANCH   2   8
ENDBRANCH   1   5
BRANCH   1  17
ATOM     17  N   UNL     1      45.014   2.873  10.920  0.00  0.00    +0.000 N 
ATOM     18  C   UNL     1      44.683   2.924   9.589  0.00  0.00    +0.000 C 
ATOM     19  O   UNL     1      43.799   3.662   9.161  0.00  0.00    +0.000 OA
ATOM     20  H   UNL     1      45.550   2.084  11.266  0.00  0.00    +0.000 HD
BRANCH  18  21
ATOM     21  C   UNL     1      45.492   2.093   8.689  0.00  0.00    +0.000 A 
ATOM     22  C   UNL     1      45.397   0.709   8.751  0.00  0.00    +0.000 A 
ATOM     23  S   UNL     1      46.366  -0.094   7.598  0.00  0.00    +0.000 S 
ATOM     24  C   UNL     1      46.988   1.378   7.013  0.00  0.00    +0.000 A 
ATOM     25  N   UNL     1      47.912   1.402   6.017  0.00  0.00    +0.000 NA
ATOM     26  C   UNL     1      48.317   2.584   5.691  0.00  0.00    +0.000 A 
ATOM     27  N   UNL     1      47.874   3.747   6.267  0.00  0.00    +0.000 N 
ATOM     28  C   UNL     1      46.918   3.773   7.253  0.00  0.00    +0.000 A 
ATOM     29  O   UNL     1      46.506   4.835   7.710  0.00  0.00    +0.000 OA
ATOM     30  C   UNL     1      46.443   2.468   7.669  0.00  0.00    +0.000 A 
ATOM     31  H   UNL     1      48.220   4.642   5.959  0.00  0.00    +0.000 HD
ENDBRANCH  18  21
ENDBRANCH   1  17
TORSDOF 6
ENDMDL
