MODEL 1
REMARK VINA RESULT:    -8.775      0.000      0.000
REMARK INTER + INTRA:         -13.373
REMARK INTER:                 -12.366
REMARK INTRA:                  -1.007
REMARK UNBOUND:                -1.007
REMARK  Name = 
REMARK  8 active torsions:
REMARK  status: ('A' for Active; 'I' for Inactive)
REMARK    1  A    between atoms: C_1  and  C_2
REMARK    2  A    between atoms: C_5  and  C_6
REMARK    3  A    between atoms: C_6  and  N_7
REMARK    4  A    between atoms: N_7  and  C_8
REMARK    5  A    between atoms: C_8  and  C_9
REMARK    6  A    between atoms: C_12  and  C_13
REMARK    7  A    between atoms: C_13  and  N_14
REMARK    8  A    between atoms: C_15  and  C_17
REMARK                            x       y       z     vdW  Elec       q    Type
REMARK                         _______ _______ _______ _____ _____    ______ ____
ROOT
ATOM      1  C   UNL     1      44.677   4.717  12.086  0.00  0.00    +0.000 A 
ATOM      2  C   UNL     1      45.311   5.773  11.430  0.00  0.00    +0.000 A 
ATOM      3  C   UNL     1      46.468   6.326  11.980  0.00  0.00    +0.000 A 
ATOM      4  C   UNL     1      46.973   5.821  13.178  0.00  0.00    +0.000 A 
ATOM      5  C   UNL     1      46.258   4.788  13.778  0.00  0.00    +0.000 A 
ATOM      6  N   UNL     1      45.132   4.230  13.267  0.00  0.00    +0.000 NA
ENDROOT
BRANCH   1   7
ATOM      7  C   UNL     1      43.434   4.084  11.478  0.00  0.00    +0.000 C 
BRANCH   7   8
ATOM      8  N   UNL     1      43.645   3.683  10.079  0.00  0.00    +0.000 NA
ATOM      9  H   UNL     1      42.747   3.587   9.610  0.00  0.00    +0.000 HD
BRANCH   8  10
ATOM     10  C   UNL     1      44.362   2.417   9.969  0.00  0.00    +0.000 C 
BRANCH  10  15
ATOM     11  C   UNL     1      47.913   2.451   5.334  0.00  0.00    +0.000 C 
ATOM     12  C   UNL     1      47.012   2.456   6.533  0.00  0.00    +0.000 A 
ATOM     13  C   UNL     1      46.338   3.618   6.923  0.00  0.00    +0.000 A 
ATOM     14  C   UNL     1      45.492   3.607   8.036  0.00  0.00    +0.000 A 
ATOM     15  C   UNL     1      45.296   2.434   8.777  0.00  0.00    +0.000 A 
ATOM     16  C   UNL     1      45.981   1.274   8.390  0.00  0.00    +0.000 A 
ATOM     17  C   UNL     1      46.832   1.286   7.281  0.00  0.00    +0.000 A 
ENDBRANCH  10  15
ENDBRANCH   8  10
ENDBRANCH   7   8
ENDBRANCH   1   7
BRANCH   4  18
ATOM     18  C   UNL     1      48.206   6.377  13.830  0.00  0.00    +0.000 C 
BRANCH  18  19
ATOM     19  N   UNL     1      47.998   6.601  15.238  0.00  0.00    +0.000 N 
ATOM     20  C   UNL     1      49.018   6.493  16.150  0.00  0.00    +0.000 C 
ATOM     21  O   UNL     1      50.169   6.219  15.818  0.00  0.00    +0.000 OA
ATOM     22  H   UNL     1      47.045   6.526  15.575  0.00  0.00    +0.000 HD
BRANCH  20  23
ATOM     23  C   UNL     1      48.666   6.782  17.543  0.00  0.00    +0.000 A 
ATOM     24  C   UNL     1      48.355   8.079  17.931  0.00  0.00    +0.000 A 
ATOM     25  S   UNL     1      47.923   8.214  19.578  0.00  0.00    +0.000 S 
ATOM     26  C   UNL     1      48.186   6.554  19.842  0.00  0.00    +0.000 A 
ATOM     27  N   UNL     1      48.022   6.004  21.075  0.00  0.00    +0.000 NA
ATOM     28  C   UNL     1      48.290   4.741  21.135  0.00  0.00    +0.000 A 
ATOM     29  N   UNL     1      48.694   3.974  20.073  0.00  0.00    +0.000 N 
ATOM     30  C   UNL     1      48.828   4.478  18.801  0.00  0.00    +0.000 A 
ATOM     31  O   UNL     1      49.114   3.752  17.857  0.00  0.00    +0.000 OA
ATOM     32  C   UNL     1      48.571   5.901  18.685  0.00  0.00    +0.000 A 
ATOM     33  H   UNL     1      48.864   2.987  20.180  0.00  0.00    +0.000 HD
ENDBRANCH  20  23
ENDBRANCH  18  19
ENDBRANCH   4  18
TORSDOF 7
ENDMDL
MODEL 2
REMARK VINA RESULT:    -8.523      1.613      2.087
REMARK INTER + INTRA:         -13.018
REMARK INTER:                 -12.104
REMARK INTRA:                  -0.915
REMARK UNBOUND:                -1.007
REMARK  Name = 
REMARK  8 active torsions:
REMARK  status: ('A' for Active; 'I' for Inactive)
REMARK    1  A    between atoms: C_1  and  C_2
REMARK    2  A    between atoms: C_5  and  C_6
REMARK    3  A    between atoms: C_6  and  N_7
REMARK    4  A    between atoms: N_7  and  C_8
REMARK    5  A    between atoms: C_8  and  C_9
REMARK    6  A    between atoms: C_12  and  C_13
REMARK    7  A    between atoms: C_13  and  N_14
REMARK    8  A    between atoms: C_15  and  C_17
REMARK                            x       y       z     vdW  Elec       q    Type
REMARK                         _______ _______ _______ _____ _____    ______ ____
ROOT
ATOM      1  C   UNL     1      44.290   6.038  11.712  0.00  0.00    +0.000 A 
ATOM      2  C   UNL     1      45.104   5.334  12.598  0.00  0.00    +0.000 A 
ATOM      3  C   UNL     1      46.168   5.989  13.221  0.00  0.00    +0.000 A 
ATOM      4  C   UNL     1      46.405   7.336  12.946  0.00  0.00    +0.000 A 
ATOM      5  C   UNL     1      45.560   7.949  12.026  0.00  0.00    +0.000 A 
ATOM      6  N   UNL     1      44.519   7.339  11.407  0.00  0.00    +0.000 NA
ENDROOT
BRANCH   1   7
ATOM      7  C   UNL     1      43.106   5.343  11.054  0.00  0.00    +0.000 C 
BRANCH   7   8
ATOM      8  N   UNL     1      43.480   4.691   9.791  0.00  0.00    +0.000 NA
ATOM      9  H   UNL     1      42.659   4.597   9.197  0.00  0.00    +0.000 HD
BRANCH   8  10
ATOM     10  C   UNL     1      44.050   3.365  10.003  0.00  0.00    +0.000 C 
BRANCH  10  15
ATOM     11  C   UNL     1      48.046   2.163   5.918  0.00  0.00    +0.000 C 
ATOM     12  C   UNL     1      47.007   2.460   6.959  0.00  0.00    +0.000 A 
ATOM     13  C   UNL     1      46.515   1.450   7.792  0.00  0.00    +0.000 A 
ATOM     14  C   UNL     1      45.555   1.740   8.765  0.00  0.00    +0.000 A 
ATOM     15  C   UNL     1      45.074   3.046   8.933  0.00  0.00    +0.000 A 
ATOM     16  C   UNL     1      45.562   4.053   8.088  0.00  0.00    +0.000 A 
ATOM     17  C   UNL     1      46.517   3.762   7.111  0.00  0.00    +0.000 A 
ENDBRANCH  10  15
ENDBRANCH   8  10
ENDBRANCH   7   8
ENDBRANCH   1   7
BRANCH   4  18
ATOM     18  C   UNL     1      47.538   8.098  13.572  0.00  0.00    +0.000 C 
BRANCH  18  19
ATOM     19  N   UNL     1      47.888   7.552  14.858  0.00  0.00    +0.000 N 
ATOM     20  C   UNL     1      49.150   7.090  15.133  0.00  0.00    +0.000 C 
ATOM     21  O   UNL     1      50.059   7.133  14.306  0.00  0.00    +0.000 OA
ATOM     22  H   UNL     1      47.123   7.227  15.438  0.00  0.00    +0.000 HD
BRANCH  20  23
ATOM     23  C   UNL     1      49.370   6.595  16.494  0.00  0.00    +0.000 A 
ATOM     24  C   UNL     1      50.111   7.343  17.400  0.00  0.00    +0.000 A 
ATOM     25  S   UNL     1      50.218   6.630  18.949  0.00  0.00    +0.000 S 
ATOM     26  C   UNL     1      49.322   5.273  18.449  0.00  0.00    +0.000 A 
ATOM     27  N   UNL     1      49.070   4.244  19.301  0.00  0.00    +0.000 NA
ATOM     28  C   UNL     1      48.410   3.265  18.776  0.00  0.00    +0.000 A 
ATOM     29  N   UNL     1      47.966   3.227  17.480  0.00  0.00    +0.000 N 
ATOM     30  C   UNL     1      48.156   4.263  16.597  0.00  0.00    +0.000 A 
ATOM     31  O   UNL     1      47.679   4.234  15.469  0.00  0.00    +0.000 OA
ATOM     32  C   UNL     1      48.924   5.374  17.128  0.00  0.00    +0.000 A 
ATOM     33  H   UNL     1      47.432   2.443  17.136  0.00  0.00    +0.000 HD
ENDBRANCH  20  23
ENDBRANCH  18  19
ENDBRANCH   4  18
TORSDOF 7
ENDMDL
MODEL 3
REMARK VINA RESULT:    -8.221      1.374      2.292
REMARK INTER + INTRA:         -12.593
REMARK INTER:                 -11.634
REMARK INTRA:                  -0.959
REMARK UNBOUND:                -1.007
REMARK  Name = 
REMARK  8 active torsions:
REMARK  status: ('A' for Active; 'I' for Inactive)
REMARK    1  A    between atoms: C_1  and  C_2
REMARK    2  A    between atoms: C_5  and  C_6
REMARK    3  A    between atoms: C_6  and  N_7
REMARK    4  A    between atoms: N_7  and  C_8
REMARK    5  A    between atoms: C_8  and  C_9
REMARK    6  A    between atoms: C_12  and  C_13
REMARK    7  A    between atoms: C_13  and  N_14
REMARK    8  A    between atoms: C_15  and  C_17
REMARK                            x       y       z     vdW  Elec       q    Type
REMARK                         _______ _______ _______ _____ _____    ______ ____
ROOT
ATOM      1  C   UNL     1      44.553   4.975  11.940  0.00  0.00    +0.000 A 
ATOM      2  C   UNL     1      45.110   4.242  12.987  0.00  0.00    +0.000 A 
ATOM      3  C   UNL     1      46.223   4.746  13.661  0.00  0.00    +0.000 A 
ATOM      4  C   UNL     1      46.765   5.972  13.278  0.00  0.00    +0.000 A 
ATOM      5  C   UNL     1      46.163   6.619  12.203  0.00  0.00    +0.000 A 
ATOM      6  N   UNL     1      45.082   6.155  11.530  0.00  0.00    +0.000 NA
ENDROOT
BRANCH   1   7
ATOM      7  C   UNL     1      43.318   4.451  11.220  0.00  0.00    +0.000 C 
BRANCH   7   8
ATOM      8  N   UNL     1      43.624   3.997   9.855  0.00  0.00    +0.000 NA
ATOM      9  H   UNL     1      42.768   3.950   9.309  0.00  0.00    +0.000 HD
BRANCH   8  10
ATOM     10  C   UNL     1      44.254   2.680   9.841  0.00  0.00    +0.000 C 
BRANCH  10  15
ATOM     11  C   UNL     1      48.082   2.289   5.449  0.00  0.00    +0.000 C 
ATOM     12  C   UNL     1      47.088   2.375   6.570  0.00  0.00    +0.000 A 
ATOM     13  C   UNL     1      46.870   1.289   7.424  0.00  0.00    +0.000 A 
ATOM     14  C   UNL     1      45.949   1.385   8.471  0.00  0.00    +0.000 A 
ATOM     15  C   UNL     1      45.234   2.570   8.692  0.00  0.00    +0.000 A 
ATOM     16  C   UNL     1      45.447   3.652   7.828  0.00  0.00    +0.000 A 
ATOM     17  C   UNL     1      46.363   3.555   6.777  0.00  0.00    +0.000 A 
ENDBRANCH  10  15
ENDBRANCH   8  10
ENDBRANCH   7   8
ENDBRANCH   1   7
BRANCH   4  18
ATOM     18  C   UNL     1      47.968   6.567  13.953  0.00  0.00    +0.000 C 
BRANCH  18  19
ATOM     19  N   UNL     1      47.935   6.341  15.375  0.00  0.00    +0.000 N 
ATOM     20  C   UNL     1      49.079   6.300  16.132  0.00  0.00    +0.000 C 
ATOM     21  O   UNL     1      50.194   6.471  15.645  0.00  0.00    +0.000 OA
ATOM     22  H   UNL     1      47.099   5.905  15.747  0.00  0.00    +0.000 HD
BRANCH  20  23
ATOM     23  C   UNL     1      48.889   6.096  17.570  0.00  0.00    +0.000 A 
ATOM     24  C   UNL     1      49.212   4.877  18.153  0.00  0.00    +0.000 A 
ATOM     25  S   UNL     1      48.971   4.843  19.844  0.00  0.00    +0.000 S 
ATOM     26  C   UNL     1      48.378   6.437  19.849  0.00  0.00    +0.000 A 
ATOM     27  N   UNL     1      47.955   7.026  20.999  0.00  0.00    +0.000 NA
ATOM     28  C   UNL     1      47.498   8.225  20.848  0.00  0.00    +0.000 A 
ATOM     29  N   UNL     1      47.437   8.896  19.654  0.00  0.00    +0.000 N 
ATOM     30  C   UNL     1      47.896   8.358  18.475  0.00  0.00    +0.000 A 
ATOM     31  O   UNL     1      47.902   9.010  17.438  0.00  0.00    +0.000 OA
ATOM     32  C   UNL     1      48.389   6.997  18.585  0.00  0.00    +0.000 A 
ATOM     33  H   UNL     1      47.092   9.841  19.606  0.00  0.00    +0.000 HD
ENDBRANCH  20  23
ENDBRANCH  18  19
ENDBRANCH   4  18
TORSDOF 7
ENDMDL
MODEL 4
REMARK VINA RESULT:    -8.056      1.707      2.787
REMARK INTER + INTRA:         -12.360
REMARK INTER:                 -11.510
REMARK INTRA:                  -0.850
REMARK UNBOUND:                -1.007
REMARK  Name = 
REMARK  8 active torsions:
REMARK  status: ('A' for Active; 'I' for Inactive)
REMARK    1  A    between atoms: C_1  and  C_2
REMARK    2  A    between atoms: C_5  and  C_6
REMARK    3  A    between atoms: C_6  and  N_7
REMARK    4  A    between atoms: N_7  and  C_8
REMARK    5  A    between atoms: C_8  and  C_9
REMARK    6  A    between atoms: C_12  and  C_13
REMARK    7  A    between atoms: C_13  and  N_14
REMARK    8  A    between atoms: C_15  and  C_17
REMARK                            x       y       z     vdW  Elec       q    Type
REMARK                         _______ _______ _______ _____ _____    ______ ____
ROOT
ATOM      1  C   UNL     1      44.533   5.627  11.963  0.00  0.00    +0.000 A 
ATOM      2  C   UNL     1      45.638   6.429  11.682  0.00  0.00    +0.000 A 
ATOM      3  C   UNL     1      46.783   6.322  12.473  0.00  0.00    +0.000 A 
ATOM      4  C   UNL     1      46.806   5.417  13.534  0.00  0.00    +0.000 A 
ATOM      5  C   UNL     1      45.647   4.680  13.760  0.00  0.00    +0.000 A 
ATOM      6  N   UNL     1      44.521   4.763  13.008  0.00  0.00    +0.000 NA
ENDROOT
BRANCH   1   7
ATOM      7  C   UNL     1      43.291   5.712  11.087  0.00  0.00    +0.000 C 
BRANCH   7   8
ATOM      8  N   UNL     1      43.396   4.858   9.895  0.00  0.00    +0.000 NA
ATOM      9  H   UNL     1      42.469   4.694   9.508  0.00  0.00    +0.000 HD
BRANCH   8  10
ATOM     10  C   UNL     1      44.007   3.567  10.193  0.00  0.00    +0.000 C 
BRANCH  10  15
ATOM     11  C   UNL     1      47.862   2.124   6.052  0.00  0.00    +0.000 C 
ATOM     12  C   UNL     1      46.886   2.505   7.125  0.00  0.00    +0.000 A 
ATOM     13  C   UNL     1      46.519   3.841   7.322  0.00  0.00    +0.000 A 
ATOM     14  C   UNL     1      45.600   4.183   8.318  0.00  0.00    +0.000 A 
ATOM     15  C   UNL     1      45.021   3.198   9.130  0.00  0.00    +0.000 A 
ATOM     16  C   UNL     1      45.399   1.862   8.936  0.00  0.00    +0.000 A 
ATOM     17  C   UNL     1      46.323   1.520   7.945  0.00  0.00    +0.000 A 
ENDBRANCH  10  15
ENDBRANCH   8  10
ENDBRANCH   7   8
ENDBRANCH   1   7
BRANCH   4  18
ATOM     18  C   UNL     1      48.000   5.258  14.431  0.00  0.00    +0.000 C 
BRANCH  18  19
ATOM     19  N   UNL     1      47.916   6.130  15.574  0.00  0.00    +0.000 N 
ATOM     20  C   UNL     1      48.884   6.150  16.546  0.00  0.00    +0.000 C 
ATOM     21  O   UNL     1      49.887   5.441  16.489  0.00  0.00    +0.000 OA
ATOM     22  H   UNL     1      46.996   6.487  15.807  0.00  0.00    +0.000 HD
BRANCH  20  23
ATOM     23  C   UNL     1      48.682   7.112  17.633  0.00  0.00    +0.000 A 
ATOM     24  C   UNL     1      48.720   6.692  18.956  0.00  0.00    +0.000 A 
ATOM     25  S   UNL     1      48.513   7.959  20.082  0.00  0.00    +0.000 S 
ATOM     26  C   UNL     1      48.315   9.106  18.842  0.00  0.00    +0.000 A 
ATOM     27  N   UNL     1      48.067  10.413  19.125  0.00  0.00    +0.000 NA
ATOM     28  C   UNL     1      47.903  11.162  18.085  0.00  0.00    +0.000 A 
ATOM     29  N   UNL     1      47.978  10.728  16.787  0.00  0.00    +0.000 N 
ATOM     30  C   UNL     1      48.271   9.427  16.453  0.00  0.00    +0.000 A 
ATOM     31  O   UNL     1      48.409   9.086  15.285  0.00  0.00    +0.000 OA
ATOM     32  C   UNL     1      48.431   8.536  17.587  0.00  0.00    +0.000 A 
ATOM     33  H   UNL     1      47.865  11.370  16.018  0.00  0.00    +0.000 HD
ENDBRANCH  20  23
ENDBRANCH  18  19
ENDBRANCH   4  18
TORSDOF 7
ENDMDL
MODEL 5
REMARK VINA RESULT:    -7.952      2.231      2.647
REMARK INTER + INTRA:         -12.213
REMARK INTER:                 -11.163
REMARK INTRA:                  -1.050
REMARK UNBOUND:                -1.007
REMARK  Name = 
REMARK  8 active torsions:
REMARK  status: ('A' for Active; 'I' for Inactive)
REMARK    1  A    between atoms: C_1  and  C_2
REMARK    2  A    between atoms: C_5  and  C_6
REMARK    3  A    between atoms: C_6  and  N_7
REMARK    4  A    between atoms: N_7  and  C_8
REMARK    5  A    between atoms: C_8  and  C_9
REMARK    6  A    between atoms: C_12  and  C_13
REMARK    7  A    between atoms: C_13  and  N_14
REMARK    8  A    between atoms: C_15  and  C_17
REMARK                            x       y       z     vdW  Elec       q    Type
REMARK                         _______ _______ _______ _____ _____    ______ ____
ROOT
ATOM      1  C   UNL     1      44.931   4.860  12.837  0.00  0.00    +0.000 A 
ATOM      2  C   UNL     1      46.222   4.440  13.156  0.00  0.00    +0.000 A 
ATOM      3  C   UNL     1      47.233   5.390  13.316  0.00  0.00    +0.000 A 
ATOM      4  C   UNL     1      46.939   6.743  13.153  0.00  0.00    +0.000 A 
ATOM      5  C   UNL     1      45.631   7.067  12.805  0.00  0.00    +0.000 A 
ATOM      6  N   UNL     1      44.630   6.167  12.643  0.00  0.00    +0.000 NA
ENDROOT
BRANCH   1   7
ATOM      7  C   UNL     1      43.815   3.835  12.692  0.00  0.00    +0.000 C 
BRANCH   7   8
ATOM      8  N   UNL     1      44.025   2.946  11.540  0.00  0.00    +0.000 NA
ATOM      9  H   UNL     1      44.981   2.598  11.545  0.00  0.00    +0.000 HD
BRANCH   8  10
ATOM     10  C   UNL     1      43.786   3.623  10.270  0.00  0.00    +0.000 C 
BRANCH  10  15
ATOM     11  C   UNL     1      47.792   2.109   6.302  0.00  0.00    +0.000 C 
ATOM     12  C   UNL     1      46.776   2.509   7.330  0.00  0.00    +0.000 A 
ATOM     13  C   UNL     1      46.402   3.847   7.490  0.00  0.00    +0.000 A 
ATOM     14  C   UNL     1      45.447   4.207   8.445  0.00  0.00    +0.000 A 
ATOM     15  C   UNL     1      44.838   3.236   9.252  0.00  0.00    +0.000 A 
ATOM     16  C   UNL     1      45.222   1.897   9.096  0.00  0.00    +0.000 A 
ATOM     17  C   UNL     1      46.183   1.538   8.146  0.00  0.00    +0.000 A 
ENDBRANCH  10  15
ENDBRANCH   8  10
ENDBRANCH   7   8
ENDBRANCH   1   7
BRANCH   4  18
ATOM     18  C   UNL     1      47.980   7.816  13.301  0.00  0.00    +0.000 C 
BRANCH  18  19
ATOM     19  N   UNL     1      49.152   7.319  13.973  0.00  0.00    +0.000 N 
ATOM     20  C   UNL     1      49.383   7.557  15.305  0.00  0.00    +0.000 C 
ATOM     21  O   UNL     1      48.595   8.190  16.005  0.00  0.00    +0.000 OA
ATOM     22  H   UNL     1      49.942   7.071  13.388  0.00  0.00    +0.000 HD
BRANCH  20  23
ATOM     23  C   UNL     1      50.600   6.960  15.862  0.00  0.00    +0.000 A 
ATOM     24  C   UNL     1      51.847   7.476  15.533  0.00  0.00    +0.000 A 
ATOM     25  S   UNL     1      53.143   6.685  16.314  0.00  0.00    +0.000 S 
ATOM     26  C   UNL     1      52.088   5.592  17.080  0.00  0.00    +0.000 A 
ATOM     27  N   UNL     1      52.562   4.607  17.889  0.00  0.00    +0.000 NA
ATOM     28  C   UNL     1      51.650   3.830  18.374  0.00  0.00    +0.000 A 
ATOM     29  N   UNL     1      50.306   3.955  18.136  0.00  0.00    +0.000 N 
ATOM     30  C   UNL     1      49.778   4.962  17.363  0.00  0.00    +0.000 A 
ATOM     31  O   UNL     1      48.568   5.095  17.232  0.00  0.00    +0.000 OA
ATOM     32  C   UNL     1      50.765   5.844  16.766  0.00  0.00    +0.000 A 
ATOM     33  H   UNL     1      49.642   3.330  18.565  0.00  0.00    +0.000 HD
ENDBRANCH  20  23
ENDBRANCH  18  19
ENDBRANCH   4  18
TORSDOF 7
ENDMDL
MODEL 6
REMARK VINA RESULT:    -7.527      2.162      2.847
REMARK INTER + INTRA:         -11.614
REMARK INTER:                 -10.826
REMARK INTRA:                  -0.788
REMARK UNBOUND:                -1.007
REMARK  Name = 
REMARK  8 active torsions:
REMARK  status: ('A' for Active; 'I' for Inactive)
REMARK    1  A    between atoms: C_1  and  C_2
REMARK    2  A    between atoms: C_5  and  C_6
REMARK    3  A    between atoms: C_6  and  N_7
REMARK    4  A    between atoms: N_7  and  C_8
REMARK    5  A    between atoms: C_8  and  C_9
REMARK    6  A    between atoms: C_12  and  C_13
REMARK    7  A    between atoms: C_13  and  N_14
REMARK    8  A    between atoms: C_15  and  C_17
REMARK                            x       y       z     vdW  Elec       q    Type
REMARK                         _______ _______ _______ _____ _____    ______ ____
ROOT
ATOM      1  C   UNL     1      44.280   5.015  11.540  0.00  0.00    +0.000 A 
ATOM      2  C   UNL     1      45.304   5.452  10.700  0.00  0.00    +0.000 A 
ATOM      3  C   UNL     1      46.199   6.421  11.156  0.00  0.00    +0.000 A 
ATOM      4  C   UNL     1      46.057   6.940  12.443  0.00  0.00    +0.000 A 
ATOM      5  C   UNL     1      44.989   6.468  13.199  0.00  0.00    +0.000 A 
ATOM      6  N   UNL     1      44.104   5.528  12.783  0.00  0.00    +0.000 NA
ENDROOT
BRANCH   1   7
ATOM      7  C   UNL     1      43.319   3.935  11.065  0.00  0.00    +0.000 C 
BRANCH   7   8
ATOM      8  N   UNL     1      43.677   3.420   9.736  0.00  0.00    +0.000 NA
ATOM      9  H   UNL     1      42.848   3.054   9.274  0.00  0.00    +0.000 HD
BRANCH   8  10
ATOM     10  C   UNL     1      44.674   2.357   9.807  0.00  0.00    +0.000 C 
BRANCH  10  15
ATOM     11  C   UNL     1      48.090   2.396   5.072  0.00  0.00    +0.000 C 
ATOM     12  C   UNL     1      47.201   2.372   6.280  0.00  0.00    +0.000 A 
ATOM     13  C   UNL     1      47.041   1.204   7.033  0.00  0.00    +0.000 A 
ATOM     14  C   UNL     1      46.218   1.197   8.163  0.00  0.00    +0.000 A 
ATOM     15  C   UNL     1      45.546   2.359   8.570  0.00  0.00    +0.000 A 
ATOM     16  C   UNL     1      45.701   3.524   7.806  0.00  0.00    +0.000 A 
ATOM     17  C   UNL     1      46.518   3.530   6.673  0.00  0.00    +0.000 A 
ENDBRANCH  10  15
ENDBRANCH   8  10
ENDBRANCH   7   8
ENDBRANCH   1   7
BRANCH   4  18
ATOM     18  C   UNL     1      46.979   7.991  12.992  0.00  0.00    +0.000 C 
BRANCH  18  19
ATOM     19  N   UNL     1      47.500   7.609  14.279  0.00  0.00    +0.000 N 
ATOM     20  C   UNL     1      48.687   6.933  14.412  0.00  0.00    +0.000 C 
ATOM     21  O   UNL     1      49.382   6.631  13.444  0.00  0.00    +0.000 OA
ATOM     22  H   UNL     1      46.836   7.566  15.045  0.00  0.00    +0.000 HD
BRANCH  20  23
ATOM     23  C   UNL     1      49.109   6.641  15.784  0.00  0.00    +0.000 A 
ATOM     24  C   UNL     1      48.513   5.606  16.494  0.00  0.00    +0.000 A 
ATOM     25  S   UNL     1      49.167   5.383  18.056  0.00  0.00    +0.000 S 
ATOM     26  C   UNL     1      50.233   6.694  17.858  0.00  0.00    +0.000 A 
ATOM     27  N   UNL     1      51.075   7.073  18.857  0.00  0.00    +0.000 NA
ATOM     28  C   UNL     1      51.802   8.105  18.580  0.00  0.00    +0.000 A 
ATOM     29  N   UNL     1      51.774   8.786  17.391  0.00  0.00    +0.000 N 
ATOM     30  C   UNL     1      50.973   8.412  16.338  0.00  0.00    +0.000 A 
ATOM     31  O   UNL     1      51.028   8.991  15.260  0.00  0.00    +0.000 OA
ATOM     32  C   UNL     1      50.111   7.276  16.610  0.00  0.00    +0.000 A 
ATOM     33  H   UNL     1      52.385   9.571  17.227  0.00  0.00    +0.000 HD
ENDBRANCH  20  23
ENDBRANCH  18  19
ENDBRANCH   4  18
TORSDOF 7
ENDMDL
MODEL 7
REMARK VINA RESULT:    -7.457      4.616      6.008
REMARK INTER + INTRA:         -11.516
REMARK INTER:                 -10.529
REMARK INTRA:                  -0.987
REMARK UNBOUND:                -1.007
REMARK  Name = 
REMARK  8 active torsions:
REMARK  status: ('A' for Active; 'I' for Inactive)
REMARK    1  A    between atoms: C_1  and  C_2
REMARK    2  A    between atoms: C_5  and  C_6
REMARK    3  A    between atoms: C_6  and  N_7
REMARK    4  A    between atoms: N_7  and  C_8
REMARK    5  A    between atoms: C_8  and  C_9
REMARK    6  A    between atoms: C_12  and  C_13
REMARK    7  A    between atoms: C_13  and  N_14
REMARK    8  A    between atoms: C_15  and  C_17
REMARK                            x       y       z     vdW  Elec       q    Type
REMARK                         _______ _______ _______ _____ _____    ______ ____
ROOT
ATOM      1  C   UNL     1      44.995   5.053  12.579  0.00  0.00    +0.000 A 
ATOM      2  C   UNL     1      46.277   5.228  13.100  0.00  0.00    +0.000 A 
ATOM      3  C   UNL     1      46.799   6.517  13.220  0.00  0.00    +0.000 A 
ATOM      4  C   UNL     1      46.034   7.611  12.816  0.00  0.00    +0.000 A 
ATOM      5  C   UNL     1      44.778   7.340  12.281  0.00  0.00    +0.000 A 
ATOM      6  N   UNL     1      44.246   6.099  12.152  0.00  0.00    +0.000 NA
ENDROOT
BRANCH   1   7
ATOM      7  C   UNL     1      44.403   3.655  12.475  0.00  0.00    +0.000 C 
BRANCH   7   8
ATOM      8  N   UNL     1      45.003   2.880  11.379  0.00  0.00    +0.000 NA
ATOM      9  H   UNL     1      45.966   3.174  11.238  0.00  0.00    +0.000 HD
BRANCH   8  10
ATOM     10  C   UNL     1      44.279   3.051  10.123  0.00  0.00    +0.000 C 
BRANCH  10  15
ATOM     11  C   UNL     1      47.909   2.342   5.605  0.00  0.00    +0.000 C 
ATOM     12  C   UNL     1      46.964   2.511   6.758  0.00  0.00    +0.000 A 
ATOM     13  C   UNL     1      46.646   1.434   7.591  0.00  0.00    +0.000 A 
ATOM     14  C   UNL     1      45.773   1.607   8.669  0.00  0.00    +0.000 A 
ATOM     15  C   UNL     1      45.207   2.860   8.942  0.00  0.00    +0.000 A 
ATOM     16  C   UNL     1      45.520   3.934   8.098  0.00  0.00    +0.000 A 
ATOM     17  C   UNL     1      46.388   3.761   7.016  0.00  0.00    +0.000 A 
ENDBRANCH  10  15
ENDBRANCH   8  10
ENDBRANCH   7   8
ENDBRANCH   1   7
BRANCH   4  18
ATOM     18  C   UNL     1      46.537   9.023  12.908  0.00  0.00    +0.000 C 
BRANCH  18  19
ATOM     19  N   UNL     1      47.734   9.204  12.127  0.00  0.00    +0.000 N 
ATOM     20  C   UNL     1      48.439  10.381  12.139  0.00  0.00    +0.000 C 
ATOM     21  O   UNL     1      48.103  11.341  12.829  0.00  0.00    +0.000 OA
ATOM     22  H   UNL     1      47.864   8.576  11.342  0.00  0.00    +0.000 HD
BRANCH  20  23
ATOM     23  C   UNL     1      49.656  10.408  11.322  0.00  0.00    +0.000 A 
ATOM     24  C   UNL     1      49.830  11.394  10.359  0.00  0.00    +0.000 A 
ATOM     25  S   UNL     1      51.326  11.294   9.541  0.00  0.00    +0.000 S 
ATOM     26  C   UNL     1      51.772   9.900  10.409  0.00  0.00    +0.000 A 
ATOM     27  N   UNL     1      52.953   9.270  10.170  0.00  0.00    +0.000 NA
ATOM     28  C   UNL     1      53.143   8.205  10.876  0.00  0.00    +0.000 A 
ATOM     29  N   UNL     1      52.267   7.719  11.811  0.00  0.00    +0.000 N 
ATOM     30  C   UNL     1      51.083   8.347  12.119  0.00  0.00    +0.000 A 
ATOM     31  O   UNL     1      50.357   7.932  13.014  0.00  0.00    +0.000 OA
ATOM     32  C   UNL     1      50.806   9.531  11.327  0.00  0.00    +0.000 A 
ATOM     33  H   UNL     1      52.485   6.895  12.349  0.00  0.00    +0.000 HD
ENDBRANCH  20  23
ENDBRANCH  18  19
ENDBRANCH   4  18
TORSDOF 7
ENDMDL
MODEL 8
REMARK VINA RESULT:    -6.847      4.917      7.017
REMARK INTER + INTRA:         -10.657
REMARK INTER:                  -9.621
REMARK INTRA:                  -1.036
REMARK UNBOUND:                -1.007
REMARK  Name = 
REMARK  8 active torsions:
REMARK  status: ('A' for Active; 'I' for Inactive)
REMARK    1  A    between atoms: C_1  and  C_2
REMARK    2  A    between atoms: C_5  and  C_6
REMARK    3  A    between atoms: C_6  and  N_7
REMARK    4  A    between atoms: N_7  and  C_8
REMARK    5  A    between atoms: C_8  and  C_9
REMARK    6  A    between atoms: C_12  and  C_13
REMARK    7  A    between atoms: C_13  and  N_14
REMARK    8  A    between atoms: C_15  and  C_17
REMARK                            x       y       z     vdW  Elec       q    Type
REMARK                         _______ _______ _______ _____ _____    ______ ____
ROOT
ATOM      1  C   UNL     1      45.497   6.707  12.358  0.00  0.00    +0.000 A 
ATOM      2  C   UNL     1      46.642   5.919  12.243  0.00  0.00    +0.000 A 
ATOM      3  C   UNL     1      47.883   6.460  12.581  0.00  0.00    +0.000 A 
ATOM      4  C   UNL     1      47.963   7.780  13.025  0.00  0.00    +0.000 A 
ATOM      5  C   UNL     1      46.774   8.500  13.079  0.00  0.00    +0.000 A 
ATOM      6  N   UNL     1      45.554   8.002  12.758  0.00  0.00    +0.000 NA
ENDROOT
BRANCH   1   7
ATOM      7  C   UNL     1      44.134   6.117  12.024  0.00  0.00    +0.000 C 
BRANCH   7   8
ATOM      8  N   UNL     1      44.034   5.717  10.613  0.00  0.00    +0.000 NA
ATOM      9  H   UNL     1      43.270   6.219  10.167  0.00  0.00    +0.000 HD
BRANCH   8  10
ATOM     10  C   UNL     1      43.798   4.285  10.462  0.00  0.00    +0.000 C 
BRANCH  10  15
ATOM     11  C   UNL     1      47.478   1.962   6.569  0.00  0.00    +0.000 C 
ATOM     12  C   UNL     1      46.547   2.569   7.577  0.00  0.00    +0.000 A 
ATOM     13  C   UNL     1      46.377   3.955   7.658  0.00  0.00    +0.000 A 
ATOM     14  C   UNL     1      45.499   4.507   8.594  0.00  0.00    +0.000 A 
ATOM     15  C   UNL     1      44.766   3.687   9.463  0.00  0.00    +0.000 A 
ATOM     16  C   UNL     1      44.947   2.299   9.386  0.00  0.00    +0.000 A 
ATOM     17  C   UNL     1      45.830   1.746   8.455  0.00  0.00    +0.000 A 
ENDBRANCH  10  15
ENDBRANCH   8  10
ENDBRANCH   7   8
ENDBRANCH   1   7
BRANCH   4  18
ATOM     18  C   UNL     1      49.267   8.427  13.395  0.00  0.00    +0.000 C 
BRANCH  18  19
ATOM     19  N   UNL     1      49.929   8.970  12.237  0.00  0.00    +0.000 N 
ATOM     20  C   UNL     1      51.293   9.103  12.174  0.00  0.00    +0.000 C 
ATOM     21  O   UNL     1      52.030   8.750  13.092  0.00  0.00    +0.000 OA
ATOM     22  H   UNL     1      49.364   9.536  11.613  0.00  0.00    +0.000 HD
BRANCH  20  23
ATOM     23  C   UNL     1      51.828   9.639  10.919  0.00  0.00    +0.000 A 
ATOM     24  C   UNL     1      51.907  11.012  10.722  0.00  0.00    +0.000 A 
ATOM     25  S   UNL     1      52.601  11.449   9.224  0.00  0.00    +0.000 S 
ATOM     26  C   UNL     1      52.774   9.820   8.764  0.00  0.00    +0.000 A 
ATOM     27  N   UNL     1      53.288   9.482   7.551  0.00  0.00    +0.000 NA
ATOM     28  C   UNL     1      53.327   8.211   7.324  0.00  0.00    +0.000 A 
ATOM     29  N   UNL     1      52.912   7.244   8.203  0.00  0.00    +0.000 N 
ATOM     30  C   UNL     1      52.430   7.537   9.457  0.00  0.00    +0.000 A 
ATOM     31  O   UNL     1      52.141   6.650  10.250  0.00  0.00    +0.000 OA
ATOM     32  C   UNL     1      52.333   8.955   9.750  0.00  0.00    +0.000 A 
ATOM     33  H   UNL     1      52.992   6.266   7.976  0.00  0.00    +0.000 HD
ENDBRANCH  20  23
ENDBRANCH  18  19
ENDBRANCH   4  18
TORSDOF 7
ENDMDL
MODEL 9
REMARK VINA RESULT:    -6.791      3.526      9.256
REMARK INTER + INTRA:         -10.578
REMARK INTER:                  -9.147
REMARK INTRA:                  -1.430
REMARK UNBOUND:                -1.007
REMARK  Name = 
REMARK  8 active torsions:
REMARK  status: ('A' for Active; 'I' for Inactive)
REMARK    1  A    between atoms: C_1  and  C_2
REMARK    2  A    between atoms: C_5  and  C_6
REMARK    3  A    between atoms: C_6  and  N_7
REMARK    4  A    between atoms: N_7  and  C_8
REMARK    5  A    between atoms: C_8  and  C_9
REMARK    6  A    between atoms: C_12  and  C_13
REMARK    7  A    between atoms: C_13  and  N_14
REMARK    8  A    between atoms: C_15  and  C_17
REMARK                            x       y       z     vdW  Elec       q    Type
REMARK                         _______ _______ _______ _____ _____    ______ ____
ROOT
ATOM      1  C   UNL     1      49.666   8.470  15.861  0.00  0.00    +0.000 A 
ATOM      2  C   UNL     1      49.859   7.276  15.168  0.00  0.00    +0.000 A 
ATOM      3  C   UNL     1      49.249   7.096  13.925  0.00  0.00    +0.000 A 
ATOM      4  C   UNL     1      48.453   8.112  13.395  0.00  0.00    +0.000 A 
ATOM      5  C   UNL     1      48.292   9.257  14.169  0.00  0.00    +0.000 A 
ATOM      6  N   UNL     1      48.872   9.458  15.379  0.00  0.00    +0.000 NA
ENDROOT
BRANCH   1   7
ATOM      7  C   UNL     1      50.354   8.690  17.201  0.00  0.00    +0.000 C 
BRANCH   7   8
ATOM      8  N   UNL     1      49.462   8.403  18.334  0.00  0.00    +0.000 NA
ATOM      9  H   UNL     1      49.367   9.232  18.915  0.00  0.00    +0.000 HD
BRANCH   8  10
ATOM     10  C   UNL     1      49.960   7.312  19.165  0.00  0.00    +0.000 C 
BRANCH  10  15
ATOM     11  C   UNL     1      48.985   2.127  16.663  0.00  0.00    +0.000 C 
ATOM     12  C   UNL     1      49.229   3.468  17.289  0.00  0.00    +0.000 A 
ATOM     13  C   UNL     1      48.172   4.352  17.531  0.00  0.00    +0.000 A 
ATOM     14  C   UNL     1      48.410   5.595  18.125  0.00  0.00    +0.000 A 
ATOM     15  C   UNL     1      49.706   5.975  18.499  0.00  0.00    +0.000 A 
ATOM     16  C   UNL     1      50.764   5.090  18.246  0.00  0.00    +0.000 A 
ATOM     17  C   UNL     1      50.527   3.851  17.646  0.00  0.00    +0.000 A 
ENDBRANCH  10  15
ENDBRANCH   8  10
ENDBRANCH   7   8
ENDBRANCH   1   7
BRANCH   4  18
ATOM     18  C   UNL     1      47.759   7.981  12.069  0.00  0.00    +0.000 C 
BRANCH  18  19
ATOM     19  N   UNL     1      47.005   6.757  11.992  0.00  0.00    +0.000 N 
ATOM     20  C   UNL     1      45.671   6.743  11.672  0.00  0.00    +0.000 C 
ATOM     21  O   UNL     1      45.047   7.771  11.414  0.00  0.00    +0.000 OA
ATOM     22  H   UNL     1      47.388   5.954  12.480  0.00  0.00    +0.000 HD
BRANCH  20  23
ATOM     23  C   UNL     1      45.042   5.422  11.598  0.00  0.00    +0.000 A 
ATOM     24  C   UNL     1      44.387   4.895  12.704  0.00  0.00    +0.000 A 
ATOM     25  S   UNL     1      43.675   3.369  12.414  0.00  0.00    +0.000 S 
ATOM     26  C   UNL     1      44.260   3.336  10.817  0.00  0.00    +0.000 A 
ATOM     27  N   UNL     1      44.028   2.270  10.005  0.00  0.00    +0.000 NA
ATOM     28  C   UNL     1      44.561   2.366   8.832  0.00  0.00    +0.000 A 
ATOM     29  N   UNL     1      45.295   3.437   8.391  0.00  0.00    +0.000 N 
ATOM     30  C   UNL     1      45.515   4.555   9.159  0.00  0.00    +0.000 A 
ATOM     31  O   UNL     1      46.107   5.529   8.710  0.00  0.00    +0.000 OA
ATOM     32  C   UNL     1      44.965   4.483  10.500  0.00  0.00    +0.000 A 
ATOM     33  H   UNL     1      45.664   3.462   7.453  0.00  0.00    +0.000 HD
ENDBRANCH  20  23
ENDBRANCH  18  19
ENDBRANCH   4  18
TORSDOF 7
ENDMDL
