MODEL 1
REMARK VINA RESULT:    -7.669      0.000      0.000
REMARK INTER + INTRA:         -10.658
REMARK INTER:                 -10.135
REMARK INTRA:                  -0.523
REMARK UNBOUND:                -0.523
REMARK  Name = 
REMARK  6 active torsions:
REMARK  status: ('A' for Active; 'I' for Inactive)
REMARK    1  A    between atoms: N_1  and  C_2
REMARK    2  A    between atoms: C_2  and  C_3
REMARK    3  A    between atoms: C_6  and  N_7
REMARK    4  A    between atoms: N_7  and  C_8
REMARK    5  A    between atoms: C_8  and  C_9
REMARK    6  A    between atoms: C_9  and  C_12
REMARK                            x       y       z     vdW  Elec       q    Type
REMARK                         _______ _______ _______ _____ _____    ______ ____
ROOT
ATOM      1  N   UNL     1      43.807   4.733   9.562  0.00  0.00    +0.000 N 
ATOM      2  H   UNL     1      44.168   5.686   9.503  0.00  0.00    +0.000 HD
ENDROOT
BRANCH   1   6
ATOM      3  C   UNL     1      46.454   2.096   7.817  0.00  0.00    +0.000 A 
ATOM      4  C   UNL     1      46.410   3.435   7.439  0.00  0.00    +0.000 A 
ATOM      5  N   UNL     1      45.570   4.339   8.004  0.00  0.00    +0.000 NA
ATOM      6  C   UNL     1      44.741   3.878   8.962  0.00  0.00    +0.000 A 
ATOM      7  C   UNL     1      44.769   2.522   9.312  0.00  0.00    +0.000 A 
ATOM      8  N   UNL     1      45.619   1.611   8.767  0.00  0.00    +0.000 NA
BRANCH   3   9
ATOM      9  C   UNL     1      47.437   1.151   7.173  0.00  0.00    +0.000 C 
BRANCH   9  10
ATOM     10  N   UNL     1      48.338   1.820   6.230  0.00  0.00    +0.000 NA
ATOM     11  H   UNL     1      47.946   2.731   5.994  0.00  0.00    +0.000 HD
ATOM     12  H   UNL     1      48.339   1.288   5.358  0.00  0.00    +0.000 HD
ENDBRANCH   9  10
ENDBRANCH   3   9
ENDBRANCH   1   6
BRANCH   1  13
ATOM     13  C   UNL     1      43.412   4.373  10.946  0.00  0.00    +0.000 C 
BRANCH  13  14
ATOM     14  C   UNL     1      43.592   5.545  11.942  0.00  0.00    +0.000 C 
ATOM     15  F   UNL     1      43.036   6.663  11.374  0.00  0.00    +0.000 F 
ATOM     16  F   UNL     1      42.822   5.301  13.047  0.00  0.00    +0.000 F 
BRANCH  14  17
ATOM     17  C   UNL     1      45.048   5.759  12.305  0.00  0.00    +0.000 A 
ATOM     18  C   UNL     1      45.804   6.764  11.680  0.00  0.00    +0.000 A 
ATOM     19  C   UNL     1      47.137   6.976  12.038  0.00  0.00    +0.000 A 
ATOM     20  C   UNL     1      47.730   6.185  13.021  0.00  0.00    +0.000 A 
ATOM     21  C   UNL     1      46.998   5.173  13.636  0.00  0.00    +0.000 A 
ATOM     22  C   UNL     1      45.665   4.959  13.281  0.00  0.00    +0.000 A 
ENDBRANCH  14  17
ENDBRANCH  13  14
ENDBRANCH   1  13
TORSDOF 6
ENDMDL
MODEL 2
REMARK VINA RESULT:    -7.402      2.766      6.078
REMARK INTER + INTRA:         -10.305
REMARK INTER:                  -9.864
REMARK INTRA:                  -0.441
REMARK UNBOUND:                -0.523
REMARK  Name = 
REMARK  6 active torsions:
REMARK  status: ('A' for Active; 'I' for Inactive)
REMARK    1  A    between atoms: N_1  and  C_2
REMARK    2  A    between atoms: C_2  and  C_3
REMARK    3  A    between atoms: C_6  and  N_7
REMARK    4  A    between atoms: N_7  and  C_8
REMARK    5  A    between atoms: C_8  and  C_9
REMARK    6  A    between atoms: C_9  and  C_12
REMARK                            x       y       z     vdW  Elec       q    Type
REMARK                         _______ _______ _______ _____ _____    ______ ____
ROOT
ATOM      1  N   UNL     1      44.861   5.625  10.626  0.00  0.00    +0.000 N 
ATOM      2  H   UNL     1      43.905   5.275  10.696  0.00  0.00    +0.000 HD
ENDROOT
BRANCH   1   6
ATOM      3  C   UNL     1      46.706   4.795  14.219  0.00  0.00    +0.000 A 
ATOM      4  C   UNL     1      47.115   5.862  13.424  0.00  0.00    +0.000 A 
ATOM      5  N   UNL     1      46.520   6.182  12.247  0.00  0.00    +0.000 NA
ATOM      6  C   UNL     1      45.498   5.396  11.852  0.00  0.00    +0.000 A 
ATOM      7  C   UNL     1      45.115   4.305  12.643  0.00  0.00    +0.000 A 
ATOM      8  N   UNL     1      45.690   3.987  13.834  0.00  0.00    +0.000 NA
BRANCH   3   9
ATOM      9  C   UNL     1      47.388   4.516  15.535  0.00  0.00    +0.000 C 
BRANCH   9  10
ATOM     10  N   UNL     1      47.821   3.122  15.669  0.00  0.00    +0.000 NA
ATOM     11  H   UNL     1      47.057   2.579  16.069  0.00  0.00    +0.000 HD
ATOM     12  H   UNL     1      48.573   3.087  16.358  0.00  0.00    +0.000 HD
ENDBRANCH   9  10
ENDBRANCH   3   9
ENDBRANCH   1   6
BRANCH   1  13
ATOM     13  C   UNL     1      45.562   5.088   9.434  0.00  0.00    +0.000 C 
BRANCH  13  14
ATOM     14  C   UNL     1      44.821   3.888   8.796  0.00  0.00    +0.000 C 
ATOM     15  F   UNL     1      44.182   3.209   9.802  0.00  0.00    +0.000 F 
ATOM     16  F   UNL     1      43.808   4.369   8.008  0.00  0.00    +0.000 F 
BRANCH  14  17
ATOM     17  C   UNL     1      45.763   2.992   8.017  0.00  0.00    +0.000 A 
ATOM     18  C   UNL     1      45.972   1.659   8.405  0.00  0.00    +0.000 A 
ATOM     19  C   UNL     1      46.820   0.829   7.669  0.00  0.00    +0.000 A 
ATOM     20  C   UNL     1      47.469   1.322   6.538  0.00  0.00    +0.000 A 
ATOM     21  C   UNL     1      47.285   2.647   6.151  0.00  0.00    +0.000 A 
ATOM     22  C   UNL     1      46.438   3.478   6.886  0.00  0.00    +0.000 A 
ENDBRANCH  14  17
ENDBRANCH  13  14
ENDBRANCH   1  13
TORSDOF 6
ENDMDL
MODEL 3
REMARK VINA RESULT:    -6.877      2.685      6.318
REMARK INTER + INTRA:          -9.612
REMARK INTER:                  -9.146
REMARK INTRA:                  -0.466
REMARK UNBOUND:                -0.523
REMARK  Name = 
REMARK  6 active torsions:
REMARK  status: ('A' for Active; 'I' for Inactive)
REMARK    1  A    between atoms: N_1  and  C_2
REMARK    2  A    between atoms: C_2  and  C_3
REMARK    3  A    between atoms: C_6  and  N_7
REMARK    4  A    between atoms: N_7  and  C_8
REMARK    5  A    between atoms: C_8  and  C_9
REMARK    6  A    between atoms: C_9  and  C_12
REMARK                            x       y       z     vdW  Elec       q    Type
REMARK                         _______ _______ _______ _____ _____    ______ ____
ROOT
ATOM      1  N   UNL     1      44.310   3.603  11.533  0.00  0.00    +0.000 N 
ATOM      2  H   UNL     1      44.176   3.083  12.400  0.00  0.00    +0.000 HD
ENDROOT
BRANCH   1   6
ATOM      3  C   UNL     1      45.394   7.449  12.552  0.00  0.00    +0.000 A 
ATOM      4  C   UNL     1      44.458   7.201  11.552  0.00  0.00    +0.000 A 
ATOM      5  N   UNL     1      44.058   5.953  11.202  0.00  0.00    +0.000 NA
ATOM      6  C   UNL     1      44.628   4.926  11.865  0.00  0.00    +0.000 A 
ATOM      7  C   UNL     1      45.593   5.184  12.847  0.00  0.00    +0.000 A 
ATOM      8  N   UNL     1      45.988   6.431  13.221  0.00  0.00    +0.000 NA
BRANCH   3   9
ATOM      9  C   UNL     1      45.768   8.864  12.916  0.00  0.00    +0.000 C 
BRANCH   9  10
ATOM     10  N   UNL     1      44.673   9.816  12.706  0.00  0.00    +0.000 NA
ATOM     11  H   UNL     1      43.787   9.324  12.813  0.00  0.00    +0.000 HD
ATOM     12  H   UNL     1      44.702  10.123  11.732  0.00  0.00    +0.000 HD
ENDBRANCH   9  10
ENDBRANCH   3   9
ENDBRANCH   1   6
BRANCH   1  13
ATOM     13  C   UNL     1      45.266   2.928  10.622  0.00  0.00    +0.000 C 
BRANCH  13  14
ATOM     14  C   UNL     1      44.658   2.637   9.228  0.00  0.00    +0.000 C 
ATOM     15  F   UNL     1      43.894   1.503   9.334  0.00  0.00    +0.000 F 
ATOM     16  F   UNL     1      43.762   3.628   8.926  0.00  0.00    +0.000 F 
BRANCH  14  17
ATOM     17  C   UNL     1      45.729   2.501   8.162  0.00  0.00    +0.000 A 
ATOM     18  C   UNL     1      46.469   1.315   8.036  0.00  0.00    +0.000 A 
ATOM     19  C   UNL     1      47.434   1.184   7.035  0.00  0.00    +0.000 A 
ATOM     20  C   UNL     1      47.672   2.237   6.153  0.00  0.00    +0.000 A 
ATOM     21  C   UNL     1      46.958   3.426   6.278  0.00  0.00    +0.000 A 
ATOM     22  C   UNL     1      45.992   3.559   7.277  0.00  0.00    +0.000 A 
ENDBRANCH  14  17
ENDBRANCH  13  14
ENDBRANCH   1  13
TORSDOF 6
ENDMDL
MODEL 4
REMARK VINA RESULT:    -6.624      3.044      5.784
REMARK INTER + INTRA:          -9.278
REMARK INTER:                  -8.769
REMARK INTRA:                  -0.509
REMARK UNBOUND:                -0.523
REMARK  Name = 
REMARK  6 active torsions:
REMARK  status: ('A' for Active; 'I' for Inactive)
REMARK    1  A    between atoms: N_1  and  C_2
REMARK    2  A    between atoms: C_2  and  C_3
REMARK    3  A    between atoms: C_6  and  N_7
REMARK    4  A    between atoms: N_7  and  C_8
REMARK    5  A    between atoms: C_8  and  C_9
REMARK    6  A    between atoms: C_9  and  C_12
REMARK                            x       y       z     vdW  Elec       q    Type
REMARK                         _______ _______ _______ _____ _____    ______ ____
ROOT
ATOM      1  N   UNL     1      44.518   4.660  12.969  0.00  0.00    +0.000 N 
ATOM      2  H   UNL     1      44.043   4.529  13.863  0.00  0.00    +0.000 HD
ENDROOT
BRANCH   1   6
ATOM      3  C   UNL     1      47.936   6.881  13.593  0.00  0.00    +0.000 A 
ATOM      4  C   UNL     1      46.781   7.459  13.074  0.00  0.00    +0.000 A 
ATOM      5  N   UNL     1      45.630   6.768  12.875  0.00  0.00    +0.000 NA
ATOM      6  C   UNL     1      45.648   5.458  13.191  0.00  0.00    +0.000 A 
ATOM      7  C   UNL     1      46.824   4.877  13.682  0.00  0.00    +0.000 A 
ATOM      8  N   UNL     1      47.977   5.563  13.905  0.00  0.00    +0.000 NA
BRANCH   3   9
ATOM      9  C   UNL     1      49.172   7.714  13.824  0.00  0.00    +0.000 C 
BRANCH   9  10
ATOM     10  N   UNL     1      50.190   7.017  14.616  0.00  0.00    +0.000 NA
ATOM     11  H   UNL     1      50.198   6.035  14.346  0.00  0.00    +0.000 HD
ATOM     12  H   UNL     1      49.896   7.032  15.594  0.00  0.00    +0.000 HD
ENDBRANCH   9  10
ENDBRANCH   3   9
ENDBRANCH   1   6
BRANCH   1  13
ATOM     13  C   UNL     1      44.774   3.371  12.283  0.00  0.00    +0.000 C 
BRANCH  13  14
ATOM     14  C   UNL     1      43.916   3.194  11.006  0.00  0.00    +0.000 C 
ATOM     15  F   UNL     1      43.199   2.033  11.141  0.00  0.00    +0.000 F 
ATOM     16  F   UNL     1      42.968   4.182  10.975  0.00  0.00    +0.000 F 
BRANCH  14  17
ATOM     17  C   UNL     1      44.767   3.191   9.750  0.00  0.00    +0.000 A 
ATOM     18  C   UNL     1      45.153   4.395   9.141  0.00  0.00    +0.000 A 
ATOM     19  C   UNL     1      45.960   4.387   8.001  0.00  0.00    +0.000 A 
ATOM     20  C   UNL     1      46.387   3.177   7.457  0.00  0.00    +0.000 A 
ATOM     21  C   UNL     1      45.998   1.974   8.041  0.00  0.00    +0.000 A 
ATOM     22  C   UNL     1      45.191   1.979   9.180  0.00  0.00    +0.000 A 
ENDBRANCH  14  17
ENDBRANCH  13  14
ENDBRANCH   1  13
TORSDOF 6
ENDMDL
MODEL 5
REMARK VINA RESULT:    -6.466      3.501      6.404
REMARK INTER + INTRA:          -9.069
REMARK INTER:                  -8.643
REMARK INTRA:                  -0.425
REMARK UNBOUND:                -0.523
REMARK  Name = 
REMARK  6 active torsions:
REMARK  status: ('A' for Active; 'I' for Inactive)
REMARK    1  A    between atoms: N_1  and  C_2
REMARK    2  A    between atoms: C_2  and  C_3
REMARK    3  A    between atoms: C_6  and  N_7
REMARK    4  A    between atoms: N_7  and  C_8
REMARK    5  A    between atoms: C_8  and  C_9
REMARK    6  A    between atoms: C_9  and  C_12
REMARK                            x       y       z     vdW  Elec       q    Type
REMARK                         _______ _______ _______ _____ _____    ______ ____
ROOT
ATOM      1  N   UNL     1      45.981   5.149  12.313  0.00  0.00    +0.000 N 
ATOM      2  H   UNL     1      45.597   6.090  12.221  0.00  0.00    +0.000 HD
ENDROOT
BRANCH   1   6
ATOM      3  C   UNL     1      48.215   5.171  15.779  0.00  0.00    +0.000 A 
ATOM      4  C   UNL     1      47.295   4.160  15.517  0.00  0.00    +0.000 A 
ATOM      5  N   UNL     1      46.557   4.105  14.379  0.00  0.00    +0.000 NA
ATOM      6  C   UNL     1      46.739   5.103  13.490  0.00  0.00    +0.000 A 
ATOM      7  C   UNL     1      47.643   6.132  13.777  0.00  0.00    +0.000 A 
ATOM      8  N   UNL     1      48.403   6.188  14.905  0.00  0.00    +0.000 NA
BRANCH   3   9
ATOM      9  C   UNL     1      49.030   5.154  17.048  0.00  0.00    +0.000 C 
BRANCH   9  10
ATOM     10  N   UNL     1      49.859   3.951  17.178  0.00  0.00    +0.000 NA
ATOM     11  H   UNL     1      50.651   4.165  17.782  0.00  0.00    +0.000 HD
ATOM     12  H   UNL     1      50.259   3.742  16.262  0.00  0.00    +0.000 HD
ENDBRANCH   9  10
ENDBRANCH   3   9
ENDBRANCH   1   6
BRANCH   1  13
ATOM     13  C   UNL     1      44.933   4.106  12.189  0.00  0.00    +0.000 C 
BRANCH  13  14
ATOM     14  C   UNL     1      44.136   4.216  10.866  0.00  0.00    +0.000 C 
ATOM     15  F   UNL     1      42.943   3.564  11.043  0.00  0.00    +0.000 F 
ATOM     16  F   UNL     1      43.788   5.526  10.673  0.00  0.00    +0.000 F 
BRANCH  14  17
ATOM     17  C   UNL     1      44.916   3.661   9.690  0.00  0.00    +0.000 A 
ATOM     18  C   UNL     1      45.047   2.275   9.505  0.00  0.00    +0.000 A 
ATOM     19  C   UNL     1      45.743   1.769   8.405  0.00  0.00    +0.000 A 
ATOM     20  C   UNL     1      46.315   2.641   7.479  0.00  0.00    +0.000 A 
ATOM     21  C   UNL     1      46.208   4.017   7.660  0.00  0.00    +0.000 A 
ATOM     22  C   UNL     1      45.513   4.526   8.759  0.00  0.00    +0.000 A 
ENDBRANCH  14  17
ENDBRANCH  13  14
ENDBRANCH   1  13
TORSDOF 6
ENDMDL
MODEL 6
REMARK VINA RESULT:    -6.275      3.643      6.141
REMARK INTER + INTRA:          -8.816
REMARK INTER:                  -8.302
REMARK INTRA:                  -0.514
REMARK UNBOUND:                -0.523
REMARK  Name = 
REMARK  6 active torsions:
REMARK  status: ('A' for Active; 'I' for Inactive)
REMARK    1  A    between atoms: N_1  and  C_2
REMARK    2  A    between atoms: C_2  and  C_3
REMARK    3  A    between atoms: C_6  and  N_7
REMARK    4  A    between atoms: N_7  and  C_8
REMARK    5  A    between atoms: C_8  and  C_9
REMARK    6  A    between atoms: C_9  and  C_12
REMARK                            x       y       z     vdW  Elec       q    Type
REMARK                         _______ _______ _______ _____ _____    ______ ____
ROOT
ATOM      1  N   UNL     1      46.770   6.619  13.514  0.00  0.00    +0.000 N 
ATOM      2  H   UNL     1      45.870   6.956  13.856  0.00  0.00    +0.000 HD
ENDROOT
BRANCH   1   6
ATOM      3  C   UNL     1      48.054   3.498  15.886  0.00  0.00    +0.000 A 
ATOM      4  C   UNL     1      48.264   4.824  16.255  0.00  0.00    +0.000 A 
ATOM      5  N   UNL     1      47.838   5.878  15.515  0.00  0.00    +0.000 NA
ATOM      6  C   UNL     1      47.199   5.590  14.363  0.00  0.00    +0.000 A 
ATOM      7  C   UNL     1      47.020   4.254  13.983  0.00  0.00    +0.000 A 
ATOM      8  N   UNL     1      47.424   3.189  14.727  0.00  0.00    +0.000 NA
BRANCH   3   9
ATOM      9  C   UNL     1      48.522   2.372  16.773  0.00  0.00    +0.000 C 
BRANCH   9  10
ATOM     10  N   UNL     1      49.683   1.662  16.228  0.00  0.00    +0.000 NA
ATOM     11  H   UNL     1      50.095   1.095  16.968  0.00  0.00    +0.000 HD
ATOM     12  H   UNL     1      50.393   2.354  15.983  0.00  0.00    +0.000 HD
ENDBRANCH   9  10
ENDBRANCH   3   9
ENDBRANCH   1   6
BRANCH   1  13
ATOM     13  C   UNL     1      46.723   6.275  12.072  0.00  0.00    +0.000 C 
BRANCH  13  14
ATOM     14  C   UNL     1      45.278   6.214  11.520  0.00  0.00    +0.000 C 
ATOM     15  F   UNL     1      44.424   6.152  12.592  0.00  0.00    +0.000 F 
ATOM     16  F   UNL     1      44.989   7.410  10.918  0.00  0.00    +0.000 F 
BRANCH  14  17
ATOM     17  C   UNL     1      45.084   5.045  10.574  0.00  0.00    +0.000 A 
ATOM     18  C   UNL     1      44.387   3.897  10.984  0.00  0.00    +0.000 A 
ATOM     19  C   UNL     1      44.187   2.835  10.100  0.00  0.00    +0.000 A 
ATOM     20  C   UNL     1      44.682   2.907   8.798  0.00  0.00    +0.000 A 
ATOM     21  C   UNL     1      45.390   4.032   8.384  0.00  0.00    +0.000 A 
ATOM     22  C   UNL     1      45.592   5.095   9.266  0.00  0.00    +0.000 A 
ENDBRANCH  14  17
ENDBRANCH  13  14
ENDBRANCH   1  13
TORSDOF 6
ENDMDL
MODEL 7
REMARK VINA RESULT:    -5.843      4.749      7.266
REMARK INTER + INTRA:          -8.245
REMARK INTER:                  -7.831
REMARK INTRA:                  -0.415
REMARK UNBOUND:                -0.523
REMARK  Name = 
REMARK  6 active torsions:
REMARK  status: ('A' for Active; 'I' for Inactive)
REMARK    1  A    between atoms: N_1  and  C_2
REMARK    2  A    between atoms: C_2  and  C_3
REMARK    3  A    between atoms: C_6  and  N_7
REMARK    4  A    between atoms: N_7  and  C_8
REMARK    5  A    between atoms: C_8  and  C_9
REMARK    6  A    between atoms: C_9  and  C_12
REMARK                            x       y       z     vdW  Elec       q    Type
REMARK                         _______ _______ _______ _____ _____    ______ ____
ROOT
ATOM      1  N   UNL     1      46.521   4.113  14.499  0.00  0.00    +0.000 N 
ATOM      2  H   UNL     1      46.816   3.214  14.117  0.00  0.00    +0.000 HD
ENDROOT
BRANCH   1   6
ATOM      3  C   UNL     1      48.777   4.722  17.897  0.00  0.00    +0.000 A 
ATOM      4  C   UNL     1      48.946   5.512  16.764  0.00  0.00    +0.000 A 
ATOM      5  N   UNL     1      48.209   5.359  15.634  0.00  0.00    +0.000 NA
ATOM      6  C   UNL     1      47.290   4.372  15.641  0.00  0.00    +0.000 A 
ATOM      7  C   UNL     1      47.149   3.561  16.774  0.00  0.00    +0.000 A 
ATOM      8  N   UNL     1      47.867   3.718  17.919  0.00  0.00    +0.000 NA
BRANCH   3   9
ATOM      9  C   UNL     1      49.605   4.969  19.133  0.00  0.00    +0.000 C 
BRANCH   9  10
ATOM     10  N   UNL     1      49.164   4.174  20.283  0.00  0.00    +0.000 NA
ATOM     11  H   UNL     1      49.384   3.195  20.107  0.00  0.00    +0.000 HD
ATOM     12  H   UNL     1      48.145   4.223  20.332  0.00  0.00    +0.000 HD
ENDBRANCH   9  10
ENDBRANCH   3   9
ENDBRANCH   1   6
BRANCH   1  13
ATOM     13  C   UNL     1      46.528   5.182  13.471  0.00  0.00    +0.000 C 
BRANCH  13  14
ATOM     14  C   UNL     1      45.156   5.348  12.773  0.00  0.00    +0.000 C 
ATOM     15  F   UNL     1      44.205   4.780  13.582  0.00  0.00    +0.000 F 
ATOM     16  F   UNL     1      44.836   6.680  12.749  0.00  0.00    +0.000 F 
BRANCH  14  17
ATOM     17  C   UNL     1      45.152   4.742  11.383  0.00  0.00    +0.000 A 
ATOM     18  C   UNL     1      45.598   5.482  10.276  0.00  0.00    +0.000 A 
ATOM     19  C   UNL     1      45.618   4.910   9.002  0.00  0.00    +0.000 A 
ATOM     20  C   UNL     1      45.193   3.595   8.821  0.00  0.00    +0.000 A 
ATOM     21  C   UNL     1      44.732   2.855   9.907  0.00  0.00    +0.000 A 
ATOM     22  C   UNL     1      44.710   3.425  11.181  0.00  0.00    +0.000 A 
ENDBRANCH  14  17
ENDBRANCH  13  14
ENDBRANCH   1  13
TORSDOF 6
ENDMDL
MODEL 8
REMARK VINA RESULT:    -5.756      3.318      5.859
REMARK INTER + INTRA:          -8.129
REMARK INTER:                  -7.536
REMARK INTRA:                  -0.593
REMARK UNBOUND:                -0.523
REMARK  Name = 
REMARK  6 active torsions:
REMARK  status: ('A' for Active; 'I' for Inactive)
REMARK    1  A    between atoms: N_1  and  C_2
REMARK    2  A    between atoms: C_2  and  C_3
REMARK    3  A    between atoms: C_6  and  N_7
REMARK    4  A    between atoms: N_7  and  C_8
REMARK    5  A    between atoms: C_8  and  C_9
REMARK    6  A    between atoms: C_9  and  C_12
REMARK                            x       y       z     vdW  Elec       q    Type
REMARK                         _______ _______ _______ _____ _____    ______ ____
ROOT
ATOM      1  N   UNL     1      45.682   5.267  13.678  0.00  0.00    +0.000 N 
ATOM      2  H   UNL     1      46.165   4.400  13.914  0.00  0.00    +0.000 HD
ENDROOT
BRANCH   1   6
ATOM      3  C   UNL     1      48.419   8.151  12.584  0.00  0.00    +0.000 A 
ATOM      4  C   UNL     1      48.826   6.886  12.998  0.00  0.00    +0.000 A 
ATOM      5  N   UNL     1      47.957   5.903  13.345  0.00  0.00    +0.000 NA
ATOM      6  C   UNL     1      46.645   6.208  13.289  0.00  0.00    +0.000 A 
ATOM      7  C   UNL     1      46.246   7.493  12.902  0.00  0.00    +0.000 A 
ATOM      8  N   UNL     1      47.106   8.480  12.533  0.00  0.00    +0.000 NA
BRANCH   3   9
ATOM      9  C   UNL     1      49.437   9.188  12.178  0.00  0.00    +0.000 C 
BRANCH   9  10
ATOM     10  N   UNL     1      48.995  10.008  11.046  0.00  0.00    +0.000 NA
ATOM     11  H   UNL     1      48.880  10.970  11.365  0.00  0.00    +0.000 HD
ATOM     12  H   UNL     1      48.061   9.696  10.772  0.00  0.00    +0.000 HD
ENDBRANCH   9  10
ENDBRANCH   3   9
ENDBRANCH   1   6
BRANCH   1  13
ATOM     13  C   UNL     1      44.582   5.044  12.707  0.00  0.00    +0.000 C 
BRANCH  13  14
ATOM     14  C   UNL     1      44.590   3.614  12.115  0.00  0.00    +0.000 C 
ATOM     15  F   UNL     1      45.525   2.883  12.802  0.00  0.00    +0.000 F 
ATOM     16  F   UNL     1      43.396   3.011  12.412  0.00  0.00    +0.000 F 
BRANCH  14  17
ATOM     17  C   UNL     1      44.862   3.621  10.623  0.00  0.00    +0.000 A 
ATOM     18  C   UNL     1      45.392   4.760   9.996  0.00  0.00    +0.000 A 
ATOM     19  C   UNL     1      45.667   4.753   8.627  0.00  0.00    +0.000 A 
ATOM     20  C   UNL     1      45.412   3.610   7.870  0.00  0.00    +0.000 A 
ATOM     21  C   UNL     1      44.870   2.479   8.476  0.00  0.00    +0.000 A 
ATOM     22  C   UNL     1      44.595   2.484   9.844  0.00  0.00    +0.000 A 
ENDBRANCH  14  17
ENDBRANCH  13  14
ENDBRANCH   1  13
TORSDOF 6
ENDMDL
MODEL 9
REMARK VINA RESULT:    -5.472      4.638      6.632
REMARK INTER + INTRA:          -7.755
REMARK INTER:                  -7.396
REMARK INTRA:                  -0.359
REMARK UNBOUND:                -0.523
REMARK  Name = 
REMARK  6 active torsions:
REMARK  status: ('A' for Active; 'I' for Inactive)
REMARK    1  A    between atoms: N_1  and  C_2
REMARK    2  A    between atoms: C_2  and  C_3
REMARK    3  A    between atoms: C_6  and  N_7
REMARK    4  A    between atoms: N_7  and  C_8
REMARK    5  A    between atoms: C_8  and  C_9
REMARK    6  A    between atoms: C_9  and  C_12
REMARK                            x       y       z     vdW  Elec       q    Type
REMARK                         _______ _______ _______ _____ _____    ______ ____
ROOT
ATOM      1  N   UNL     1      47.236   3.547  14.480  0.00  0.00    +0.000 N 
ATOM      2  H   UNL     1      47.165   2.530  14.435  0.00  0.00    +0.000 HD
ENDROOT
BRANCH   1   6
ATOM      3  C   UNL     1      44.422   4.996  11.836  0.00  0.00    +0.000 A 
ATOM      4  C   UNL     1      45.048   5.831  12.758  0.00  0.00    +0.000 A 
ATOM      5  N   UNL     1      45.994   5.398  13.629  0.00  0.00    +0.000 NA
ATOM      6  C   UNL     1      46.306   4.087  13.582  0.00  0.00    +0.000 A 
ATOM      7  C   UNL     1      45.648   3.248  12.674  0.00  0.00    +0.000 A 
ATOM      8  N   UNL     1      44.713   3.674  11.782  0.00  0.00    +0.000 NA
BRANCH   3   9
ATOM      9  C   UNL     1      43.404   5.549  10.871  0.00  0.00    +0.000 C 
BRANCH   9  10
ATOM     10  N   UNL     1      42.735   6.753  11.375  0.00  0.00    +0.000 NA
ATOM     11  H   UNL     1      42.277   6.527  12.257  0.00  0.00    +0.000 HD
ATOM     12  H   UNL     1      41.983   6.993  10.728  0.00  0.00    +0.000 HD
ENDBRANCH   9  10
ENDBRANCH   3   9
ENDBRANCH   1   6
BRANCH   1  13
ATOM     13  C   UNL     1      47.141   4.049  15.873  0.00  0.00    +0.000 C 
BRANCH  13  14
ATOM     14  C   UNL     1      47.773   3.079  16.901  0.00  0.00    +0.000 C 
ATOM     15  F   UNL     1      46.752   2.500  17.610  0.00  0.00    +0.000 F 
ATOM     16  F   UNL     1      48.353   2.040  16.223  0.00  0.00    +0.000 F 
BRANCH  14  17
ATOM     17  C   UNL     1      48.764   3.784  17.807  0.00  0.00    +0.000 A 
ATOM     18  C   UNL     1      48.325   4.496  18.935  0.00  0.00    +0.000 A 
ATOM     19  C   UNL     1      49.243   5.121  19.782  0.00  0.00    +0.000 A 
ATOM     20  C   UNL     1      50.608   5.042  19.510  0.00  0.00    +0.000 A 
ATOM     21  C   UNL     1      51.056   4.355  18.386  0.00  0.00    +0.000 A 
ATOM     22  C   UNL     1      50.141   3.730  17.537  0.00  0.00    +0.000 A 
ENDBRANCH  14  17
ENDBRANCH  13  14
ENDBRANCH   1  13
TORSDOF 6
ENDMDL
