MODEL 1
REMARK VINA RESULT:    -7.080      0.000      0.000
REMARK INTER + INTRA:         -11.446
REMARK INTER:                 -10.392
REMARK INTRA:                  -1.054
REMARK UNBOUND:                -1.054
REMARK  Name = 
REMARK  10 active torsions:
REMARK  status: ('A' for Active; 'I' for Inactive)
REMARK    1  A    between atoms: C_1  and  C_2
REMARK    2  A    between atoms: C_2  and  C_3
REMARK    3  A    between atoms: C_3  and  N_4
REMARK    4  A    between atoms: C_5  and  C_7
REMARK    5  A    between atoms: C_10  and  O_11
REMARK    6  A    between atoms: O_11  and  C_12
REMARK    7  A    between atoms: C_12  and  C_13
REMARK    8  A    between atoms: C_13  and  C_14
REMARK    9  A    between atoms: C_13  and  C_15
REMARK   10  A    between atoms: C_19  and  C_20
REMARK                            x       y       z     vdW  Elec       q    Type
REMARK                         _______ _______ _______ _____ _____    ______ ____
ROOT
ATOM      1  O   UNL     1      43.627   4.623  12.837  0.00  0.00    +0.000 OA
ENDROOT
BRANCH   1   5
ATOM      2  C   UNL     1      47.321   6.414  13.142  0.00  0.00    +0.000 A 
ATOM      3  C   UNL     1      47.131   5.136  13.673  0.00  0.00    +0.000 A 
ATOM      4  C   UNL     1      45.873   4.538  13.574  0.00  0.00    +0.000 A 
ATOM      5  C   UNL     1      44.862   5.230  12.922  0.00  0.00    +0.000 A 
ATOM      6  N   UNL     1      45.010   6.475  12.423  0.00  0.00    +0.000 NA
ATOM      7  C   UNL     1      46.231   7.045  12.556  0.00  0.00    +0.000 A 
BRANCH   2   9
ATOM      8  N   UNL     1      48.755   8.176  12.285  0.00  0.00    +0.000 N 
ATOM      9  C   UNL     1      48.610   7.138  13.179  0.00  0.00    +0.000 C 
ATOM     10  O   UNL     1      49.460   6.823  14.004  0.00  0.00    +0.000 OA
ATOM     11  H   UNL     1      47.988   8.443  11.683  0.00  0.00    +0.000 HD
BRANCH   8  12
ATOM     12  C   UNL     1      49.969   8.964  12.226  0.00  0.00    +0.000 C 
BRANCH  12  14
ATOM     13  C   UNL     1      48.417  10.715  11.251  0.00  0.00    +0.000 C 
ATOM     14  C   UNL     1      49.836  10.166  11.295  0.00  0.00    +0.000 C 
ENDBRANCH  12  14
ENDBRANCH   8  12
ENDBRANCH   2   9
ENDBRANCH   1   5
BRANCH   1  15
ATOM     15  C   UNL     1      43.119   4.642  11.497  0.00  0.00    +0.000 C 
BRANCH  15  16
ATOM     16  C   UNL     1      43.416   3.321  10.758  0.00  0.00    +0.000 C 
ATOM     17  C   UNL     1      43.743   2.194  11.743  0.00  0.00    +0.000 C 
BRANCH  16  18
ATOM     18  C   UNL     1      44.480   3.453   9.684  0.00  0.00    +0.000 A 
ATOM     19  C   UNL     1      44.878   4.689   9.181  0.00  0.00    +0.000 A 
ATOM     20  N   UNL     1      45.833   4.860   8.237  0.00  0.00    +0.000 NA
ATOM     21  C   UNL     1      46.435   3.740   7.770  0.00  0.00    +0.000 A 
ATOM     22  C   UNL     1      46.129   2.456   8.193  0.00  0.00    +0.000 A 
ATOM     23  C   UNL     1      45.129   2.323   9.166  0.00  0.00    +0.000 A 
BRANCH  22  24
ATOM     24  C   UNL     1      46.804   1.241   7.674  0.00  0.00    +0.000 C 
ATOM     25  N   UNL     1      47.852   1.376   6.806  0.00  0.00    +0.000 N 
ATOM     26  O   UNL     1      46.437   0.121   8.015  0.00  0.00    +0.000 OA
ATOM     27  H   UNL     1      48.254   2.244   6.488  0.00  0.00    +0.000 HD
ATOM     28  H   UNL     1      48.290   0.519   6.492  0.00  0.00    +0.000 HD
ENDBRANCH  22  24
ENDBRANCH  16  18
ENDBRANCH  15  16
ENDBRANCH   1  15
TORSDOF 8
ENDMDL
MODEL 2
REMARK VINA RESULT:    -6.777      2.385      2.942
REMARK INTER + INTRA:         -11.001
REMARK INTER:                 -10.082
REMARK INTRA:                  -0.919
REMARK UNBOUND:                -1.054
REMARK  Name = 
REMARK  10 active torsions:
REMARK  status: ('A' for Active; 'I' for Inactive)
REMARK    1  A    between atoms: C_1  and  C_2
REMARK    2  A    between atoms: C_2  and  C_3
REMARK    3  A    between atoms: C_3  and  N_4
REMARK    4  A    between atoms: C_5  and  C_7
REMARK    5  A    between atoms: C_10  and  O_11
REMARK    6  A    between atoms: O_11  and  C_12
REMARK    7  A    between atoms: C_12  and  C_13
REMARK    8  A    between atoms: C_13  and  C_14
REMARK    9  A    between atoms: C_13  and  C_15
REMARK   10  A    between atoms: C_19  and  C_20
REMARK                            x       y       z     vdW  Elec       q    Type
REMARK                         _______ _______ _______ _____ _____    ______ ____
ROOT
ATOM      1  O   UNL     1      45.286   3.428  12.879  0.00  0.00    +0.000 OA
ENDROOT
BRANCH   1   5
ATOM      2  C   UNL     1      47.901   6.049  14.678  0.00  0.00    +0.000 A 
ATOM      3  C   UNL     1      47.454   6.308  13.380  0.00  0.00    +0.000 A 
ATOM      4  C   UNL     1      46.573   5.410  12.773  0.00  0.00    +0.000 A 
ATOM      5  C   UNL     1      46.154   4.304  13.498  0.00  0.00    +0.000 A 
ATOM      6  N   UNL     1      46.589   4.016  14.742  0.00  0.00    +0.000 NA
ATOM      7  C   UNL     1      47.464   4.887  15.299  0.00  0.00    +0.000 A 
BRANCH   2   9
ATOM      8  N   UNL     1      48.577   7.080  16.770  0.00  0.00    +0.000 N 
ATOM      9  C   UNL     1      48.823   6.934  15.422  0.00  0.00    +0.000 C 
ATOM     10  O   UNL     1      49.766   7.458  14.839  0.00  0.00    +0.000 OA
ATOM     11  H   UNL     1      47.834   6.558  17.213  0.00  0.00    +0.000 HD
BRANCH   8  12
ATOM     12  C   UNL     1      49.412   7.916  17.609  0.00  0.00    +0.000 C 
BRANCH  12  14
ATOM     13  C   UNL     1      47.405   8.674  18.960  0.00  0.00    +0.000 C 
ATOM     14  C   UNL     1      48.646   9.102  18.190  0.00  0.00    +0.000 C 
ENDBRANCH  12  14
ENDBRANCH   8  12
ENDBRANCH   2   9
ENDBRANCH   1   5
BRANCH   1  15
ATOM     15  C   UNL     1      44.227   4.121  12.204  0.00  0.00    +0.000 C 
BRANCH  15  16
ATOM     16  C   UNL     1      43.738   3.341  10.966  0.00  0.00    +0.000 C 
ATOM     17  C   UNL     1      43.419   1.884  11.316  0.00  0.00    +0.000 C 
BRANCH  16  18
ATOM     18  C   UNL     1      44.676   3.440   9.777  0.00  0.00    +0.000 A 
ATOM     19  C   UNL     1      44.981   4.657   9.172  0.00  0.00    +0.000 A 
ATOM     20  N   UNL     1      45.824   4.798   8.122  0.00  0.00    +0.000 NA
ATOM     21  C   UNL     1      46.404   3.669   7.649  0.00  0.00    +0.000 A 
ATOM     22  C   UNL     1      46.183   2.402   8.168  0.00  0.00    +0.000 A 
ATOM     23  C   UNL     1      45.297   2.299   9.250  0.00  0.00    +0.000 A 
BRANCH  22  24
ATOM     24  C   UNL     1      46.833   1.177   7.641  0.00  0.00    +0.000 C 
ATOM     25  N   UNL     1      47.874   1.297   6.762  0.00  0.00    +0.000 N 
ATOM     26  O   UNL     1      46.451   0.063   7.984  0.00  0.00    +0.000 OA
ATOM     27  H   UNL     1      48.288   2.159   6.442  0.00  0.00    +0.000 HD
ATOM     28  H   UNL     1      48.295   0.433   6.444  0.00  0.00    +0.000 HD
ENDBRANCH  22  24
ENDBRANCH  16  18
ENDBRANCH  15  16
ENDBRANCH   1  15
TORSDOF 8
ENDMDL
MODEL 3
REMARK VINA RESULT:    -6.698      4.560      8.205
REMARK INTER + INTRA:         -10.885
REMARK INTER:                 -10.222
REMARK INTRA:                  -0.663
REMARK UNBOUND:                -1.054
REMARK  Name = 
REMARK  10 active torsions:
REMARK  status: ('A' for Active; 'I' for Inactive)
REMARK    1  A    between atoms: C_1  and  C_2
REMARK    2  A    between atoms: C_2  and  C_3
REMARK    3  A    between atoms: C_3  and  N_4
REMARK    4  A    between atoms: C_5  and  C_7
REMARK    5  A    between atoms: C_10  and  O_11
REMARK    6  A    between atoms: O_11  and  C_12
REMARK    7  A    between atoms: C_12  and  C_13
REMARK    8  A    between atoms: C_13  and  C_14
REMARK    9  A    between atoms: C_13  and  C_15
REMARK   10  A    between atoms: C_19  and  C_20
REMARK                            x       y       z     vdW  Elec       q    Type
REMARK                         _______ _______ _______ _____ _____    ______ ____
ROOT
ATOM      1  O   UNL     1      47.544   4.824  15.235  0.00  0.00    +0.000 OA
ENDROOT
BRANCH   1   5
ATOM      2  C   UNL     1      45.417   4.365  11.740  0.00  0.00    +0.000 A 
ATOM      3  C   UNL     1      45.800   5.645  12.148  0.00  0.00    +0.000 A 
ATOM      4  C   UNL     1      46.515   5.794  13.339  0.00  0.00    +0.000 A 
ATOM      5  C   UNL     1      46.841   4.654  14.060  0.00  0.00    +0.000 A 
ATOM      6  N   UNL     1      46.462   3.410  13.704  0.00  0.00    +0.000 NA
ATOM      7  C   UNL     1      45.747   3.294  12.560  0.00  0.00    +0.000 A 
BRANCH   2   9
ATOM      8  N   UNL     1      45.410   4.058   9.332  0.00  0.00    +0.000 N 
ATOM      9  C   UNL     1      44.671   4.088  10.495  0.00  0.00    +0.000 C 
ATOM     10  O   UNL     1      43.467   3.863  10.545  0.00  0.00    +0.000 OA
ATOM     11  H   UNL     1      46.414   4.170   9.362  0.00  0.00    +0.000 HD
BRANCH   8  12
ATOM     12  C   UNL     1      44.795   3.792   8.047  0.00  0.00    +0.000 C 
BRANCH  12  14
ATOM     13  C   UNL     1      46.635   2.127   7.533  0.00  0.00    +0.000 C 
ATOM     14  C   UNL     1      45.802   3.290   7.016  0.00  0.00    +0.000 C 
ENDBRANCH  12  14
ENDBRANCH   8  12
ENDBRANCH   2   9
ENDBRANCH   1   5
BRANCH   1  15
ATOM     15  C   UNL     1      47.439   3.675  16.085  0.00  0.00    +0.000 C 
BRANCH  15  16
ATOM     16  C   UNL     1      48.030   3.947  17.484  0.00  0.00    +0.000 C 
ATOM     17  C   UNL     1      47.481   5.250  18.076  0.00  0.00    +0.000 C 
BRANCH  16  18
ATOM     18  C   UNL     1      49.547   3.911  17.520  0.00  0.00    +0.000 A 
ATOM     19  C   UNL     1      50.317   5.071  17.504  0.00  0.00    +0.000 A 
ATOM     20  N   UNL     1      51.670   5.091  17.551  0.00  0.00    +0.000 NA
ATOM     21  C   UNL     1      52.296   3.892  17.626  0.00  0.00    +0.000 A 
ATOM     22  C   UNL     1      51.640   2.671  17.652  0.00  0.00    +0.000 A 
ATOM     23  C   UNL     1      50.239   2.694  17.593  0.00  0.00    +0.000 A 
BRANCH  22  24
ATOM     24  C   UNL     1      52.342   1.367  17.741  0.00  0.00    +0.000 C 
ATOM     25  N   UNL     1      51.637   0.250  18.099  0.00  0.00    +0.000 N 
ATOM     26  O   UNL     1      53.540   1.277  17.497  0.00  0.00    +0.000 OA
ATOM     27  H   UNL     1      50.648   0.205  18.288  0.00  0.00    +0.000 HD
ATOM     28  H   UNL     1      52.156  -0.618  18.130  0.00  0.00    +0.000 HD
ENDBRANCH  22  24
ENDBRANCH  16  18
ENDBRANCH  15  16
ENDBRANCH   1  15
TORSDOF 8
ENDMDL
MODEL 4
REMARK VINA RESULT:    -6.690      2.586      3.903
REMARK INTER + INTRA:         -10.873
REMARK INTER:                 -10.168
REMARK INTRA:                  -0.705
REMARK UNBOUND:                -1.054
REMARK  Name = 
REMARK  10 active torsions:
REMARK  status: ('A' for Active; 'I' for Inactive)
REMARK    1  A    between atoms: C_1  and  C_2
REMARK    2  A    between atoms: C_2  and  C_3
REMARK    3  A    between atoms: C_3  and  N_4
REMARK    4  A    between atoms: C_5  and  C_7
REMARK    5  A    between atoms: C_10  and  O_11
REMARK    6  A    between atoms: O_11  and  C_12
REMARK    7  A    between atoms: C_12  and  C_13
REMARK    8  A    between atoms: C_13  and  C_14
REMARK    9  A    between atoms: C_13  and  C_15
REMARK   10  A    between atoms: C_19  and  C_20
REMARK                            x       y       z     vdW  Elec       q    Type
REMARK                         _______ _______ _______ _____ _____    ______ ____
ROOT
ATOM      1  O   UNL     1      45.186   6.512  11.161  0.00  0.00    +0.000 OA
ENDROOT
BRANCH   1   5
ATOM      2  C   UNL     1      47.664   6.102  14.422  0.00  0.00    +0.000 A 
ATOM      3  C   UNL     1      46.861   5.028  14.031  0.00  0.00    +0.000 A 
ATOM      4  C   UNL     1      46.017   5.177  12.928  0.00  0.00    +0.000 A 
ATOM      5  C   UNL     1      46.030   6.385  12.245  0.00  0.00    +0.000 A 
ATOM      6  N   UNL     1      46.775   7.446  12.616  0.00  0.00    +0.000 NA
ATOM      7  C   UNL     1      47.565   7.286  13.704  0.00  0.00    +0.000 A 
BRANCH   2   9
ATOM      8  N   UNL     1      48.164   5.390  16.689  0.00  0.00    +0.000 N 
ATOM      9  C   UNL     1      48.603   6.054  15.564  0.00  0.00    +0.000 C 
ATOM     10  O   UNL     1      49.716   6.555  15.457  0.00  0.00    +0.000 OA
ATOM     11  H   UNL     1      47.267   4.924  16.690  0.00  0.00    +0.000 HD
BRANCH   8  12
ATOM     12  C   UNL     1      48.993   5.269  17.872  0.00  0.00    +0.000 C 
BRANCH  12  14
ATOM     13  C   UNL     1      47.866   2.999  17.844  0.00  0.00    +0.000 C 
ATOM     14  C   UNL     1      48.950   3.864  18.468  0.00  0.00    +0.000 C 
ENDBRANCH  12  14
ENDBRANCH   8  12
ENDBRANCH   2   9
ENDBRANCH   1   5
BRANCH   1  15
ATOM     15  C   UNL     1      45.675   5.791  10.022  0.00  0.00    +0.000 C 
BRANCH  15  16
ATOM     16  C   UNL     1      44.620   4.806   9.478  0.00  0.00    +0.000 C 
ATOM     17  C   UNL     1      43.572   4.469  10.544  0.00  0.00    +0.000 C 
BRANCH  16  18
ATOM     18  C   UNL     1      45.218   3.554   8.864  0.00  0.00    +0.000 A 
ATOM     19  C   UNL     1      44.896   2.278   9.317  0.00  0.00    +0.000 A 
ATOM     20  N   UNL     1      45.389   1.132   8.792  0.00  0.00    +0.000 NA
ATOM     21  C   UNL     1      46.247   1.258   7.750  0.00  0.00    +0.000 A 
ATOM     22  C   UNL     1      46.642   2.471   7.208  0.00  0.00    +0.000 A 
ATOM     23  C   UNL     1      46.114   3.634   7.787  0.00  0.00    +0.000 A 
BRANCH  22  24
ATOM     24  C   UNL     1      47.577   2.590   6.063  0.00  0.00    +0.000 C 
ATOM     25  N   UNL     1      48.918   2.419   6.274  0.00  0.00    +0.000 N 
ATOM     26  O   UNL     1      47.165   2.837   4.935  0.00  0.00    +0.000 OA
ATOM     27  H   UNL     1      49.358   2.181   7.149  0.00  0.00    +0.000 HD
ATOM     28  H   UNL     1      49.514   2.493   5.459  0.00  0.00    +0.000 HD
ENDBRANCH  22  24
ENDBRANCH  16  18
ENDBRANCH  15  16
ENDBRANCH   1  15
TORSDOF 8
ENDMDL
MODEL 5
REMARK VINA RESULT:    -6.427      3.053      4.104
REMARK INTER + INTRA:         -10.487
REMARK INTER:                  -9.795
REMARK INTRA:                  -0.691
REMARK UNBOUND:                -1.054
REMARK  Name = 
REMARK  10 active torsions:
REMARK  status: ('A' for Active; 'I' for Inactive)
REMARK    1  A    between atoms: C_1  and  C_2
REMARK    2  A    between atoms: C_2  and  C_3
REMARK    3  A    between atoms: C_3  and  N_4
REMARK    4  A    between atoms: C_5  and  C_7
REMARK    5  A    between atoms: C_10  and  O_11
REMARK    6  A    between atoms: O_11  and  C_12
REMARK    7  A    between atoms: C_12  and  C_13
REMARK    8  A    between atoms: C_13  and  C_14
REMARK    9  A    between atoms: C_13  and  C_15
REMARK   10  A    between atoms: C_19  and  C_20
REMARK                            x       y       z     vdW  Elec       q    Type
REMARK                         _______ _______ _______ _____ _____    ______ ____
ROOT
ATOM      1  O   UNL     1      46.224   5.785  11.420  0.00  0.00    +0.000 OA
ENDROOT
BRANCH   1   5
ATOM      2  C   UNL     1      47.685   5.282  15.235  0.00  0.00    +0.000 A 
ATOM      3  C   UNL     1      46.766   4.362  14.725  0.00  0.00    +0.000 A 
ATOM      4  C   UNL     1      46.268   4.543  13.432  0.00  0.00    +0.000 A 
ATOM      5  C   UNL     1      46.730   5.623  12.693  0.00  0.00    +0.000 A 
ATOM      6  N   UNL     1      47.597   6.540  13.169  0.00  0.00    +0.000 NA
ATOM      7  C   UNL     1      48.044   6.358  14.434  0.00  0.00    +0.000 A 
BRANCH   2   9
ATOM      8  N   UNL     1      47.420   5.300  17.649  0.00  0.00    +0.000 N 
ATOM      9  C   UNL     1      48.285   5.183  16.583  0.00  0.00    +0.000 C 
ATOM     10  O   UNL     1      49.487   4.967  16.698  0.00  0.00    +0.000 OA
ATOM     11  H   UNL     1      46.427   5.394  17.492  0.00  0.00    +0.000 HD
BRANCH   8  12
ATOM     12  C   UNL     1      47.886   5.215  19.019  0.00  0.00    +0.000 C 
BRANCH  12  14
ATOM     13  C   UNL     1      49.583   6.957  19.734  0.00  0.00    +0.000 C 
ATOM     14  C   UNL     1      48.109   6.591  19.641  0.00  0.00    +0.000 C 
ENDBRANCH  12  14
ENDBRANCH   8  12
ENDBRANCH   2   9
ENDBRANCH   1   5
BRANCH   1  15
ATOM     15  C   UNL     1      45.016   6.556  11.425  0.00  0.00    +0.000 C 
BRANCH  15  16
ATOM     16  C   UNL     1      43.856   5.800  10.744  0.00  0.00    +0.000 C 
ATOM     17  C   UNL     1      42.662   5.643  11.692  0.00  0.00    +0.000 C 
BRANCH  16  18
ATOM     18  C   UNL     1      44.271   4.471  10.140  0.00  0.00    +0.000 A 
ATOM     19  C   UNL     1      43.777   3.256  10.609  0.00  0.00    +0.000 A 
ATOM     20  N   UNL     1      44.104   2.048  10.093  0.00  0.00    +0.000 NA
ATOM     21  C   UNL     1      44.963   2.043   9.046  0.00  0.00    +0.000 A 
ATOM     22  C   UNL     1      45.519   3.185   8.489  0.00  0.00    +0.000 A 
ATOM     23  C   UNL     1      45.161   4.415   9.058  0.00  0.00    +0.000 A 
BRANCH  22  24
ATOM     24  C   UNL     1      46.454   3.162   7.337  0.00  0.00    +0.000 C 
ATOM     25  N   UNL     1      47.304   2.101   7.186  0.00  0.00    +0.000 N 
ATOM     26  O   UNL     1      46.474   4.077   6.522  0.00  0.00    +0.000 OA
ATOM     27  H   UNL     1      47.347   1.284   7.776  0.00  0.00    +0.000 HD
ATOM     28  H   UNL     1      47.911   2.122   6.377  0.00  0.00    +0.000 HD
ENDBRANCH  22  24
ENDBRANCH  16  18
ENDBRANCH  15  16
ENDBRANCH   1  15
TORSDOF 8
ENDMDL
MODEL 6
REMARK VINA RESULT:    -6.392      4.018      8.103
REMARK INTER + INTRA:         -10.436
REMARK INTER:                  -9.611
REMARK INTRA:                  -0.825
REMARK UNBOUND:                -1.054
REMARK  Name = 
REMARK  10 active torsions:
REMARK  status: ('A' for Active; 'I' for Inactive)
REMARK    1  A    between atoms: C_1  and  C_2
REMARK    2  A    between atoms: C_2  and  C_3
REMARK    3  A    between atoms: C_3  and  N_4
REMARK    4  A    between atoms: C_5  and  C_7
REMARK    5  A    between atoms: C_10  and  O_11
REMARK    6  A    between atoms: O_11  and  C_12
REMARK    7  A    between atoms: C_12  and  C_13
REMARK    8  A    between atoms: C_13  and  C_14
REMARK    9  A    between atoms: C_13  and  C_15
REMARK   10  A    between atoms: C_19  and  C_20
REMARK                            x       y       z     vdW  Elec       q    Type
REMARK                         _______ _______ _______ _____ _____    ______ ____
ROOT
ATOM      1  O   UNL     1      49.226   7.135  14.477  0.00  0.00    +0.000 OA
ENDROOT
BRANCH   1   5
ATOM      2  C   UNL     1      46.134   4.950  12.863  0.00  0.00    +0.000 A 
ATOM      3  C   UNL     1      46.550   6.123  12.229  0.00  0.00    +0.000 A 
ATOM      4  C   UNL     1      47.594   6.864  12.786  0.00  0.00    +0.000 A 
ATOM      5  C   UNL     1      48.198   6.387  13.941  0.00  0.00    +0.000 A 
ATOM      6  N   UNL     1      47.800   5.273  14.588  0.00  0.00    +0.000 NA
ATOM      7  C   UNL     1      46.768   4.586  14.043  0.00  0.00    +0.000 A 
BRANCH   2   9
ATOM      8  N   UNL     1      45.092   3.767  11.016  0.00  0.00    +0.000 N 
ATOM      9  C   UNL     1      45.049   4.082  12.357  0.00  0.00    +0.000 C 
ATOM     10  O   UNL     1      44.200   3.656  13.132  0.00  0.00    +0.000 OA
ATOM     11  H   UNL     1      45.863   4.081  10.442  0.00  0.00    +0.000 HD
BRANCH   8  12
ATOM     12  C   UNL     1      44.089   2.921  10.401  0.00  0.00    +0.000 C 
BRANCH  12  14
ATOM     13  C   UNL     1      45.005   3.383   8.083  0.00  0.00    +0.000 C 
ATOM     14  C   UNL     1      44.567   2.322   9.081  0.00  0.00    +0.000 C 
ENDBRANCH  12  14
ENDBRANCH   8  12
ENDBRANCH   2   9
ENDBRANCH   1   5
BRANCH   1  15
ATOM     15  C   UNL     1      48.924   7.572  15.809  0.00  0.00    +0.000 C 
BRANCH  15  16
ATOM     16  C   UNL     1      49.979   7.079  16.821  0.00  0.00    +0.000 C 
ATOM     17  C   UNL     1      51.369   6.998  16.181  0.00  0.00    +0.000 C 
BRANCH  16  18
ATOM     18  C   UNL     1      49.600   5.780  17.507  0.00  0.00    +0.000 A 
ATOM     19  C   UNL     1      48.794   5.747  18.642  0.00  0.00    +0.000 A 
ATOM     20  N   UNL     1      48.415   4.614  19.278  0.00  0.00    +0.000 NA
ATOM     21  C   UNL     1      48.854   3.444  18.755  0.00  0.00    +0.000 A 
ATOM     22  C   UNL     1      49.657   3.347  17.629  0.00  0.00    +0.000 A 
ATOM     23  C   UNL     1      50.033   4.544  17.005  0.00  0.00    +0.000 A 
BRANCH  22  24
ATOM     24  C   UNL     1      50.123   2.056  17.065  0.00  0.00    +0.000 C 
ATOM     25  N   UNL     1      50.975   1.275  17.797  0.00  0.00    +0.000 N 
ATOM     26  O   UNL     1      49.755   1.681  15.957  0.00  0.00    +0.000 OA
ATOM     27  H   UNL     1      51.311   1.469  18.727  0.00  0.00    +0.000 HD
ATOM     28  H   UNL     1      51.252   0.396  17.377  0.00  0.00    +0.000 HD
ENDBRANCH  22  24
ENDBRANCH  16  18
ENDBRANCH  15  16
ENDBRANCH   1  15
TORSDOF 8
ENDMDL
MODEL 7
REMARK VINA RESULT:    -6.240      1.822      6.565
REMARK INTER + INTRA:         -10.212
REMARK INTER:                  -9.893
REMARK INTRA:                  -0.319
REMARK UNBOUND:                -1.054
REMARK  Name = 
REMARK  10 active torsions:
REMARK  status: ('A' for Active; 'I' for Inactive)
REMARK    1  A    between atoms: C_1  and  C_2
REMARK    2  A    between atoms: C_2  and  C_3
REMARK    3  A    between atoms: C_3  and  N_4
REMARK    4  A    between atoms: C_5  and  C_7
REMARK    5  A    between atoms: C_10  and  O_11
REMARK    6  A    between atoms: O_11  and  C_12
REMARK    7  A    between atoms: C_12  and  C_13
REMARK    8  A    between atoms: C_13  and  C_14
REMARK    9  A    between atoms: C_13  and  C_15
REMARK   10  A    between atoms: C_19  and  C_20
REMARK                            x       y       z     vdW  Elec       q    Type
REMARK                         _______ _______ _______ _____ _____    ______ ____
ROOT
ATOM      1  O   UNL     1      42.503   4.987  11.836  0.00  0.00    +0.000 OA
ENDROOT
BRANCH   1   5
ATOM      2  C   UNL     1      44.874   2.694   9.373  0.00  0.00    +0.000 A 
ATOM      3  C   UNL     1      44.716   4.055   9.101  0.00  0.00    +0.000 A 
ATOM      4  C   UNL     1      43.904   4.825   9.936  0.00  0.00    +0.000 A 
ATOM      5  C   UNL     1      43.304   4.209  11.025  0.00  0.00    +0.000 A 
ATOM      6  N   UNL     1      43.418   2.893  11.297  0.00  0.00    +0.000 NA
ATOM      7  C   UNL     1      44.189   2.162  10.457  0.00  0.00    +0.000 A 
BRANCH   2   9
ATOM      8  N   UNL     1      46.771   2.368   7.893  0.00  0.00    +0.000 N 
ATOM      9  C   UNL     1      45.718   1.787   8.566  0.00  0.00    +0.000 C 
ATOM     10  O   UNL     1      45.482   0.584   8.557  0.00  0.00    +0.000 OA
ATOM     11  H   UNL     1      46.967   3.353   8.004  0.00  0.00    +0.000 HD
BRANCH   8  12
ATOM     12  C   UNL     1      47.673   1.585   7.073  0.00  0.00    +0.000 C 
BRANCH  12  14
ATOM     13  C   UNL     1      46.920   3.290   5.355  0.00  0.00    +0.000 C 
ATOM     14  C   UNL     1      47.971   2.257   5.735  0.00  0.00    +0.000 C 
ENDBRANCH  12  14
ENDBRANCH   8  12
ENDBRANCH   2   9
ENDBRANCH   1   5
BRANCH   1  15
ATOM     15  C   UNL     1      43.277   5.739  12.780  0.00  0.00    +0.000 C 
BRANCH  15  16
ATOM     16  C   UNL     1      44.791   5.546  12.554  0.00  0.00    +0.000 C 
ATOM     17  C   UNL     1      45.417   4.702  13.670  0.00  0.00    +0.000 C 
BRANCH  16  18
ATOM     18  C   UNL     1      45.544   6.847  12.346  0.00  0.00    +0.000 A 
ATOM     19  C   UNL     1      44.903   8.084  12.347  0.00  0.00    +0.000 A 
ATOM     20  N   UNL     1      45.532   9.271  12.184  0.00  0.00    +0.000 NA
ATOM     21  C   UNL     1      46.876   9.232  12.017  0.00  0.00    +0.000 A 
ATOM     22  C   UNL     1      47.626   8.065  12.001  0.00  0.00    +0.000 A 
ATOM     23  C   UNL     1      46.934   6.857  12.166  0.00  0.00    +0.000 A 
BRANCH  22  24
ATOM     24  C   UNL     1      49.098   8.042  11.824  0.00  0.00    +0.000 C 
ATOM     25  N   UNL     1      49.805   6.945  12.234  0.00  0.00    +0.000 N 
ATOM     26  O   UNL     1      49.688   8.989  11.314  0.00  0.00    +0.000 OA
ATOM     27  H   UNL     1      49.419   6.102  12.632  0.00  0.00    +0.000 HD
ATOM     28  H   UNL     1      50.805   6.969  12.077  0.00  0.00    +0.000 HD
ENDBRANCH  22  24
ENDBRANCH  16  18
ENDBRANCH  15  16
ENDBRANCH   1  15
TORSDOF 8
ENDMDL
MODEL 8
REMARK VINA RESULT:    -6.111      3.264      7.923
REMARK INTER + INTRA:         -10.024
REMARK INTER:                  -9.211
REMARK INTRA:                  -0.813
REMARK UNBOUND:                -1.054
REMARK  Name = 
REMARK  10 active torsions:
REMARK  status: ('A' for Active; 'I' for Inactive)
REMARK    1  A    between atoms: C_1  and  C_2
REMARK    2  A    between atoms: C_2  and  C_3
REMARK    3  A    between atoms: C_3  and  N_4
REMARK    4  A    between atoms: C_5  and  C_7
REMARK    5  A    between atoms: C_10  and  O_11
REMARK    6  A    between atoms: O_11  and  C_12
REMARK    7  A    between atoms: C_12  and  C_13
REMARK    8  A    between atoms: C_13  and  C_14
REMARK    9  A    between atoms: C_13  and  C_15
REMARK   10  A    between atoms: C_19  and  C_20
REMARK                            x       y       z     vdW  Elec       q    Type
REMARK                         _______ _______ _______ _____ _____    ______ ____
ROOT
ATOM      1  O   UNL     1      47.456   7.569  13.972  0.00  0.00    +0.000 OA
ENDROOT
BRANCH   1   5
ATOM      2  C   UNL     1      45.374   4.971  11.550  0.00  0.00    +0.000 A 
ATOM      3  C   UNL     1      45.980   6.097  10.988  0.00  0.00    +0.000 A 
ATOM      4  C   UNL     1      46.678   6.979  11.817  0.00  0.00    +0.000 A 
ATOM      5  C   UNL     1      46.765   6.684  13.170  0.00  0.00    +0.000 A 
ATOM      6  N   UNL     1      46.169   5.618  13.743  0.00  0.00    +0.000 NA
ATOM      7  C   UNL     1      45.475   4.793  12.923  0.00  0.00    +0.000 A 
BRANCH   2   9
ATOM      8  N   UNL     1      45.257   3.454   9.658  0.00  0.00    +0.000 N 
ATOM      9  C   UNL     1      44.622   3.966  10.769  0.00  0.00    +0.000 C 
ATOM     10  O   UNL     1      43.513   3.607  11.147  0.00  0.00    +0.000 OA
ATOM     11  H   UNL     1      46.205   3.727   9.441  0.00  0.00    +0.000 HD
BRANCH   8  12
ATOM     12  C   UNL     1      44.627   2.459   8.813  0.00  0.00    +0.000 C 
BRANCH  12  14
ATOM     13  C   UNL     1      46.728   1.732   7.596  0.00  0.00    +0.000 C 
ATOM     14  C   UNL     1      45.566   1.303   8.480  0.00  0.00    +0.000 C 
ENDBRANCH  12  14
ENDBRANCH   8  12
ENDBRANCH   2   9
ENDBRANCH   1   5
BRANCH   1  15
ATOM     15  C   UNL     1      48.865   7.302  13.962  0.00  0.00    +0.000 C 
BRANCH  15  16
ATOM     16  C   UNL     1      49.509   7.604  15.331  0.00  0.00    +0.000 C 
ATOM     17  C   UNL     1      51.028   7.406  15.287  0.00  0.00    +0.000 C 
BRANCH  16  18
ATOM     18  C   UNL     1      48.877   6.841  16.481  0.00  0.00    +0.000 A 
ATOM     19  C   UNL     1      48.555   7.452  17.690  0.00  0.00    +0.000 A 
ATOM     20  N   UNL     1      47.976   6.819  18.737  0.00  0.00    +0.000 NA
ATOM     21  C   UNL     1      47.692   5.504  18.573  0.00  0.00    +0.000 A 
ATOM     22  C   UNL     1      47.961   4.786  17.417  0.00  0.00    +0.000 A 
ATOM     23  C   UNL     1      48.569   5.478  16.360  0.00  0.00    +0.000 A 
BRANCH  22  24
ATOM     24  C   UNL     1      47.637   3.348  17.254  0.00  0.00    +0.000 C 
ATOM     25  N   UNL     1      48.627   2.475  16.896  0.00  0.00    +0.000 N 
ATOM     26  O   UNL     1      46.497   2.933  17.436  0.00  0.00    +0.000 OA
ATOM     27  H   UNL     1      49.599   2.702  16.755  0.00  0.00    +0.000 HD
ATOM     28  H   UNL     1      48.361   1.502  16.813  0.00  0.00    +0.000 HD
ENDBRANCH  22  24
ENDBRANCH  16  18
ENDBRANCH  15  16
ENDBRANCH   1  15
TORSDOF 8
ENDMDL
MODEL 9
REMARK VINA RESULT:    -6.098      2.543      3.263
REMARK INTER + INTRA:         -10.004
REMARK INTER:                  -9.289
REMARK INTRA:                  -0.715
REMARK UNBOUND:                -1.054
REMARK  Name = 
REMARK  10 active torsions:
REMARK  status: ('A' for Active; 'I' for Inactive)
REMARK    1  A    between atoms: C_1  and  C_2
REMARK    2  A    between atoms: C_2  and  C_3
REMARK    3  A    between atoms: C_3  and  N_4
REMARK    4  A    between atoms: C_5  and  C_7
REMARK    5  A    between atoms: C_10  and  O_11
REMARK    6  A    between atoms: O_11  and  C_12
REMARK    7  A    between atoms: C_12  and  C_13
REMARK    8  A    between atoms: C_13  and  C_14
REMARK    9  A    between atoms: C_13  and  C_15
REMARK   10  A    between atoms: C_19  and  C_20
REMARK                            x       y       z     vdW  Elec       q    Type
REMARK                         _______ _______ _______ _____ _____    ______ ____
ROOT
ATOM      1  O   UNL     1      45.129   6.631  11.497  0.00  0.00    +0.000 OA
ENDROOT
BRANCH   1   5
ATOM      2  C   UNL     1      48.170   7.285  14.193  0.00  0.00    +0.000 A 
ATOM      3  C   UNL     1      47.875   5.979  13.795  0.00  0.00    +0.000 A 
ATOM      4  C   UNL     1      46.837   5.764  12.886  0.00  0.00    +0.000 A 
ATOM      5  C   UNL     1      46.153   6.866  12.391  0.00  0.00    +0.000 A 
ATOM      6  N   UNL     1      46.399   8.134  12.778  0.00  0.00    +0.000 NA
ATOM      7  C   UNL     1      47.393   8.315  13.680  0.00  0.00    +0.000 A 
BRANCH   2   9
ATOM      8  N   UNL     1      50.527   7.255  14.774  0.00  0.00    +0.000 N 
ATOM      9  C   UNL     1      49.253   7.631  15.138  0.00  0.00    +0.000 C 
ATOM     10  O   UNL     1      48.992   8.256  16.161  0.00  0.00    +0.000 OA
ATOM     11  H   UNL     1      50.694   6.815  13.879  0.00  0.00    +0.000 HD
BRANCH   8  12
ATOM     12  C   UNL     1      51.674   7.541  15.613  0.00  0.00    +0.000 C 
BRANCH  12  14
ATOM     13  C   UNL     1      53.277   6.605  17.339  0.00  0.00    +0.000 C 
ATOM     14  C   UNL     1      51.946   6.429  16.622  0.00  0.00    +0.000 C 
ENDBRANCH  12  14
ENDBRANCH   8  12
ENDBRANCH   2   9
ENDBRANCH   1   5
BRANCH   1  15
ATOM     15  C   UNL     1      45.597   5.955  10.323  0.00  0.00    +0.000 C 
BRANCH  15  16
ATOM     16  C   UNL     1      44.514   5.028   9.732  0.00  0.00    +0.000 C 
ATOM     17  C   UNL     1      43.425   4.716  10.764  0.00  0.00    +0.000 C 
BRANCH  16  18
ATOM     18  C   UNL     1      45.074   3.762   9.108  0.00  0.00    +0.000 A 
ATOM     19  C   UNL     1      44.752   2.494   9.585  0.00  0.00    +0.000 A 
ATOM     20  N   UNL     1      45.211   1.338   9.053  0.00  0.00    +0.000 NA
ATOM     21  C   UNL     1      46.032   1.443   7.980  0.00  0.00    +0.000 A 
ATOM     22  C   UNL     1      46.422   2.647   7.412  0.00  0.00    +0.000 A 
ATOM     23  C   UNL     1      45.930   3.821   7.999  0.00  0.00    +0.000 A 
BRANCH  22  24
ATOM     24  C   UNL     1      47.317   2.743   6.233  0.00  0.00    +0.000 C 
ATOM     25  N   UNL     1      48.652   2.490   6.384  0.00  0.00    +0.000 N 
ATOM     26  O   UNL     1      46.875   3.043   5.129  0.00  0.00    +0.000 OA
ATOM     27  H   UNL     1      49.113   2.203   7.234  0.00  0.00    +0.000 HD
ATOM     28  H   UNL     1      49.219   2.552   5.547  0.00  0.00    +0.000 HD
ENDBRANCH  22  24
ENDBRANCH  16  18
ENDBRANCH  15  16
ENDBRANCH   1  15
TORSDOF 8
ENDMDL
