MODEL 1
REMARK VINA RESULT:    -7.999      0.000      0.000
REMARK INTER + INTRA:         -11.104
REMARK INTER:                 -10.337
REMARK INTRA:                  -0.768
REMARK UNBOUND:                -0.768
REMARK  Name = 
REMARK  6 active torsions:
REMARK  status: ('A' for Active; 'I' for Inactive)
REMARK    1  A    between atoms: C_1  and  C_2
REMARK    2  A    between atoms: C_2  and  C_3
REMARK    3  A    between atoms: C_8  and  C_9
REMARK    4  A    between atoms: C_9  and  N_10
REMARK    5  A    between atoms: N_10  and  C_11
REMARK    6  A    between atoms: C_14  and  C_15
REMARK                            x       y       z     vdW  Elec       q    Type
REMARK                         _______ _______ _______ _____ _____    ______ ____
ROOT
ATOM      1  N   UNL     1      43.769   4.856   9.904  0.00  0.00    +0.000 N 
ATOM      2  H   UNL     1      43.966   5.821   9.643  0.00  0.00    +0.000 HD
ENDROOT
BRANCH   1   3
ATOM      3  C   UNL     1      44.612   3.965   9.245  0.00  0.00    +0.000 A 
ATOM      4  C   UNL     1      45.587   4.500   8.394  0.00  0.00    +0.000 A 
ATOM      5  C   UNL     1      46.452   3.669   7.670  0.00  0.00    +0.000 A 
ATOM      6  C   UNL     1      46.383   2.285   7.816  0.00  0.00    +0.000 A 
ATOM      7  C   UNL     1      45.436   1.739   8.688  0.00  0.00    +0.000 A 
ATOM      8  C   UNL     1      44.562   2.577   9.398  0.00  0.00    +0.000 A 
BRANCH   6   9
ATOM      9  C   UNL     1      47.297   1.436   7.007  0.00  0.00    +0.000 C 
ATOM     10  N   UNL     1      48.376   2.046   6.428  0.00  0.00    +0.000 N 
ATOM     11  O   UNL     1      47.085   0.244   6.832  0.00  0.00    +0.000 OA
ATOM     12  H   UNL     1      48.455   3.048   6.342  0.00  0.00    +0.000 HD
ATOM     13  H   UNL     1      48.931   1.473   5.804  0.00  0.00    +0.000 HD
ENDBRANCH   6   9
ENDBRANCH   1   3
BRANCH   1  14
ATOM     14  C   UNL     1      43.521   4.716  11.337  0.00  0.00    +0.000 C 
BRANCH  14  20
ATOM     15  C   UNL     1      45.451   6.245  12.147  0.00  0.00    +0.000 A 
ATOM     16  C   UNL     1      46.667   6.361  12.853  0.00  0.00    +0.000 A 
ATOM     17  C   UNL     1      47.245   5.269  13.499  0.00  0.00    +0.000 A 
ATOM     18  C   UNL     1      46.611   4.036  13.456  0.00  0.00    +0.000 A 
ATOM     19  C   UNL     1      45.408   3.899  12.765  0.00  0.00    +0.000 A 
ATOM     20  C   UNL     1      44.801   4.992  12.105  0.00  0.00    +0.000 A 
BRANCH  15  22
ATOM     21  C   UNL     1      45.302   8.746  12.294  0.00  0.00    +0.000 C 
ATOM     22  C   UNL     1      44.906   7.503  11.511  0.00  0.00    +0.000 C 
ENDBRANCH  15  22
ENDBRANCH  14  20
ENDBRANCH   1  14
TORSDOF 5
ENDMDL
MODEL 2
REMARK VINA RESULT:    -7.968      0.553      2.163
REMARK INTER + INTRA:         -11.065
REMARK INTER:                 -10.084
REMARK INTRA:                  -0.981
REMARK UNBOUND:                -0.768
REMARK  Name = 
REMARK  6 active torsions:
REMARK  status: ('A' for Active; 'I' for Inactive)
REMARK    1  A    between atoms: C_1  and  C_2
REMARK    2  A    between atoms: C_2  and  C_3
REMARK    3  A    between atoms: C_8  and  C_9
REMARK    4  A    between atoms: C_9  and  N_10
REMARK    5  A    between atoms: N_10  and  C_11
REMARK    6  A    between atoms: C_14  and  C_15
REMARK                            x       y       z     vdW  Elec       q    Type
REMARK                         _______ _______ _______ _____ _____    ______ ____
ROOT
ATOM      1  N   UNL     1      43.650   4.836   9.902  0.00  0.00    +0.000 N 
ATOM      2  H   UNL     1      43.670   5.758   9.467  0.00  0.00    +0.000 HD
ENDROOT
BRANCH   1   3
ATOM      3  C   UNL     1      44.521   3.953   9.269  0.00  0.00    +0.000 A 
ATOM      4  C   UNL     1      45.475   4.492   8.396  0.00  0.00    +0.000 A 
ATOM      5  C   UNL     1      46.366   3.668   7.696  0.00  0.00    +0.000 A 
ATOM      6  C   UNL     1      46.343   2.287   7.888  0.00  0.00    +0.000 A 
ATOM      7  C   UNL     1      45.418   1.739   8.782  0.00  0.00    +0.000 A 
ATOM      8  C   UNL     1      44.519   2.570   9.467  0.00  0.00    +0.000 A 
BRANCH   6   9
ATOM      9  C   UNL     1      47.284   1.443   7.104  0.00  0.00    +0.000 C 
ATOM     10  N   UNL     1      48.367   2.061   6.543  0.00  0.00    +0.000 N 
ATOM     11  O   UNL     1      47.089   0.248   6.933  0.00  0.00    +0.000 OA
ATOM     12  H   UNL     1      48.437   3.064   6.451  0.00  0.00    +0.000 HD
ATOM     13  H   UNL     1      48.942   1.491   5.935  0.00  0.00    +0.000 HD
ENDBRANCH   6   9
ENDBRANCH   1   3
BRANCH   1  14
ATOM     14  C   UNL     1      43.613   4.919  11.359  0.00  0.00    +0.000 C 
BRANCH  14  20
ATOM     15  C   UNL     1      45.880   5.234  12.575  0.00  0.00    +0.000 A 
ATOM     16  C   UNL     1      46.880   6.121  13.029  0.00  0.00    +0.000 A 
ATOM     17  C   UNL     1      46.803   7.492  12.790  0.00  0.00    +0.000 A 
ATOM     18  C   UNL     1      45.724   8.005  12.084  0.00  0.00    +0.000 A 
ATOM     19  C   UNL     1      44.726   7.146  11.627  0.00  0.00    +0.000 A 
ATOM     20  C   UNL     1      44.782   5.752  11.853  0.00  0.00    +0.000 A 
BRANCH  15  22
ATOM     21  C   UNL     1      47.032   3.553  14.039  0.00  0.00    +0.000 C 
ATOM     22  C   UNL     1      46.084   3.766  12.868  0.00  0.00    +0.000 C 
ENDBRANCH  15  22
ENDBRANCH  14  20
ENDBRANCH   1  14
TORSDOF 5
ENDMDL
MODEL 3
REMARK VINA RESULT:    -6.235      3.557      6.632
REMARK INTER + INTRA:          -8.825
REMARK INTER:                  -8.025
REMARK INTRA:                  -0.801
REMARK UNBOUND:                -0.768
REMARK  Name = 
REMARK  6 active torsions:
REMARK  status: ('A' for Active; 'I' for Inactive)
REMARK    1  A    between atoms: C_1  and  C_2
REMARK    2  A    between atoms: C_2  and  C_3
REMARK    3  A    between atoms: C_8  and  C_9
REMARK    4  A    between atoms: C_9  and  N_10
REMARK    5  A    between atoms: N_10  and  C_11
REMARK    6  A    between atoms: C_14  and  C_15
REMARK                            x       y       z     vdW  Elec       q    Type
REMARK                         _______ _______ _______ _____ _____    ______ ____
ROOT
ATOM      1  N   UNL     1      46.541   6.453  11.439  0.00  0.00    +0.000 N 
ATOM      2  H   UNL     1      46.879   7.384  11.198  0.00  0.00    +0.000 HD
ENDROOT
BRANCH   1   3
ATOM      3  C   UNL     1      46.955   6.071  12.712  0.00  0.00    +0.000 A 
ATOM      4  C   UNL     1      46.410   4.899  13.250  0.00  0.00    +0.000 A 
ATOM      5  C   UNL     1      46.751   4.465  14.538  0.00  0.00    +0.000 A 
ATOM      6  C   UNL     1      47.677   5.178  15.297  0.00  0.00    +0.000 A 
ATOM      7  C   UNL     1      48.254   6.333  14.759  0.00  0.00    +0.000 A 
ATOM      8  C   UNL     1      47.895   6.770  13.475  0.00  0.00    +0.000 A 
BRANCH   6   9
ATOM      9  C   UNL     1      47.989   4.703  16.671  0.00  0.00    +0.000 C 
ATOM     10  N   UNL     1      47.157   5.099  17.681  0.00  0.00    +0.000 N 
ATOM     11  O   UNL     1      48.970   4.009  16.906  0.00  0.00    +0.000 OA
ATOM     12  H   UNL     1      46.494   5.853  17.577  0.00  0.00    +0.000 HD
ATOM     13  H   UNL     1      47.439   4.846  18.619  0.00  0.00    +0.000 HD
ENDBRANCH   6   9
ENDBRANCH   1   3
BRANCH   1  14
ATOM     14  C   UNL     1      45.157   6.249  11.021  0.00  0.00    +0.000 C 
BRANCH  14  20
ATOM     15  C   UNL     1      44.249   3.948  10.250  0.00  0.00    +0.000 A 
ATOM     16  C   UNL     1      44.308   2.892   9.315  0.00  0.00    +0.000 A 
ATOM     17  C   UNL     1      45.172   2.931   8.222  0.00  0.00    +0.000 A 
ATOM     18  C   UNL     1      45.993   4.035   8.038  0.00  0.00    +0.000 A 
ATOM     19  C   UNL     1      45.950   5.089   8.949  0.00  0.00    +0.000 A 
ATOM     20  C   UNL     1      45.080   5.074  10.063  0.00  0.00    +0.000 A 
BRANCH  15  22
ATOM     21  C   UNL     1      43.570   2.607  12.260  0.00  0.00    +0.000 C 
ATOM     22  C   UNL     1      43.254   3.807  11.378  0.00  0.00    +0.000 C 
ENDBRANCH  15  22
ENDBRANCH  14  20
ENDBRANCH   1  14
TORSDOF 5
ENDMDL
MODEL 4
REMARK VINA RESULT:    -5.953      3.015      6.073
REMARK INTER + INTRA:          -8.461
REMARK INTER:                  -7.386
REMARK INTRA:                  -1.074
REMARK UNBOUND:                -0.768
REMARK  Name = 
REMARK  6 active torsions:
REMARK  status: ('A' for Active; 'I' for Inactive)
REMARK    1  A    between atoms: C_1  and  C_2
REMARK    2  A    between atoms: C_2  and  C_3
REMARK    3  A    between atoms: C_8  and  C_9
REMARK    4  A    between atoms: C_9  and  N_10
REMARK    5  A    between atoms: N_10  and  C_11
REMARK    6  A    between atoms: C_14  and  C_15
REMARK                            x       y       z     vdW  Elec       q    Type
REMARK                         _______ _______ _______ _____ _____    ______ ____
ROOT
ATOM      1  N   UNL     1      44.773   2.807  11.292  0.00  0.00    +0.000 N 
ATOM      2  H   UNL     1      45.562   2.185  11.459  0.00  0.00    +0.000 HD
ENDROOT
BRANCH   1   3
ATOM      3  C   UNL     1      45.035   4.098  11.743  0.00  0.00    +0.000 A 
ATOM      4  C   UNL     1      44.076   5.086  11.486  0.00  0.00    +0.000 A 
ATOM      5  C   UNL     1      44.280   6.415  11.878  0.00  0.00    +0.000 A 
ATOM      6  C   UNL     1      45.435   6.773  12.573  0.00  0.00    +0.000 A 
ATOM      7  C   UNL     1      46.385   5.790  12.866  0.00  0.00    +0.000 A 
ATOM      8  C   UNL     1      46.181   4.464  12.455  0.00  0.00    +0.000 A 
BRANCH   6   9
ATOM      9  C   UNL     1      45.629   8.200  12.945  0.00  0.00    +0.000 C 
ATOM     10  N   UNL     1      46.543   8.477  13.924  0.00  0.00    +0.000 N 
ATOM     11  O   UNL     1      44.979   9.096  12.425  0.00  0.00    +0.000 OA
ATOM     12  H   UNL     1      46.915   7.769  14.540  0.00  0.00    +0.000 HD
ATOM     13  H   UNL     1      46.591   9.441  14.231  0.00  0.00    +0.000 HD
ENDBRANCH   6   9
ENDBRANCH   1   3
BRANCH   1  14
ATOM     14  C   UNL     1      44.174   2.592   9.978  0.00  0.00    +0.000 C 
BRANCH  14  20
ATOM     15  C   UNL     1      45.839   3.426   8.175  0.00  0.00    +0.000 A 
ATOM     16  C   UNL     1      46.812   3.101   7.205  0.00  0.00    +0.000 A 
ATOM     17  C   UNL     1      47.214   1.785   6.986  0.00  0.00    +0.000 A 
ATOM     18  C   UNL     1      46.653   0.763   7.739  0.00  0.00    +0.000 A 
ATOM     19  C   UNL     1      45.690   1.062   8.702  0.00  0.00    +0.000 A 
ATOM     20  C   UNL     1      45.269   2.389   8.945  0.00  0.00    +0.000 A 
BRANCH  15  22
ATOM     21  C   UNL     1      46.639   5.653   9.008  0.00  0.00    +0.000 C 
ATOM     22  C   UNL     1      45.503   4.889   8.343  0.00  0.00    +0.000 C 
ENDBRANCH  15  22
ENDBRANCH  14  20
ENDBRANCH   1  14
TORSDOF 5
ENDMDL
MODEL 5
REMARK VINA RESULT:    -5.846      2.929      4.608
REMARK INTER + INTRA:          -8.323
REMARK INTER:                  -6.952
REMARK INTRA:                  -1.371
REMARK UNBOUND:                -0.768
REMARK  Name = 
REMARK  6 active torsions:
REMARK  status: ('A' for Active; 'I' for Inactive)
REMARK    1  A    between atoms: C_1  and  C_2
REMARK    2  A    between atoms: C_2  and  C_3
REMARK    3  A    between atoms: C_8  and  C_9
REMARK    4  A    between atoms: C_9  and  N_10
REMARK    5  A    between atoms: N_10  and  C_11
REMARK    6  A    between atoms: C_14  and  C_15
REMARK                            x       y       z     vdW  Elec       q    Type
REMARK                         _______ _______ _______ _____ _____    ______ ____
ROOT
ATOM      1  N   UNL     1      44.810   8.190  12.109  0.00  0.00    +0.000 N 
ATOM      2  H   UNL     1      44.931   8.786  11.292  0.00  0.00    +0.000 HD
ENDROOT
BRANCH   1   3
ATOM      3  C   UNL     1      44.596   6.863  11.747  0.00  0.00    +0.000 A 
ATOM      4  C   UNL     1      43.672   6.123  12.497  0.00  0.00    +0.000 A 
ATOM      5  C   UNL     1      43.425   4.773  12.217  0.00  0.00    +0.000 A 
ATOM      6  C   UNL     1      44.072   4.147  11.152  0.00  0.00    +0.000 A 
ATOM      7  C   UNL     1      44.972   4.883  10.375  0.00  0.00    +0.000 A 
ATOM      8  C   UNL     1      45.226   6.231  10.672  0.00  0.00    +0.000 A 
BRANCH   6   9
ATOM      9  C   UNL     1      43.806   2.705  10.906  0.00  0.00    +0.000 C 
ATOM     10  N   UNL     1      44.499   2.100   9.893  0.00  0.00    +0.000 N 
ATOM     11  O   UNL     1      42.979   2.081  11.556  0.00  0.00    +0.000 OA
ATOM     12  H   UNL     1      44.998   2.620   9.187  0.00  0.00    +0.000 HD
ATOM     13  H   UNL     1      44.235   1.147   9.679  0.00  0.00    +0.000 HD
ENDBRANCH   6   9
ENDBRANCH   1   3
BRANCH   1  14
ATOM     14  C   UNL     1      45.753   8.522  13.174  0.00  0.00    +0.000 C 
BRANCH  14  20
ATOM     15  C   UNL     1      47.878   7.041  13.227  0.00  0.00    +0.000 A 
ATOM     16  C   UNL     1      49.204   6.838  12.789  0.00  0.00    +0.000 A 
ATOM     17  C   UNL     1      49.823   7.714  11.900  0.00  0.00    +0.000 A 
ATOM     18  C   UNL     1      49.121   8.813  11.423  0.00  0.00    +0.000 A 
ATOM     19  C   UNL     1      47.810   9.032  11.843  0.00  0.00    +0.000 A 
ATOM     20  C   UNL     1      47.161   8.156  12.741  0.00  0.00    +0.000 A 
BRANCH  15  22
ATOM     21  C   UNL     1      47.056   4.682  13.468  0.00  0.00    +0.000 C 
ATOM     22  C   UNL     1      47.303   6.010  14.170  0.00  0.00    +0.000 C 
ENDBRANCH  15  22
ENDBRANCH  14  20
ENDBRANCH   1  14
TORSDOF 5
ENDMDL
MODEL 6
REMARK VINA RESULT:    -5.769      3.118      5.862
REMARK INTER + INTRA:          -8.223
REMARK INTER:                  -6.998
REMARK INTRA:                  -1.225
REMARK UNBOUND:                -0.768
REMARK  Name = 
REMARK  6 active torsions:
REMARK  status: ('A' for Active; 'I' for Inactive)
REMARK    1  A    between atoms: C_1  and  C_2
REMARK    2  A    between atoms: C_2  and  C_3
REMARK    3  A    between atoms: C_8  and  C_9
REMARK    4  A    between atoms: C_9  and  N_10
REMARK    5  A    between atoms: N_10  and  C_11
REMARK    6  A    between atoms: C_14  and  C_15
REMARK                            x       y       z     vdW  Elec       q    Type
REMARK                         _______ _______ _______ _____ _____    ______ ____
ROOT
ATOM      1  N   UNL     1      44.316   2.682  11.797  0.00  0.00    +0.000 N 
ATOM      2  H   UNL     1      44.726   1.751  11.855  0.00  0.00    +0.000 HD
ENDROOT
BRANCH   1   3
ATOM      3  C   UNL     1      45.114   3.633  12.428  0.00  0.00    +0.000 A 
ATOM      4  C   UNL     1      46.382   3.231  12.866  0.00  0.00    +0.000 A 
ATOM      5  C   UNL     1      47.232   4.119  13.538  0.00  0.00    +0.000 A 
ATOM      6  C   UNL     1      46.841   5.441  13.752  0.00  0.00    +0.000 A 
ATOM      7  C   UNL     1      45.590   5.863  13.290  0.00  0.00    +0.000 A 
ATOM      8  C   UNL     1      44.738   4.963  12.632  0.00  0.00    +0.000 A 
BRANCH   6   9
ATOM      9  C   UNL     1      47.758   6.344  14.496  0.00  0.00    +0.000 C 
ATOM     10  N   UNL     1      47.526   7.689  14.410  0.00  0.00    +0.000 N 
ATOM     11  O   UNL     1      48.706   5.913  15.138  0.00  0.00    +0.000 OA
ATOM     12  H   UNL     1      46.921   8.094  13.712  0.00  0.00    +0.000 HD
ATOM     13  H   UNL     1      48.215   8.290  14.844  0.00  0.00    +0.000 HD
ENDBRANCH   6   9
ENDBRANCH   1   3
BRANCH   1  14
ATOM     14  C   UNL     1      43.752   2.951  10.477  0.00  0.00    +0.000 C 
BRANCH  14  20
ATOM     15  C   UNL     1      45.460   3.885   8.766  0.00  0.00    +0.000 A 
ATOM     16  C   UNL     1      46.412   3.616   7.760  0.00  0.00    +0.000 A 
ATOM     17  C   UNL     1      46.738   2.312   7.392  0.00  0.00    +0.000 A 
ATOM     18  C   UNL     1      46.120   1.246   8.030  0.00  0.00    +0.000 A 
ATOM     19  C   UNL     1      45.177   1.490   9.028  0.00  0.00    +0.000 A 
ATOM     20  C   UNL     1      44.832   2.802   9.420  0.00  0.00    +0.000 A 
BRANCH  15  22
ATOM     21  C   UNL     1      46.434   5.991   9.723  0.00  0.00    +0.000 C 
ATOM     22  C   UNL     1      45.209   5.337   9.100  0.00  0.00    +0.000 C 
ENDBRANCH  15  22
ENDBRANCH  14  20
ENDBRANCH   1  14
TORSDOF 5
ENDMDL
MODEL 7
REMARK VINA RESULT:    -5.627      3.946      5.955
REMARK INTER + INTRA:          -8.039
REMARK INTER:                  -7.528
REMARK INTRA:                  -0.511
REMARK UNBOUND:                -0.768
REMARK  Name = 
REMARK  6 active torsions:
REMARK  status: ('A' for Active; 'I' for Inactive)
REMARK    1  A    between atoms: C_1  and  C_2
REMARK    2  A    between atoms: C_2  and  C_3
REMARK    3  A    between atoms: C_8  and  C_9
REMARK    4  A    between atoms: C_9  and  N_10
REMARK    5  A    between atoms: N_10  and  C_11
REMARK    6  A    between atoms: C_14  and  C_15
REMARK                            x       y       z     vdW  Elec       q    Type
REMARK                         _______ _______ _______ _____ _____    ______ ____
ROOT
ATOM      1  N   UNL     1      47.333   5.143  15.197  0.00  0.00    +0.000 N 
ATOM      2  H   UNL     1      48.309   5.325  14.962  0.00  0.00    +0.000 HD
ENDROOT
BRANCH   1   3
ATOM      3  C   UNL     1      46.592   4.797  14.070  0.00  0.00    +0.000 A 
ATOM      4  C   UNL     1      46.004   5.833  13.333  0.00  0.00    +0.000 A 
ATOM      5  C   UNL     1      45.217   5.565  12.206  0.00  0.00    +0.000 A 
ATOM      6  C   UNL     1      45.035   4.253  11.772  0.00  0.00    +0.000 A 
ATOM      7  C   UNL     1      45.643   3.212  12.479  0.00  0.00    +0.000 A 
ATOM      8  C   UNL     1      46.418   3.487  13.616  0.00  0.00    +0.000 A 
BRANCH   6   9
ATOM      9  C   UNL     1      44.167   4.008  10.589  0.00  0.00    +0.000 C 
ATOM     10  N   UNL     1      43.727   5.099   9.893  0.00  0.00    +0.000 N 
ATOM     11  O   UNL     1      43.827   2.879  10.262  0.00  0.00    +0.000 OA
ATOM     12  H   UNL     1      43.777   6.038  10.260  0.00  0.00    +0.000 HD
ATOM     13  H   UNL     1      43.061   4.918   9.152  0.00  0.00    +0.000 HD
ENDBRANCH   6   9
ENDBRANCH   1   3
BRANCH   1  14
ATOM     14  C   UNL     1      47.201   4.375  16.432  0.00  0.00    +0.000 C 
BRANCH  14  20
ATOM     15  C   UNL     1      49.578   4.697  17.413  0.00  0.00    +0.000 A 
ATOM     16  C   UNL     1      50.827   4.122  17.732  0.00  0.00    +0.000 A 
ATOM     17  C   UNL     1      51.086   2.770  17.516  0.00  0.00    +0.000 A 
ATOM     18  C   UNL     1      50.094   1.960  16.980  0.00  0.00    +0.000 A 
ATOM     19  C   UNL     1      48.853   2.508  16.658  0.00  0.00    +0.000 A 
ATOM     20  C   UNL     1      48.566   3.875  16.871  0.00  0.00    +0.000 A 
BRANCH  15  22
ATOM     21  C   UNL     1      48.882   6.390  19.129  0.00  0.00    +0.000 C 
ATOM     22  C   UNL     1      49.404   6.166  17.717  0.00  0.00    +0.000 C 
ENDBRANCH  15  22
ENDBRANCH  14  20
ENDBRANCH   1  14
TORSDOF 5
ENDMDL
MODEL 8
REMARK VINA RESULT:    -5.577      3.410      5.593
REMARK INTER + INTRA:          -7.974
REMARK INTER:                  -7.308
REMARK INTRA:                  -0.667
REMARK UNBOUND:                -0.768
REMARK  Name = 
REMARK  6 active torsions:
REMARK  status: ('A' for Active; 'I' for Inactive)
REMARK    1  A    between atoms: C_1  and  C_2
REMARK    2  A    between atoms: C_2  and  C_3
REMARK    3  A    between atoms: C_8  and  C_9
REMARK    4  A    between atoms: C_9  and  N_10
REMARK    5  A    between atoms: N_10  and  C_11
REMARK    6  A    between atoms: C_14  and  C_15
REMARK                            x       y       z     vdW  Elec       q    Type
REMARK                         _______ _______ _______ _____ _____    ______ ____
ROOT
ATOM      1  N   UNL     1      47.090   6.777  14.001  0.00  0.00    +0.000 N 
ATOM      2  H   UNL     1      47.054   7.789  13.881  0.00  0.00    +0.000 HD
ENDROOT
BRANCH   1   3
ATOM      3  C   UNL     1      46.388   6.118  12.995  0.00  0.00    +0.000 A 
ATOM      4  C   UNL     1      45.734   4.926  13.329  0.00  0.00    +0.000 A 
ATOM      5  C   UNL     1      45.035   4.187  12.366  0.00  0.00    +0.000 A 
ATOM      6  C   UNL     1      44.945   4.650  11.054  0.00  0.00    +0.000 A 
ATOM      7  C   UNL     1      45.565   5.856  10.714  0.00  0.00    +0.000 A 
ATOM      8  C   UNL     1      46.277   6.582  11.681  0.00  0.00    +0.000 A 
BRANCH   6   9
ATOM      9  C   UNL     1      44.220   3.822  10.055  0.00  0.00    +0.000 C 
ATOM     10  N   UNL     1      44.103   4.322   8.787  0.00  0.00    +0.000 N 
ATOM     11  O   UNL     1      43.716   2.747  10.351  0.00  0.00    +0.000 OA
ATOM     12  H   UNL     1      44.283   5.289   8.563  0.00  0.00    +0.000 HD
ATOM     13  H   UNL     1      43.525   3.790   8.148  0.00  0.00    +0.000 HD
ENDBRANCH   6   9
ENDBRANCH   1   3
BRANCH   1  14
ATOM     14  C   UNL     1      48.418   6.318  14.397  0.00  0.00    +0.000 C 
BRANCH  14  20
ATOM     15  C   UNL     1      48.241   5.293  16.771  0.00  0.00    +0.000 A 
ATOM     16  C   UNL     1      48.348   5.482  18.165  0.00  0.00    +0.000 A 
ATOM     17  C   UNL     1      48.738   6.705  18.709  0.00  0.00    +0.000 A 
ATOM     18  C   UNL     1      49.035   7.765  17.865  0.00  0.00    +0.000 A 
ATOM     19  C   UNL     1      48.937   7.599  16.484  0.00  0.00    +0.000 A 
ATOM     20  C   UNL     1      48.547   6.369  15.909  0.00  0.00    +0.000 A 
BRANCH  15  22
ATOM     21  C   UNL     1      47.238   3.087  17.423  0.00  0.00    +0.000 C 
ATOM     22  C   UNL     1      47.836   3.916  16.296  0.00  0.00    +0.000 C 
ENDBRANCH  15  22
ENDBRANCH  14  20
ENDBRANCH   1  14
TORSDOF 5
ENDMDL
MODEL 9
REMARK VINA RESULT:    -5.451      5.119      7.772
REMARK INTER + INTRA:          -7.812
REMARK INTER:                  -7.274
REMARK INTRA:                  -0.538
REMARK UNBOUND:                -0.768
REMARK  Name = 
REMARK  6 active torsions:
REMARK  status: ('A' for Active; 'I' for Inactive)
REMARK    1  A    between atoms: C_1  and  C_2
REMARK    2  A    between atoms: C_2  and  C_3
REMARK    3  A    between atoms: C_8  and  C_9
REMARK    4  A    between atoms: C_9  and  N_10
REMARK    5  A    between atoms: N_10  and  C_11
REMARK    6  A    between atoms: C_14  and  C_15
REMARK                            x       y       z     vdW  Elec       q    Type
REMARK                         _______ _______ _______ _____ _____    ______ ____
ROOT
ATOM      1  N   UNL     1      46.480   4.407  15.214  0.00  0.00    +0.000 N 
ATOM      2  H   UNL     1      45.647   4.007  15.644  0.00  0.00    +0.000 HD
ENDROOT
BRANCH   1   3
ATOM      3  C   UNL     1      47.603   4.238  16.020  0.00  0.00    +0.000 A 
ATOM      4  C   UNL     1      48.331   5.381  16.372  0.00  0.00    +0.000 A 
ATOM      5  C   UNL     1      49.491   5.291  17.153  0.00  0.00    +0.000 A 
ATOM      6  C   UNL     1      49.922   4.053  17.629  0.00  0.00    +0.000 A 
ATOM      7  C   UNL     1      49.186   2.908  17.313  0.00  0.00    +0.000 A 
ATOM      8  C   UNL     1      48.034   3.005  16.517  0.00  0.00    +0.000 A 
BRANCH   6   9
ATOM      9  C   UNL     1      51.175   3.995  18.429  0.00  0.00    +0.000 C 
ATOM     10  N   UNL     1      51.096   4.340  19.750  0.00  0.00    +0.000 N 
ATOM     11  O   UNL     1      52.246   3.683  17.927  0.00  0.00    +0.000 OA
ATOM     12  H   UNL     1      50.305   4.829  20.140  0.00  0.00    +0.000 HD
ATOM     13  H   UNL     1      51.974   4.387  20.252  0.00  0.00    +0.000 HD
ENDBRANCH   6   9
ENDBRANCH   1   3
BRANCH   1  14
ATOM     14  C   UNL     1      46.548   4.125  13.784  0.00  0.00    +0.000 C 
BRANCH  14  20
ATOM     15  C   UNL     1      44.530   5.211  12.575  0.00  0.00    +0.000 A 
ATOM     16  C   UNL     1      44.033   6.290  11.813  0.00  0.00    +0.000 A 
ATOM     17  C   UNL     1      44.837   7.376  11.472  0.00  0.00    +0.000 A 
ATOM     18  C   UNL     1      46.159   7.407  11.894  0.00  0.00    +0.000 A 
ATOM     19  C   UNL     1      46.670   6.352  12.648  0.00  0.00    +0.000 A 
ATOM     20  C   UNL     1      45.873   5.242  13.009  0.00  0.00    +0.000 A 
BRANCH  15  22
ATOM     21  C   UNL     1      43.481   3.069  11.793  0.00  0.00    +0.000 C 
ATOM     22  C   UNL     1      43.558   4.103  12.908  0.00  0.00    +0.000 C 
ENDBRANCH  15  22
ENDBRANCH  14  20
ENDBRANCH   1  14
TORSDOF 5
ENDMDL
