MODEL 1
REMARK VINA RESULT:    -9.008      0.000      0.000
REMARK INTER + INTRA:         -11.841
REMARK INTER:                 -11.378
REMARK INTRA:                  -0.463
REMARK UNBOUND:                -0.463
REMARK  Name = 
REMARK  5 active torsions:
REMARK  status: ('A' for Active; 'I' for Inactive)
REMARK    1  A    between atoms: C_2  and  O_3
REMARK    2  A    between atoms: C_2  and  C_4
REMARK    3  A    between atoms: N_8  and  C_9
REMARK    4  A    between atoms: C_9  and  C_10
REMARK    5  A    between atoms: C_14  and  C_15
REMARK                            x       y       z     vdW  Elec       q    Type
REMARK                         _______ _______ _______ _____ _____    ______ ____
ROOT
ATOM      1  C   UNL     1      43.903   4.875  11.416  0.00  0.00    +0.000 C 
ATOM      2  C   UNL     1      42.737   4.934  12.398  0.00  0.00    +0.000 C 
ATOM      3  C   UNL     1      42.815   5.920  11.282  0.00  0.00    +0.000 C 
ENDROOT
BRANCH   1   8
ATOM      4  C   UNL     1      46.525   2.769   7.453  0.00  0.00    +0.000 A 
ATOM      5  C   UNL     1      46.091   4.084   7.597  0.00  0.00    +0.000 A 
ATOM      6  C   UNL     1      45.264   4.414   8.672  0.00  0.00    +0.000 A 
ATOM      7  C   UNL     1      44.871   3.427   9.568  0.00  0.00    +0.000 A 
ATOM      8  N   UNL     1      43.948   3.651  10.594  0.00  0.00    +0.000 N 
ATOM      9  N   UNL     1      45.286   2.149   9.434  0.00  0.00    +0.000 NA
ATOM     10  C   UNL     1      46.092   1.841   8.386  0.00  0.00    +0.000 A 
ATOM     11  H   UNL     1      43.910   2.776  11.117  0.00  0.00    +0.000 HD
BRANCH   4  13
ATOM     12  O   UNL     1      48.122   1.364   6.413  0.00  0.00    +0.000 OA
ATOM     13  C   UNL     1      47.363   2.313   6.328  0.00  0.00    +0.000 C 
BRANCH  13  14
ATOM     14  O   UNL     1      47.227   3.064   5.217  0.00  0.00    +0.000 OA
ATOM     15  H   UNL     1      47.104   2.573   4.386  0.00  0.00    +0.000 HD
ENDBRANCH  13  14
ENDBRANCH   4  13
ENDBRANCH   1   8
BRANCH   1  16
ATOM     16  C   UNL     1      45.285   5.300  11.908  0.00  0.00    +0.000 A 
ATOM     17  C   UNL     1      46.003   6.322  11.266  0.00  0.00    +0.000 A 
ATOM     18  C   UNL     1      47.200   6.805  11.787  0.00  0.00    +0.000 A 
ATOM     19  C   UNL     1      47.691   6.295  12.987  0.00  0.00    +0.000 A 
ATOM     20  C   UNL     1      47.004   5.288  13.685  0.00  0.00    +0.000 A 
ATOM     21  C   UNL     1      45.829   4.775  13.101  0.00  0.00    +0.000 A 
BRANCH  20  22
ATOM     22  C   UNL     1      47.451   4.860  15.022  0.00  0.00    +0.000 A 
ATOM     23  C   UNL     1      47.147   3.607  15.540  0.00  0.00    +0.000 A 
ATOM     24  N   UNL     1      47.544   3.146  16.746  0.00  0.00    +0.000 NA
ATOM     25  C   UNL     1      48.300   3.985  17.462  0.00  0.00    +0.000 A 
ATOM     26  N   UNL     1      48.683   5.217  17.082  0.00  0.00    +0.000 NA
ATOM     27  C   UNL     1      48.241   5.619  15.868  0.00  0.00    +0.000 A 
ENDBRANCH  20  22
ENDBRANCH   1  16
TORSDOF 5
ENDMDL
MODEL 2
REMARK VINA RESULT:    -8.983      2.240      3.265
REMARK INTER + INTRA:         -11.809
REMARK INTER:                 -10.776
REMARK INTRA:                  -1.032
REMARK UNBOUND:                -0.463
REMARK  Name = 
REMARK  5 active torsions:
REMARK  status: ('A' for Active; 'I' for Inactive)
REMARK    1  A    between atoms: C_2  and  O_3
REMARK    2  A    between atoms: C_2  and  C_4
REMARK    3  A    between atoms: N_8  and  C_9
REMARK    4  A    between atoms: C_9  and  C_10
REMARK    5  A    between atoms: C_14  and  C_15
REMARK                            x       y       z     vdW  Elec       q    Type
REMARK                         _______ _______ _______ _____ _____    ______ ____
ROOT
ATOM      1  C   UNL     1      43.813   4.893  11.354  0.00  0.00    +0.000 C 
ATOM      2  C   UNL     1      42.475   5.129  12.047  0.00  0.00    +0.000 C 
ATOM      3  C   UNL     1      42.972   6.114  11.045  0.00  0.00    +0.000 C 
ENDROOT
BRANCH   1   8
ATOM      4  C   UNL     1      46.585   2.799   7.488  0.00  0.00    +0.000 A 
ATOM      5  C   UNL     1      46.213   4.129   7.658  0.00  0.00    +0.000 A 
ATOM      6  C   UNL     1      45.332   4.464   8.689  0.00  0.00    +0.000 A 
ATOM      7  C   UNL     1      44.826   3.466   9.514  0.00  0.00    +0.000 A 
ATOM      8  N   UNL     1      43.849   3.702  10.485  0.00  0.00    +0.000 N 
ATOM      9  N   UNL     1      45.181   2.173   9.354  0.00  0.00    +0.000 NA
ATOM     10  C   UNL     1      46.040   1.861   8.350  0.00  0.00    +0.000 A 
ATOM     11  H   UNL     1      43.728   2.810  10.966  0.00  0.00    +0.000 HD
BRANCH   4  13
ATOM     12  O   UNL     1      48.282   1.441   6.548  0.00  0.00    +0.000 OA
ATOM     13  C   UNL     1      47.472   2.340   6.403  0.00  0.00    +0.000 C 
BRANCH  13  14
ATOM     14  O   UNL     1      47.320   3.031   5.255  0.00  0.00    +0.000 OA
ATOM     15  H   UNL     1      47.430   2.518   4.435  0.00  0.00    +0.000 HD
ENDBRANCH  13  14
ENDBRANCH   4  13
ENDBRANCH   1   8
BRANCH   1  16
ATOM     16  C   UNL     1      45.091   5.059  12.172  0.00  0.00    +0.000 A 
ATOM     17  C   UNL     1      45.577   4.019  12.982  0.00  0.00    +0.000 A 
ATOM     18  C   UNL     1      46.808   4.114  13.624  0.00  0.00    +0.000 A 
ATOM     19  C   UNL     1      47.600   5.245  13.442  0.00  0.00    +0.000 A 
ATOM     20  C   UNL     1      47.177   6.307  12.625  0.00  0.00    +0.000 A 
ATOM     21  C   UNL     1      45.899   6.209  12.040  0.00  0.00    +0.000 A 
BRANCH  20  22
ATOM     22  C   UNL     1      48.081   7.429  12.321  0.00  0.00    +0.000 A 
ATOM     23  C   UNL     1      49.459   7.269  12.232  0.00  0.00    +0.000 A 
ATOM     24  N   UNL     1      50.339   8.249  11.935  0.00  0.00    +0.000 NA
ATOM     25  C   UNL     1      49.803   9.452  11.702  0.00  0.00    +0.000 A 
ATOM     26  N   UNL     1      48.492   9.749  11.739  0.00  0.00    +0.000 NA
ATOM     27  C   UNL     1      47.668   8.723  12.053  0.00  0.00    +0.000 A 
ENDBRANCH  20  22
ENDBRANCH   1  16
TORSDOF 5
ENDMDL
MODEL 3
REMARK VINA RESULT:    -6.733      3.797      7.525
REMARK INTER + INTRA:          -8.967
REMARK INTER:                  -9.105
REMARK INTRA:                   0.138
REMARK UNBOUND:                -0.463
REMARK  Name = 
REMARK  5 active torsions:
REMARK  status: ('A' for Active; 'I' for Inactive)
REMARK    1  A    between atoms: C_2  and  O_3
REMARK    2  A    between atoms: C_2  and  C_4
REMARK    3  A    between atoms: N_8  and  C_9
REMARK    4  A    between atoms: C_9  and  C_10
REMARK    5  A    between atoms: C_14  and  C_15
REMARK                            x       y       z     vdW  Elec       q    Type
REMARK                         _______ _______ _______ _____ _____    ______ ____
ROOT
ATOM      1  C   UNL     1      48.366   7.834  12.828  0.00  0.00    +0.000 C 
ATOM      2  C   UNL     1      49.550   7.261  12.056  0.00  0.00    +0.000 C 
ATOM      3  C   UNL     1      49.293   8.729  12.033  0.00  0.00    +0.000 C 
ENDROOT
BRANCH   1   8
ATOM      4  C   UNL     1      47.997   4.209  16.535  0.00  0.00    +0.000 A 
ATOM      5  C   UNL     1      47.193   4.376  15.411  0.00  0.00    +0.000 A 
ATOM      6  C   UNL     1      47.363   5.510  14.614  0.00  0.00    +0.000 A 
ATOM      7  C   UNL     1      48.314   6.463  14.965  0.00  0.00    +0.000 A 
ATOM      8  N   UNL     1      48.458   7.679  14.292  0.00  0.00    +0.000 N 
ATOM      9  N   UNL     1      49.095   6.309  16.055  0.00  0.00    +0.000 NA
ATOM     10  C   UNL     1      48.922   5.201  16.819  0.00  0.00    +0.000 A 
ATOM     11  H   UNL     1      49.264   8.131  14.726  0.00  0.00    +0.000 HD
BRANCH   4  13
ATOM     12  O   UNL     1      48.824   2.488  17.934  0.00  0.00    +0.000 OA
ATOM     13  C   UNL     1      47.863   3.070  17.462  0.00  0.00    +0.000 C 
BRANCH  13  14
ATOM     14  O   UNL     1      46.584   2.722  17.707  0.00  0.00    +0.000 OA
ATOM     15  H   UNL     1      46.217   2.026  17.135  0.00  0.00    +0.000 HD
ENDBRANCH  13  14
ENDBRANCH   4  13
ENDBRANCH   1   8
BRANCH   1  16
ATOM     16  C   UNL     1      46.959   7.565  12.299  0.00  0.00    +0.000 A 
ATOM     17  C   UNL     1      45.980   8.572  12.290  0.00  0.00    +0.000 A 
ATOM     18  C   UNL     1      44.740   8.373  11.689  0.00  0.00    +0.000 A 
ATOM     19  C   UNL     1      44.463   7.166  11.052  0.00  0.00    +0.000 A 
ATOM     20  C   UNL     1      45.412   6.130  11.009  0.00  0.00    +0.000 A 
ATOM     21  C   UNL     1      46.633   6.338  11.681  0.00  0.00    +0.000 A 
BRANCH  20  22
ATOM     22  C   UNL     1      45.168   4.918  10.209  0.00  0.00    +0.000 A 
ATOM     23  C   UNL     1      44.384   3.869  10.673  0.00  0.00    +0.000 A 
ATOM     24  N   UNL     1      44.103   2.742   9.982  0.00  0.00    +0.000 NA
ATOM     25  C   UNL     1      44.627   2.676   8.754  0.00  0.00    +0.000 A 
ATOM     26  N   UNL     1      45.390   3.618   8.172  0.00  0.00    +0.000 NA
ATOM     27  C   UNL     1      45.640   4.714   8.924  0.00  0.00    +0.000 A 
ENDBRANCH  20  22
ENDBRANCH   1  16
TORSDOF 5
ENDMDL
MODEL 4
REMARK VINA RESULT:    -6.715      4.529      8.363
REMARK INTER + INTRA:          -8.944
REMARK INTER:                  -8.049
REMARK INTRA:                  -0.895
REMARK UNBOUND:                -0.463
REMARK  Name = 
REMARK  5 active torsions:
REMARK  status: ('A' for Active; 'I' for Inactive)
REMARK    1  A    between atoms: C_2  and  O_3
REMARK    2  A    between atoms: C_2  and  C_4
REMARK    3  A    between atoms: N_8  and  C_9
REMARK    4  A    between atoms: C_9  and  C_10
REMARK    5  A    between atoms: C_14  and  C_15
REMARK                            x       y       z     vdW  Elec       q    Type
REMARK                         _______ _______ _______ _____ _____    ______ ____
ROOT
ATOM      1  C   UNL     1      49.067   7.962  12.806  0.00  0.00    +0.000 C 
ATOM      2  C   UNL     1      50.026   8.185  11.640  0.00  0.00    +0.000 C 
ATOM      3  C   UNL     1      49.706   9.312  12.562  0.00  0.00    +0.000 C 
ENDROOT
BRANCH   1   8
ATOM      4  C   UNL     1      48.403   6.719  17.809  0.00  0.00    +0.000 A 
ATOM      5  C   UNL     1      48.476   7.988  17.239  0.00  0.00    +0.000 A 
ATOM      6  C   UNL     1      48.814   8.109  15.890  0.00  0.00    +0.000 A 
ATOM      7  C   UNL     1      49.092   6.969  15.143  0.00  0.00    +0.000 A 
ATOM      8  N   UNL     1      49.556   7.014  13.826  0.00  0.00    +0.000 N 
ATOM      9  N   UNL     1      49.025   5.736  15.690  0.00  0.00    +0.000 NA
ATOM     10  C   UNL     1      48.693   5.632  17.002  0.00  0.00    +0.000 A 
ATOM     11  H   UNL     1      49.605   6.041  13.525  0.00  0.00    +0.000 HD
BRANCH   4  13
ATOM     12  O   UNL     1      48.672   7.081  20.133  0.00  0.00    +0.000 OA
ATOM     13  C   UNL     1      48.099   6.491  19.235  0.00  0.00    +0.000 C 
BRANCH  13  14
ATOM     14  O   UNL     1      47.155   5.551  19.440  0.00  0.00    +0.000 OA
ATOM     15  H   UNL     1      47.459   4.733  19.870  0.00  0.00    +0.000 HD
ENDBRANCH  13  14
ENDBRANCH   4  13
ENDBRANCH   1   8
BRANCH   1  16
ATOM     16  C   UNL     1      47.584   7.774  12.498  0.00  0.00    +0.000 A 
ATOM     17  C   UNL     1      46.664   8.817  12.689  0.00  0.00    +0.000 A 
ATOM     18  C   UNL     1      45.337   8.698  12.285  0.00  0.00    +0.000 A 
ATOM     19  C   UNL     1      44.908   7.537  11.647  0.00  0.00    +0.000 A 
ATOM     20  C   UNL     1      45.789   6.469  11.408  0.00  0.00    +0.000 A 
ATOM     21  C   UNL     1      47.108   6.594  11.885  0.00  0.00    +0.000 A 
BRANCH  20  22
ATOM     22  C   UNL     1      45.366   5.310  10.604  0.00  0.00    +0.000 A 
ATOM     23  C   UNL     1      44.574   4.294  11.126  0.00  0.00    +0.000 A 
ATOM     24  N   UNL     1      44.134   3.218  10.438  0.00  0.00    +0.000 NA
ATOM     25  C   UNL     1      44.498   3.170   9.152  0.00  0.00    +0.000 A 
ATOM     26  N   UNL     1      45.247   4.085   8.512  0.00  0.00    +0.000 NA
ATOM     27  C   UNL     1      45.662   5.130   9.264  0.00  0.00    +0.000 A 
ENDBRANCH  20  22
ENDBRANCH   1  16
TORSDOF 5
ENDMDL
MODEL 5
REMARK VINA RESULT:    -6.594      2.928      4.604
REMARK INTER + INTRA:          -8.792
REMARK INTER:                  -8.491
REMARK INTRA:                  -0.301
REMARK UNBOUND:                -0.463
REMARK  Name = 
REMARK  5 active torsions:
REMARK  status: ('A' for Active; 'I' for Inactive)
REMARK    1  A    between atoms: C_2  and  O_3
REMARK    2  A    between atoms: C_2  and  C_4
REMARK    3  A    between atoms: N_8  and  C_9
REMARK    4  A    between atoms: C_9  and  C_10
REMARK    5  A    between atoms: C_14  and  C_15
REMARK                            x       y       z     vdW  Elec       q    Type
REMARK                         _______ _______ _______ _____ _____    ______ ____
ROOT
ATOM      1  C   UNL     1      47.653   8.473  13.070  0.00  0.00    +0.000 C 
ATOM      2  C   UNL     1      47.752   9.984  12.880  0.00  0.00    +0.000 C 
ATOM      3  C   UNL     1      48.203   9.070  11.792  0.00  0.00    +0.000 C 
ENDROOT
BRANCH   1   8
ATOM      4  C   UNL     1      44.595   4.660  11.301  0.00  0.00    +0.000 A 
ATOM      5  C   UNL     1      45.517   5.425  10.591  0.00  0.00    +0.000 A 
ATOM      6  C   UNL     1      46.131   6.510  11.220  0.00  0.00    +0.000 A 
ATOM      7  C   UNL     1      45.799   6.823  12.534  0.00  0.00    +0.000 A 
ATOM      8  N   UNL     1      46.275   7.962  13.189  0.00  0.00    +0.000 N 
ATOM      9  N   UNL     1      44.904   6.088  13.228  0.00  0.00    +0.000 NA
ATOM     10  C   UNL     1      44.317   5.034  12.606  0.00  0.00    +0.000 A 
ATOM     11  H   UNL     1      45.920   7.889  14.143  0.00  0.00    +0.000 HD
BRANCH   4  13
ATOM     12  O   UNL     1      44.257   2.926   9.726  0.00  0.00    +0.000 OA
ATOM     13  C   UNL     1      43.862   3.525  10.711  0.00  0.00    +0.000 C 
BRANCH  13  14
ATOM     14  O   UNL     1      42.707   3.241  11.346  0.00  0.00    +0.000 OA
ATOM     15  H   UNL     1      42.055   2.733  10.832  0.00  0.00    +0.000 HD
ENDBRANCH  13  14
ENDBRANCH   4  13
ENDBRANCH   1   8
BRANCH   1  16
ATOM     16  C   UNL     1      48.612   7.802  14.050  0.00  0.00    +0.000 A 
ATOM     17  C   UNL     1      49.833   8.402  14.399  0.00  0.00    +0.000 A 
ATOM     18  C   UNL     1      50.649   7.864  15.390  0.00  0.00    +0.000 A 
ATOM     19  C   UNL     1      50.243   6.724  16.080  0.00  0.00    +0.000 A 
ATOM     20  C   UNL     1      49.021   6.094  15.790  0.00  0.00    +0.000 A 
ATOM     21  C   UNL     1      48.248   6.625  14.740  0.00  0.00    +0.000 A 
BRANCH  20  22
ATOM     22  C   UNL     1      48.532   4.981  16.622  0.00  0.00    +0.000 A 
ATOM     23  C   UNL     1      47.324   4.342  16.371  0.00  0.00    +0.000 A 
ATOM     24  N   UNL     1      46.831   3.303  17.079  0.00  0.00    +0.000 NA
ATOM     25  C   UNL     1      47.601   2.876  18.085  0.00  0.00    +0.000 A 
ATOM     26  N   UNL     1      48.795   3.388  18.433  0.00  0.00    +0.000 NA
ATOM     27  C   UNL     1      49.223   4.433  17.689  0.00  0.00    +0.000 A 
ENDBRANCH  20  22
ENDBRANCH   1  16
TORSDOF 5
ENDMDL
MODEL 6
REMARK VINA RESULT:    -6.364      4.555      8.092
REMARK INTER + INTRA:          -8.502
REMARK INTER:                  -8.267
REMARK INTRA:                  -0.234
REMARK UNBOUND:                -0.463
REMARK  Name = 
REMARK  5 active torsions:
REMARK  status: ('A' for Active; 'I' for Inactive)
REMARK    1  A    between atoms: C_2  and  O_3
REMARK    2  A    between atoms: C_2  and  C_4
REMARK    3  A    between atoms: N_8  and  C_9
REMARK    4  A    between atoms: C_9  and  C_10
REMARK    5  A    between atoms: C_14  and  C_15
REMARK                            x       y       z     vdW  Elec       q    Type
REMARK                         _______ _______ _______ _____ _____    ______ ____
ROOT
ATOM      1  C   UNL     1      48.221   8.042  13.933  0.00  0.00    +0.000 C 
ATOM      2  C   UNL     1      49.296   8.952  13.347  0.00  0.00    +0.000 C 
ATOM      3  C   UNL     1      48.597   9.347  14.603  0.00  0.00    +0.000 C 
ENDROOT
BRANCH   1   8
ATOM      4  C   UNL     1      48.640   5.175  18.248  0.00  0.00    +0.000 A 
ATOM      5  C   UNL     1      48.871   6.539  18.095  0.00  0.00    +0.000 A 
ATOM      6  C   UNL     1      48.852   7.093  16.813  0.00  0.00    +0.000 A 
ATOM      7  C   UNL     1      48.626   6.276  15.712  0.00  0.00    +0.000 A 
ATOM      8  N   UNL     1      48.715   6.731  14.393  0.00  0.00    +0.000 N 
ATOM      9  N   UNL     1      48.405   4.951  15.852  0.00  0.00    +0.000 NA
ATOM     10  C   UNL     1      48.422   4.425  17.103  0.00  0.00    +0.000 A 
ATOM     11  H   UNL     1      48.437   5.936  13.816  0.00  0.00    +0.000 HD
BRANCH   4  13
ATOM     12  O   UNL     1      49.028   5.049  20.580  0.00  0.00    +0.000 OA
ATOM     13  C   UNL     1      48.684   4.489  19.553  0.00  0.00    +0.000 C 
BRANCH  13  14
ATOM     14  O   UNL     1      48.340   3.188  19.490  0.00  0.00    +0.000 OA
ATOM     15  H   UNL     1      48.419   2.688  20.321  0.00  0.00    +0.000 HD
ENDBRANCH  13  14
ENDBRANCH   4  13
ENDBRANCH   1   8
BRANCH   1  16
ATOM     16  C   UNL     1      46.883   7.940  13.204  0.00  0.00    +0.000 A 
ATOM     17  C   UNL     1      46.338   9.043  12.526  0.00  0.00    +0.000 A 
ATOM     18  C   UNL     1      45.190   8.922  11.749  0.00  0.00    +0.000 A 
ATOM     19  C   UNL     1      44.576   7.679  11.607  0.00  0.00    +0.000 A 
ATOM     20  C   UNL     1      45.088   6.536  12.244  0.00  0.00    +0.000 A 
ATOM     21  C   UNL     1      46.215   6.703  13.073  0.00  0.00    +0.000 A 
BRANCH  20  22
ATOM     22  C   UNL     1      44.522   5.205  11.971  0.00  0.00    +0.000 A 
ATOM     23  C   UNL     1      44.280   4.280  12.979  0.00  0.00    +0.000 A 
ATOM     24  N   UNL     1      43.743   3.054  12.799  0.00  0.00    +0.000 NA
ATOM     25  C   UNL     1      43.418   2.748  11.538  0.00  0.00    +0.000 A 
ATOM     26  N   UNL     1      43.582   3.546  10.469  0.00  0.00    +0.000 NA
ATOM     27  C   UNL     1      44.135   4.755  10.720  0.00  0.00    +0.000 A 
ENDBRANCH  20  22
ENDBRANCH   1  16
TORSDOF 5
ENDMDL
MODEL 7
REMARK VINA RESULT:    -6.016      4.482      8.324
REMARK INTER + INTRA:          -8.061
REMARK INTER:                  -7.052
REMARK INTRA:                  -1.010
REMARK UNBOUND:                -0.463
REMARK  Name = 
REMARK  5 active torsions:
REMARK  status: ('A' for Active; 'I' for Inactive)
REMARK    1  A    between atoms: C_2  and  O_3
REMARK    2  A    between atoms: C_2  and  C_4
REMARK    3  A    between atoms: N_8  and  C_9
REMARK    4  A    between atoms: C_9  and  C_10
REMARK    5  A    between atoms: C_14  and  C_15
REMARK                            x       y       z     vdW  Elec       q    Type
REMARK                         _______ _______ _______ _____ _____    ______ ____
ROOT
ATOM      1  C   UNL     1      49.433   8.169  16.870  0.00  0.00    +0.000 C 
ATOM      2  C   UNL     1      49.258   9.606  17.352  0.00  0.00    +0.000 C 
ATOM      3  C   UNL     1      48.212   8.589  17.661  0.00  0.00    +0.000 C 
ENDROOT
BRANCH   1   8
ATOM      4  C   UNL     1      51.273   3.361  17.591  0.00  0.00    +0.000 A 
ATOM      5  C   UNL     1      49.960   3.807  17.710  0.00  0.00    +0.000 A 
ATOM      6  C   UNL     1      49.695   5.176  17.625  0.00  0.00    +0.000 A 
ATOM      7  C   UNL     1      50.744   6.071  17.445  0.00  0.00    +0.000 A 
ATOM      8  N   UNL     1      50.576   7.458  17.475  0.00  0.00    +0.000 N 
ATOM      9  N   UNL     1      52.021   5.646  17.332  0.00  0.00    +0.000 NA
ATOM     10  C   UNL     1      52.264   4.313  17.413  0.00  0.00    +0.000 A 
ATOM     11  H   UNL     1      51.494   7.844  17.251  0.00  0.00    +0.000 HD
BRANCH   4  13
ATOM     12  O   UNL     1      51.081   1.050  17.116  0.00  0.00    +0.000 OA
ATOM     13  C   UNL     1      51.658   1.942  17.712  0.00  0.00    +0.000 C 
BRANCH  13  14
ATOM     14  O   UNL     1      52.682   1.733  18.564  0.00  0.00    +0.000 OA
ATOM     15  H   UNL     1      53.533   2.129  18.308  0.00  0.00    +0.000 HD
ENDBRANCH  13  14
ENDBRANCH   4  13
ENDBRANCH   1   8
BRANCH   1  16
ATOM     16  C   UNL     1      49.290   7.882  15.377  0.00  0.00    +0.000 A 
ATOM     17  C   UNL     1      50.277   8.283  14.462  0.00  0.00    +0.000 A 
ATOM     18  C   UNL     1      50.218   7.910  13.123  0.00  0.00    +0.000 A 
ATOM     19  C   UNL     1      49.182   7.094  12.674  0.00  0.00    +0.000 A 
ATOM     20  C   UNL     1      48.179   6.643  13.549  0.00  0.00    +0.000 A 
ATOM     21  C   UNL     1      48.231   7.090  14.884  0.00  0.00    +0.000 A 
BRANCH  20  22
ATOM     22  C   UNL     1      47.173   5.665  13.101  0.00  0.00    +0.000 A 
ATOM     23  C   UNL     1      47.016   4.429  13.715  0.00  0.00    +0.000 A 
ATOM     24  N   UNL     1      46.100   3.498  13.369  0.00  0.00    +0.000 NA
ATOM     25  C   UNL     1      45.291   3.836  12.359  0.00  0.00    +0.000 A 
ATOM     26  N   UNL     1      45.320   4.999  11.684  0.00  0.00    +0.000 NA
ATOM     27  C   UNL     1      46.268   5.880  12.076  0.00  0.00    +0.000 A 
ENDBRANCH  20  22
ENDBRANCH   1  16
TORSDOF 5
ENDMDL
