MODEL 1
REMARK VINA RESULT:    -8.080      0.000      0.000
REMARK INTER + INTRA:         -11.991
REMARK INTER:                 -10.914
REMARK INTRA:                  -1.077
REMARK UNBOUND:                -1.077
REMARK  Name = 
REMARK  7 active torsions:
REMARK  status: ('A' for Active; 'I' for Inactive)
REMARK    1  A    between atoms: C_1  and  C_2
REMARK    2  A    between atoms: C_2  and  N_3
REMARK    3  A    between atoms: C_2  and  C_16
REMARK    4  A    between atoms: C_4  and  C_6
REMARK    5  A    between atoms: C_19  and  C_20
REMARK    6  A    between atoms: C_20  and  N_21
REMARK    7  A    between atoms: C_22  and  C_24
REMARK                            x       y       z     vdW  Elec       q    Type
REMARK                         _______ _______ _______ _____ _____    ______ ____
ROOT
ATOM      1  C   UNL     1      47.320   9.072  13.314  0.00  0.00    +0.000 C 
ATOM      2  C   UNL     1      47.752   7.603  13.436  0.00  0.00    +0.000 C 
ENDROOT
BRANCH   2   3
ATOM      3  C   UNL     1      46.750   6.696  12.729  0.00  0.00    +0.000 A 
ATOM      4  C   UNL     1      46.590   5.361  13.126  0.00  0.00    +0.000 A 
ATOM      5  C   UNL     1      45.722   4.505  12.435  0.00  0.00    +0.000 A 
ATOM      6  C   UNL     1      45.000   4.962  11.325  0.00  0.00    +0.000 A 
ATOM      7  C   UNL     1      45.111   6.310  10.964  0.00  0.00    +0.000 A 
ATOM      8  C   UNL     1      45.976   7.165  11.655  0.00  0.00    +0.000 A 
BRANCH   6   9
ATOM      9  C   UNL     1      44.140   4.025  10.515  0.00  0.00    +0.000 C 
BRANCH   9  10
ATOM     10  N   UNL     1      44.918   3.069   9.769  0.00  0.00    +0.000 N 
ATOM     11  C   UNL     1      45.435   3.392   8.534  0.00  0.00    +0.000 C 
ATOM     12  O   UNL     1      45.235   4.477   7.999  0.00  0.00    +0.000 OA
ATOM     13  H   UNL     1      45.173   2.204  10.219  0.00  0.00    +0.000 HD
BRANCH  11  14
ATOM     14  C   UNL     1      46.237   2.372   7.910  0.00  0.00    +0.000 A 
ATOM     15  C   UNL     1      47.254   2.410   6.977  0.00  0.00    +0.000 A 
ATOM     16  N   UNL     1      47.716   1.152   6.685  0.00  0.00    +0.000 NA
ATOM     17  C   UNL     1      47.001   0.342   7.429  0.00  0.00    +0.000 A 
ATOM     18  N   UNL     1      46.101   1.028   8.191  0.00  0.00    +0.000 N 
ATOM     19  H   UNL     1      45.442   0.635   8.849  0.00  0.00    +0.000 HD
ENDBRANCH  11  14
ENDBRANCH   9  10
ENDBRANCH   6   9
ENDBRANCH   2   3
BRANCH   2  20
ATOM     20  N   UNL     1      47.905   7.183  14.820  0.00  0.00    +0.000 N 
ATOM     21  C   UNL     1      49.132   6.949  15.392  0.00  0.00    +0.000 C 
ATOM     22  O   UNL     1      50.189   7.128  14.796  0.00  0.00    +0.000 OA
ATOM     23  H   UNL     1      47.097   6.733  15.239  0.00  0.00    +0.000 HD
BRANCH  21  24
ATOM     24  C   UNL     1      49.124   6.532  16.798  0.00  0.00    +0.000 A 
ATOM     25  C   UNL     1      49.558   7.413  17.779  0.00  0.00    +0.000 A 
ATOM     26  S   UNL     1      49.478   6.770  19.356  0.00  0.00    +0.000 S 
ATOM     27  C   UNL     1      48.905   5.278  18.776  0.00  0.00    +0.000 A 
ATOM     28  N   UNL     1      48.668   4.240  19.624  0.00  0.00    +0.000 NA
ATOM     29  C   UNL     1      48.275   3.155  19.043  0.00  0.00    +0.000 A 
ATOM     30  N   UNL     1      48.081   3.018  17.692  0.00  0.00    +0.000 N 
ATOM     31  C   UNL     1      48.263   4.050  16.804  0.00  0.00    +0.000 A 
ATOM     32  O   UNL     1      48.008   3.924  15.611  0.00  0.00    +0.000 OA
ATOM     33  C   UNL     1      48.743   5.281  17.404  0.00  0.00    +0.000 A 
ATOM     34  H   UNL     1      47.752   2.147  17.305  0.00  0.00    +0.000 HD
ENDBRANCH  21  24
ENDBRANCH   2  20
TORSDOF 6
ENDMDL
MODEL 2
REMARK VINA RESULT:    -7.320      2.631      4.444
REMARK INTER + INTRA:         -10.965
REMARK INTER:                  -9.758
REMARK INTRA:                  -1.207
REMARK UNBOUND:                -1.077
REMARK  Name = 
REMARK  7 active torsions:
REMARK  status: ('A' for Active; 'I' for Inactive)
REMARK    1  A    between atoms: C_1  and  C_2
REMARK    2  A    between atoms: C_2  and  N_3
REMARK    3  A    between atoms: C_2  and  C_16
REMARK    4  A    between atoms: C_4  and  C_6
REMARK    5  A    between atoms: C_19  and  C_20
REMARK    6  A    between atoms: C_20  and  N_21
REMARK    7  A    between atoms: C_22  and  C_24
REMARK                            x       y       z     vdW  Elec       q    Type
REMARK                         _______ _______ _______ _____ _____    ______ ____
ROOT
ATOM      1  C   UNL     1      47.406   4.352  15.625  0.00  0.00    +0.000 C 
ATOM      2  C   UNL     1      47.210   5.599  14.751  0.00  0.00    +0.000 C 
ENDROOT
BRANCH   2   3
ATOM      3  C   UNL     1      46.392   5.254  13.511  0.00  0.00    +0.000 A 
ATOM      4  C   UNL     1      46.064   3.922  13.220  0.00  0.00    +0.000 A 
ATOM      5  C   UNL     1      45.371   3.592  12.046  0.00  0.00    +0.000 A 
ATOM      6  C   UNL     1      44.998   4.587  11.133  0.00  0.00    +0.000 A 
ATOM      7  C   UNL     1      45.269   5.923  11.451  0.00  0.00    +0.000 A 
ATOM      8  C   UNL     1      45.958   6.252  12.623  0.00  0.00    +0.000 A 
BRANCH   6   9
ATOM      9  C   UNL     1      44.342   4.234   9.822  0.00  0.00    +0.000 C 
BRANCH   9  10
ATOM     10  N   UNL     1      45.298   3.876   8.806  0.00  0.00    +0.000 N 
ATOM     11  C   UNL     1      45.518   2.556   8.480  0.00  0.00    +0.000 C 
ATOM     12  O   UNL     1      44.948   1.632   9.052  0.00  0.00    +0.000 OA
ATOM     13  H   UNL     1      45.714   4.613   8.259  0.00  0.00    +0.000 HD
BRANCH  11  14
ATOM     14  C   UNL     1      46.459   2.327   7.415  0.00  0.00    +0.000 A 
ATOM     15  C   UNL     1      47.437   1.376   7.208  0.00  0.00    +0.000 A 
ATOM     16  N   UNL     1      48.091   1.577   6.019  0.00  0.00    +0.000 NA
ATOM     17  C   UNL     1      47.524   2.635   5.490  0.00  0.00    +0.000 A 
ATOM     18  N   UNL     1      46.530   3.120   6.288  0.00  0.00    +0.000 N 
ATOM     19  H   UNL     1      45.940   3.920   6.102  0.00  0.00    +0.000 HD
ENDBRANCH  11  14
ENDBRANCH   9  10
ENDBRANCH   6   9
ENDBRANCH   2   3
BRANCH   2  20
ATOM     20  N   UNL     1      48.472   6.203  14.355  0.00  0.00    +0.000 N 
ATOM     21  C   UNL     1      49.104   7.162  15.109  0.00  0.00    +0.000 C 
ATOM     22  O   UNL     1      48.679   7.540  16.195  0.00  0.00    +0.000 OA
ATOM     23  H   UNL     1      48.692   6.163  13.364  0.00  0.00    +0.000 HD
BRANCH  21  24
ATOM     24  C   UNL     1      50.372   7.675  14.579  0.00  0.00    +0.000 A 
ATOM     25  C   UNL     1      51.519   7.611  15.357  0.00  0.00    +0.000 A 
ATOM     26  S   UNL     1      52.902   8.245  14.586  0.00  0.00    +0.000 S 
ATOM     27  C   UNL     1      52.003   8.668  13.206  0.00  0.00    +0.000 A 
ATOM     28  N   UNL     1      52.589   9.308  12.158  0.00  0.00    +0.000 NA
ATOM     29  C   UNL     1      51.781   9.606  11.195  0.00  0.00    +0.000 A 
ATOM     30  N   UNL     1      50.442   9.307  11.178  0.00  0.00    +0.000 N 
ATOM     31  C   UNL     1      49.817   8.623  12.193  0.00  0.00    +0.000 A 
ATOM     32  O   UNL     1      48.636   8.300  12.118  0.00  0.00    +0.000 OA
ATOM     33  C   UNL     1      50.676   8.300  13.316  0.00  0.00    +0.000 A 
ATOM     34  H   UNL     1      49.870   9.550  10.383  0.00  0.00    +0.000 HD
ENDBRANCH  21  24
ENDBRANCH   2  20
TORSDOF 6
ENDMDL
MODEL 3
REMARK VINA RESULT:    -7.272      3.644      8.293
REMARK INTER + INTRA:         -10.900
REMARK INTER:                  -9.895
REMARK INTRA:                  -1.005
REMARK UNBOUND:                -1.077
REMARK  Name = 
REMARK  7 active torsions:
REMARK  status: ('A' for Active; 'I' for Inactive)
REMARK    1  A    between atoms: C_1  and  C_2
REMARK    2  A    between atoms: C_2  and  N_3
REMARK    3  A    between atoms: C_2  and  C_16
REMARK    4  A    between atoms: C_4  and  C_6
REMARK    5  A    between atoms: C_19  and  C_20
REMARK    6  A    between atoms: C_20  and  N_21
REMARK    7  A    between atoms: C_22  and  C_24
REMARK                            x       y       z     vdW  Elec       q    Type
REMARK                         _______ _______ _______ _____ _____    ______ ____
ROOT
ATOM      1  C   UNL     1      49.406   7.434  13.051  0.00  0.00    +0.000 C 
ATOM      2  C   UNL     1      48.084   6.927  13.646  0.00  0.00    +0.000 C 
ENDROOT
BRANCH   2   3
ATOM      3  C   UNL     1      48.341   6.204  14.964  0.00  0.00    +0.000 A 
ATOM      4  C   UNL     1      49.383   6.607  15.810  0.00  0.00    +0.000 A 
ATOM      5  C   UNL     1      49.667   5.902  16.988  0.00  0.00    +0.000 A 
ATOM      6  C   UNL     1      48.919   4.772  17.343  0.00  0.00    +0.000 A 
ATOM      7  C   UNL     1      47.838   4.404  16.532  0.00  0.00    +0.000 A 
ATOM      8  C   UNL     1      47.554   5.108  15.358  0.00  0.00    +0.000 A 
BRANCH   6   9
ATOM      9  C   UNL     1      49.277   3.950  18.555  0.00  0.00    +0.000 C 
BRANCH   9  10
ATOM     10  N   UNL     1      50.578   3.339  18.441  0.00  0.00    +0.000 N 
ATOM     11  C   UNL     1      50.781   2.266  17.603  0.00  0.00    +0.000 C 
ATOM     12  O   UNL     1      49.876   1.761  16.947  0.00  0.00    +0.000 OA
ATOM     13  H   UNL     1      51.357   3.786  18.898  0.00  0.00    +0.000 HD
BRANCH  11  14
ATOM     14  C   UNL     1      52.133   1.776  17.537  0.00  0.00    +0.000 A 
ATOM     15  C   UNL     1      53.362   2.370  17.743  0.00  0.00    +0.000 A 
ATOM     16  N   UNL     1      54.388   1.479  17.557  0.00  0.00    +0.000 NA
ATOM     17  C   UNL     1      53.807   0.345  17.245  0.00  0.00    +0.000 A 
ATOM     18  N   UNL     1      52.448   0.470  17.227  0.00  0.00    +0.000 N 
ATOM     19  H   UNL     1      51.777  -0.257  17.023  0.00  0.00    +0.000 HD
ENDBRANCH  11  14
ENDBRANCH   9  10
ENDBRANCH   6   9
ENDBRANCH   2   3
BRANCH   2  20
ATOM     20  N   UNL     1      47.365   6.053  12.735  0.00  0.00    +0.000 N 
ATOM     21  C   UNL     1      46.379   6.508  11.894  0.00  0.00    +0.000 C 
ATOM     22  O   UNL     1      46.071   7.692  11.810  0.00  0.00    +0.000 OA
ATOM     23  H   UNL     1      47.356   5.067  12.981  0.00  0.00    +0.000 HD
BRANCH  21  24
ATOM     24  C   UNL     1      45.745   5.505  11.032  0.00  0.00    +0.000 A 
ATOM     25  C   UNL     1      45.830   5.630   9.653  0.00  0.00    +0.000 A 
ATOM     26  S   UNL     1      45.044   4.377   8.804  0.00  0.00    +0.000 S 
ATOM     27  C   UNL     1      44.525   3.651  10.252  0.00  0.00    +0.000 A 
ATOM     28  N   UNL     1      43.747   2.535  10.237  0.00  0.00    +0.000 NA
ATOM     29  C   UNL     1      43.393   2.115  11.406  0.00  0.00    +0.000 A 
ATOM     30  N   UNL     1      43.760   2.700  12.591  0.00  0.00    +0.000 N 
ATOM     31  C   UNL     1      44.581   3.801  12.657  0.00  0.00    +0.000 A 
ATOM     32  O   UNL     1      44.957   4.258  13.730  0.00  0.00    +0.000 OA
ATOM     33  C   UNL     1      44.974   4.333  11.367  0.00  0.00    +0.000 A 
ATOM     34  H   UNL     1      43.465   2.308  13.472  0.00  0.00    +0.000 HD
ENDBRANCH  21  24
ENDBRANCH   2  20
TORSDOF 6
ENDMDL
MODEL 4
REMARK VINA RESULT:    -7.260      4.573      9.246
REMARK INTER + INTRA:         -10.883
REMARK INTER:                 -10.004
REMARK INTRA:                  -0.879
REMARK UNBOUND:                -1.077
REMARK  Name = 
REMARK  7 active torsions:
REMARK  status: ('A' for Active; 'I' for Inactive)
REMARK    1  A    between atoms: C_1  and  C_2
REMARK    2  A    between atoms: C_2  and  N_3
REMARK    3  A    between atoms: C_2  and  C_16
REMARK    4  A    between atoms: C_4  and  C_6
REMARK    5  A    between atoms: C_19  and  C_20
REMARK    6  A    between atoms: C_20  and  N_21
REMARK    7  A    between atoms: C_22  and  C_24
REMARK                            x       y       z     vdW  Elec       q    Type
REMARK                         _______ _______ _______ _____ _____    ______ ____
ROOT
ATOM      1  C   UNL     1      47.038   4.963  18.514  0.00  0.00    +0.000 C 
ATOM      2  C   UNL     1      47.491   4.226  17.245  0.00  0.00    +0.000 C 
ENDROOT
BRANCH   2   3
ATOM      3  C   UNL     1      48.964   3.846  17.351  0.00  0.00    +0.000 A 
ATOM      4  C   UNL     1      49.368   2.509  17.223  0.00  0.00    +0.000 A 
ATOM      5  C   UNL     1      50.711   2.145  17.389  0.00  0.00    +0.000 A 
ATOM      6  C   UNL     1      51.681   3.109  17.693  0.00  0.00    +0.000 A 
ATOM      7  C   UNL     1      51.291   4.452  17.760  0.00  0.00    +0.000 A 
ATOM      8  C   UNL     1      49.951   4.816  17.593  0.00  0.00    +0.000 A 
BRANCH   6   9
ATOM      9  C   UNL     1      53.110   2.716  17.971  0.00  0.00    +0.000 C 
BRANCH   9  10
ATOM     10  N   UNL     1      53.225   1.369  18.467  0.00  0.00    +0.000 N 
ATOM     11  C   UNL     1      53.990   0.436  17.803  0.00  0.00    +0.000 C 
ATOM     12  O   UNL     1      54.575   0.690  16.755  0.00  0.00    +0.000 OA
ATOM     13  H   UNL     1      52.830   1.156  19.370  0.00  0.00    +0.000 HD
BRANCH  11  14
ATOM     14  C   UNL     1      54.068  -0.860  18.424  0.00  0.00    +0.000 A 
ATOM     15  C   UNL     1      55.120  -1.708  18.709  0.00  0.00    +0.000 A 
ATOM     16  N   UNL     1      54.687  -2.858  19.318  0.00  0.00    +0.000 NA
ATOM     17  C   UNL     1      53.386  -2.727  19.416  0.00  0.00    +0.000 A 
ATOM     18  N   UNL     1      52.964  -1.537  18.898  0.00  0.00    +0.000 N 
ATOM     19  H   UNL     1      52.013  -1.197  18.860  0.00  0.00    +0.000 HD
ENDBRANCH  11  14
ENDBRANCH   9  10
ENDBRANCH   6   9
ENDBRANCH   2   3
BRANCH   2  20
ATOM     20  N   UNL     1      47.269   5.008  16.040  0.00  0.00    +0.000 N 
ATOM     21  C   UNL     1      47.172   4.439  14.794  0.00  0.00    +0.000 C 
ATOM     22  O   UNL     1      47.210   3.226  14.612  0.00  0.00    +0.000 OA
ATOM     23  H   UNL     1      47.537   5.987  16.091  0.00  0.00    +0.000 HD
BRANCH  21  24
ATOM     24  C   UNL     1      46.946   5.359  13.674  0.00  0.00    +0.000 A 
ATOM     25  C   UNL     1      47.958   6.222  13.279  0.00  0.00    +0.000 A 
ATOM     26  S   UNL     1      47.529   7.218  11.962  0.00  0.00    +0.000 S 
ATOM     27  C   UNL     1      45.962   6.560  11.907  0.00  0.00    +0.000 A 
ATOM     28  N   UNL     1      45.042   7.016  11.014  0.00  0.00    +0.000 NA
ATOM     29  C   UNL     1      43.881   6.456  11.111  0.00  0.00    +0.000 A 
ATOM     30  N   UNL     1      43.561   5.470  12.010  0.00  0.00    +0.000 N 
ATOM     31  C   UNL     1      44.470   4.948  12.899  0.00  0.00    +0.000 A 
ATOM     32  O   UNL     1      44.181   4.014  13.639  0.00  0.00    +0.000 OA
ATOM     33  C   UNL     1      45.779   5.572  12.855  0.00  0.00    +0.000 A 
ATOM     34  H   UNL     1      42.640   5.060  12.018  0.00  0.00    +0.000 HD
ENDBRANCH  21  24
ENDBRANCH   2  20
TORSDOF 6
ENDMDL
MODEL 5
REMARK VINA RESULT:    -6.994      3.263      8.622
REMARK INTER + INTRA:         -10.524
REMARK INTER:                  -9.440
REMARK INTRA:                  -1.085
REMARK UNBOUND:                -1.077
REMARK  Name = 
REMARK  7 active torsions:
REMARK  status: ('A' for Active; 'I' for Inactive)
REMARK    1  A    between atoms: C_1  and  C_2
REMARK    2  A    between atoms: C_2  and  N_3
REMARK    3  A    between atoms: C_2  and  C_16
REMARK    4  A    between atoms: C_4  and  C_6
REMARK    5  A    between atoms: C_19  and  C_20
REMARK    6  A    between atoms: C_20  and  N_21
REMARK    7  A    between atoms: C_22  and  C_24
REMARK                            x       y       z     vdW  Elec       q    Type
REMARK                         _______ _______ _______ _____ _____    ______ ____
ROOT
ATOM      1  C   UNL     1      48.698   7.945  11.412  0.00  0.00    +0.000 C 
ATOM      2  C   UNL     1      47.762   7.452  12.526  0.00  0.00    +0.000 C 
ENDROOT
BRANCH   2   3
ATOM      3  C   UNL     1      48.563   7.114  13.779  0.00  0.00    +0.000 A 
ATOM      4  C   UNL     1      48.035   6.258  14.756  0.00  0.00    +0.000 A 
ATOM      5  C   UNL     1      48.737   5.999  15.941  0.00  0.00    +0.000 A 
ATOM      6  C   UNL     1      49.981   6.598  16.180  0.00  0.00    +0.000 A 
ATOM      7  C   UNL     1      50.539   7.404  15.181  0.00  0.00    +0.000 A 
ATOM      8  C   UNL     1      49.839   7.660  13.997  0.00  0.00    +0.000 A 
BRANCH   6   9
ATOM      9  C   UNL     1      50.698   6.405  17.492  0.00  0.00    +0.000 C 
BRANCH   9  10
ATOM     10  N   UNL     1      51.483   5.197  17.520  0.00  0.00    +0.000 N 
ATOM     11  C   UNL     1      50.955   4.026  18.018  0.00  0.00    +0.000 C 
ATOM     12  O   UNL     1      49.824   3.960  18.487  0.00  0.00    +0.000 OA
ATOM     13  H   UNL     1      52.380   5.199  17.062  0.00  0.00    +0.000 HD
BRANCH  11  14
ATOM     14  C   UNL     1      51.818   2.876  17.945  0.00  0.00    +0.000 A 
ATOM     15  C   UNL     1      53.184   2.713  18.050  0.00  0.00    +0.000 A 
ATOM     16  N   UNL     1      53.547   1.398  17.905  0.00  0.00    +0.000 NA
ATOM     17  C   UNL     1      52.422   0.750  17.718  0.00  0.00    +0.000 A 
ATOM     18  N   UNL     1      51.350   1.595  17.740  0.00  0.00    +0.000 N 
ATOM     19  H   UNL     1      50.378   1.341  17.627  0.00  0.00    +0.000 HD
ENDBRANCH  11  14
ENDBRANCH   9  10
ENDBRANCH   6   9
ENDBRANCH   2   3
BRANCH   2  20
ATOM     20  N   UNL     1      46.974   6.300  12.120  0.00  0.00    +0.000 N 
ATOM     21  C   UNL     1      45.602   6.276  12.197  0.00  0.00    +0.000 C 
ATOM     22  O   UNL     1      44.940   7.241  12.563  0.00  0.00    +0.000 OA
ATOM     23  H   UNL     1      47.461   5.409  12.114  0.00  0.00    +0.000 HD
BRANCH  21  24
ATOM     24  C   UNL     1      44.948   5.043  11.748  0.00  0.00    +0.000 A 
ATOM     25  C   UNL     1      44.193   4.300  12.644  0.00  0.00    +0.000 A 
ATOM     26  S   UNL     1      43.500   2.902  11.957  0.00  0.00    +0.000 S 
ATOM     27  C   UNL     1      44.224   3.219  10.451  0.00  0.00    +0.000 A 
ATOM     28  N   UNL     1      44.070   2.363   9.405  0.00  0.00    +0.000 NA
ATOM     29  C   UNL     1      44.708   2.706   8.336  0.00  0.00    +0.000 A 
ATOM     30  N   UNL     1      45.474   3.837   8.212  0.00  0.00    +0.000 N 
ATOM     31  C   UNL     1      45.622   4.753   9.226  0.00  0.00    +0.000 A 
ATOM     32  O   UNL     1      46.248   5.795   9.065  0.00  0.00    +0.000 OA
ATOM     33  C   UNL     1      44.954   4.392  10.462  0.00  0.00    +0.000 A 
ATOM     34  H   UNL     1      45.929   4.058   7.340  0.00  0.00    +0.000 HD
ENDBRANCH  21  24
ENDBRANCH   2  20
TORSDOF 6
ENDMDL
MODEL 6
REMARK VINA RESULT:    -6.701      3.461      8.082
REMARK INTER + INTRA:         -10.129
REMARK INTER:                  -9.084
REMARK INTRA:                  -1.045
REMARK UNBOUND:                -1.077
REMARK  Name = 
REMARK  7 active torsions:
REMARK  status: ('A' for Active; 'I' for Inactive)
REMARK    1  A    between atoms: C_1  and  C_2
REMARK    2  A    between atoms: C_2  and  N_3
REMARK    3  A    between atoms: C_2  and  C_16
REMARK    4  A    between atoms: C_4  and  C_6
REMARK    5  A    between atoms: C_19  and  C_20
REMARK    6  A    between atoms: C_20  and  N_21
REMARK    7  A    between atoms: C_22  and  C_24
REMARK                            x       y       z     vdW  Elec       q    Type
REMARK                         _______ _______ _______ _____ _____    ______ ____
ROOT
ATOM      1  C   UNL     1      49.013   9.180  11.602  0.00  0.00    +0.000 C 
ATOM      2  C   UNL     1      47.899   8.522  12.431  0.00  0.00    +0.000 C 
ENDROOT
BRANCH   2   3
ATOM      3  C   UNL     1      48.429   8.120  13.804  0.00  0.00    +0.000 A 
ATOM      4  C   UNL     1      49.370   7.088  13.932  0.00  0.00    +0.000 A 
ATOM      5  C   UNL     1      49.808   6.668  15.195  0.00  0.00    +0.000 A 
ATOM      6  C   UNL     1      49.309   7.265  16.361  0.00  0.00    +0.000 A 
ATOM      7  C   UNL     1      48.416   8.336  16.234  0.00  0.00    +0.000 A 
ATOM      8  C   UNL     1      47.981   8.757  14.973  0.00  0.00    +0.000 A 
BRANCH   6   9
ATOM      9  C   UNL     1      49.697   6.755  17.725  0.00  0.00    +0.000 C 
BRANCH   9  10
ATOM     10  N   UNL     1      50.431   5.516  17.663  0.00  0.00    +0.000 N 
ATOM     11  C   UNL     1      49.800   4.312  17.882  0.00  0.00    +0.000 C 
ATOM     12  O   UNL     1      48.611   4.234  18.170  0.00  0.00    +0.000 OA
ATOM     13  H   UNL     1      51.386   5.541  17.341  0.00  0.00    +0.000 HD
BRANCH  11  14
ATOM     14  C   UNL     1      50.627   3.142  17.741  0.00  0.00    +0.000 A 
ATOM     15  C   UNL     1      50.445   1.928  17.111  0.00  0.00    +0.000 A 
ATOM     16  N   UNL     1      51.540   1.115  17.259  0.00  0.00    +0.000 NA
ATOM     17  C   UNL     1      52.394   1.815  17.967  0.00  0.00    +0.000 A 
ATOM     18  N   UNL     1      51.895   3.046  18.276  0.00  0.00    +0.000 N 
ATOM     19  H   UNL     1      52.360   3.772  18.805  0.00  0.00    +0.000 HD
ENDBRANCH  11  14
ENDBRANCH   9  10
ENDBRANCH   6   9
ENDBRANCH   2   3
BRANCH   2  20
ATOM     20  N   UNL     1      47.322   7.365  11.767  0.00  0.00    +0.000 N 
ATOM     21  C   UNL     1      45.968   7.141  11.713  0.00  0.00    +0.000 C 
ATOM     22  O   UNL     1      45.145   7.926  12.172  0.00  0.00    +0.000 OA
ATOM     23  H   UNL     1      47.937   6.564  11.658  0.00  0.00    +0.000 HD
BRANCH  21  24
ATOM     24  C   UNL     1      45.538   5.930  11.006  0.00  0.00    +0.000 A 
ATOM     25  C   UNL     1      45.828   5.781   9.657  0.00  0.00    +0.000 A 
ATOM     26  S   UNL     1      45.262   4.316   8.995  0.00  0.00    +0.000 S 
ATOM     27  C   UNL     1      44.569   3.853  10.477  0.00  0.00    +0.000 A 
ATOM     28  N   UNL     1      43.871   2.690  10.592  0.00  0.00    +0.000 NA
ATOM     29  C   UNL     1      43.366   2.484  11.763  0.00  0.00    +0.000 A 
ATOM     30  N   UNL     1      43.507   3.328  12.835  0.00  0.00    +0.000 N 
ATOM     31  C   UNL     1      44.240   4.490  12.778  0.00  0.00    +0.000 A 
ATOM     32  O   UNL     1      44.416   5.188  13.771  0.00  0.00    +0.000 OA
ATOM     33  C   UNL     1      44.797   4.785  11.472  0.00  0.00    +0.000 A 
ATOM     34  H   UNL     1      43.104   3.097  13.730  0.00  0.00    +0.000 HD
ENDBRANCH  21  24
ENDBRANCH   2  20
TORSDOF 6
ENDMDL
MODEL 7
REMARK VINA RESULT:    -6.622      1.744      2.335
REMARK INTER + INTRA:         -10.023
REMARK INTER:                  -8.895
REMARK INTRA:                  -1.127
REMARK UNBOUND:                -1.077
REMARK  Name = 
REMARK  7 active torsions:
REMARK  status: ('A' for Active; 'I' for Inactive)
REMARK    1  A    between atoms: C_1  and  C_2
REMARK    2  A    between atoms: C_2  and  N_3
REMARK    3  A    between atoms: C_2  and  C_16
REMARK    4  A    between atoms: C_4  and  C_6
REMARK    5  A    between atoms: C_19  and  C_20
REMARK    6  A    between atoms: C_20  and  N_21
REMARK    7  A    between atoms: C_22  and  C_24
REMARK                            x       y       z     vdW  Elec       q    Type
REMARK                         _______ _______ _______ _____ _____    ______ ____
ROOT
ATOM      1  C   UNL     1      47.799   9.580  14.248  0.00  0.00    +0.000 C 
ATOM      2  C   UNL     1      48.103   8.086  14.060  0.00  0.00    +0.000 C 
ENDROOT
BRANCH   2   3
ATOM      3  C   UNL     1      47.164   7.482  13.022  0.00  0.00    +0.000 A 
ATOM      4  C   UNL     1      45.773   7.556  13.187  0.00  0.00    +0.000 A 
ATOM      5  C   UNL     1      44.907   6.941  12.273  0.00  0.00    +0.000 A 
ATOM      6  C   UNL     1      45.411   6.231  11.175  0.00  0.00    +0.000 A 
ATOM      7  C   UNL     1      46.797   6.208  10.974  0.00  0.00    +0.000 A 
ATOM      8  C   UNL     1      47.661   6.822  11.885  0.00  0.00    +0.000 A 
BRANCH   6   9
ATOM      9  C   UNL     1      44.493   5.484  10.242  0.00  0.00    +0.000 C 
BRANCH   9  10
ATOM     10  N   UNL     1      45.210   4.785   9.205  0.00  0.00    +0.000 N 
ATOM     11  C   UNL     1      45.214   3.409   9.156  0.00  0.00    +0.000 C 
ATOM     12  O   UNL     1      44.646   2.718   9.996  0.00  0.00    +0.000 OA
ATOM     13  H   UNL     1      45.609   5.324   8.453  0.00  0.00    +0.000 HD
BRANCH  11  14
ATOM     14  C   UNL     1      45.922   2.829   8.046  0.00  0.00    +0.000 A 
ATOM     15  C   UNL     1      46.253   3.296   6.790  0.00  0.00    +0.000 A 
ATOM     16  N   UNL     1      46.944   2.356   6.069  0.00  0.00    +0.000 NA
ATOM     17  C   UNL     1      47.048   1.320   6.867  0.00  0.00    +0.000 A 
ATOM     18  N   UNL     1      46.454   1.557   8.072  0.00  0.00    +0.000 N 
ATOM     19  H   UNL     1      46.404   0.921   8.856  0.00  0.00    +0.000 HD
ENDBRANCH  11  14
ENDBRANCH   9  10
ENDBRANCH   6   9
ENDBRANCH   2   3
BRANCH   2  20
ATOM     20  N   UNL     1      48.010   7.340  15.303  0.00  0.00    +0.000 N 
ATOM     21  C   UNL     1      49.073   6.653  15.837  0.00  0.00    +0.000 C 
ATOM     22  O   UNL     1      50.191   6.662  15.334  0.00  0.00    +0.000 OA
ATOM     23  H   UNL     1      47.076   7.049  15.577  0.00  0.00    +0.000 HD
BRANCH  21  24
ATOM     24  C   UNL     1      48.823   5.949  17.100  0.00  0.00    +0.000 A 
ATOM     25  C   UNL     1      48.998   4.574  17.166  0.00  0.00    +0.000 A 
ATOM     26  S   UNL     1      48.671   3.918  18.706  0.00  0.00    +0.000 S 
ATOM     27  C   UNL     1      48.239   5.444  19.322  0.00  0.00    +0.000 A 
ATOM     28  N   UNL     1      47.804   5.585  20.603  0.00  0.00    +0.000 NA
ATOM     29  C   UNL     1      47.472   6.791  20.924  0.00  0.00    +0.000 A 
ATOM     30  N   UNL     1      47.551   7.873  20.085  0.00  0.00    +0.000 N 
ATOM     31  C   UNL     1      48.027   7.787  18.798  0.00  0.00    +0.000 A 
ATOM     32  O   UNL     1      48.161   8.782  18.094  0.00  0.00    +0.000 OA
ATOM     33  C   UNL     1      48.377   6.444  18.378  0.00  0.00    +0.000 A 
ATOM     34  H   UNL     1      47.295   8.794  20.407  0.00  0.00    +0.000 HD
ENDBRANCH  21  24
ENDBRANCH   2  20
TORSDOF 6
ENDMDL
MODEL 8
REMARK VINA RESULT:    -6.565      3.996      8.669
REMARK INTER + INTRA:          -9.946
REMARK INTER:                  -8.959
REMARK INTRA:                  -0.987
REMARK UNBOUND:                -1.077
REMARK  Name = 
REMARK  7 active torsions:
REMARK  status: ('A' for Active; 'I' for Inactive)
REMARK    1  A    between atoms: C_1  and  C_2
REMARK    2  A    between atoms: C_2  and  N_3
REMARK    3  A    between atoms: C_2  and  C_16
REMARK    4  A    between atoms: C_4  and  C_6
REMARK    5  A    between atoms: C_19  and  C_20
REMARK    6  A    between atoms: C_20  and  N_21
REMARK    7  A    between atoms: C_22  and  C_24
REMARK                            x       y       z     vdW  Elec       q    Type
REMARK                         _______ _______ _______ _____ _____    ______ ____
ROOT
ATOM      1  C   UNL     1      46.811   2.986  17.716  0.00  0.00    +0.000 C 
ATOM      2  C   UNL     1      47.625   3.368  16.470  0.00  0.00    +0.000 C 
ENDROOT
BRANCH   2   3
ATOM      3  C   UNL     1      48.969   3.962  16.878  0.00  0.00    +0.000 A 
ATOM      4  C   UNL     1      49.192   5.345  16.799  0.00  0.00    +0.000 A 
ATOM      5  C   UNL     1      50.447   5.888  17.106  0.00  0.00    +0.000 A 
ATOM      6  C   UNL     1      51.510   5.061  17.491  0.00  0.00    +0.000 A 
ATOM      7  C   UNL     1      51.273   3.688  17.630  0.00  0.00    +0.000 A 
ATOM      8  C   UNL     1      50.020   3.146  17.326  0.00  0.00    +0.000 A 
BRANCH   6   9
ATOM      9  C   UNL     1      52.889   5.623  17.727  0.00  0.00    +0.000 C 
BRANCH   9  10
ATOM     10  N   UNL     1      53.589   5.901  16.499  0.00  0.00    +0.000 N 
ATOM     11  C   UNL     1      53.668   7.185  16.008  0.00  0.00    +0.000 C 
ATOM     12  O   UNL     1      53.127   8.137  16.561  0.00  0.00    +0.000 OA
ATOM     13  H   UNL     1      54.117   5.157  16.070  0.00  0.00    +0.000 HD
BRANCH  11  14
ATOM     14  C   UNL     1      54.437   7.343  14.801  0.00  0.00    +0.000 A 
ATOM     15  C   UNL     1      55.054   8.427  14.210  0.00  0.00    +0.000 A 
ATOM     16  N   UNL     1      55.676   8.076  13.039  0.00  0.00    +0.000 NA
ATOM     17  C   UNL     1      55.455   6.789  12.905  0.00  0.00    +0.000 A 
ATOM     18  N   UNL     1      54.719   6.299  13.944  0.00  0.00    +0.000 N 
ATOM     19  H   UNL     1      54.423   5.342  14.077  0.00  0.00    +0.000 HD
ENDBRANCH  11  14
ENDBRANCH   9  10
ENDBRANCH   6   9
ENDBRANCH   2   3
BRANCH   2  20
ATOM     20  N   UNL     1      46.915   4.299  15.608  0.00  0.00    +0.000 N 
ATOM     21  C   UNL     1      46.891   4.171  14.240  0.00  0.00    +0.000 C 
ATOM     22  O   UNL     1      47.419   3.235  13.650  0.00  0.00    +0.000 OA
ATOM     23  H   UNL     1      46.741   5.220  15.998  0.00  0.00    +0.000 HD
BRANCH  21  24
ATOM     24  C   UNL     1      46.131   5.188  13.506  0.00  0.00    +0.000 A 
ATOM     25  C   UNL     1      46.601   6.493  13.453  0.00  0.00    +0.000 A 
ATOM     26  S   UNL     1      45.600   7.542  12.556  0.00  0.00    +0.000 S 
ATOM     27  C   UNL     1      44.482   6.299  12.249  0.00  0.00    +0.000 A 
ATOM     28  N   UNL     1      43.338   6.541  11.554  0.00  0.00    +0.000 NA
ATOM     29  C   UNL     1      42.561   5.516  11.430  0.00  0.00    +0.000 A 
ATOM     30  N   UNL     1      42.831   4.266  11.925  0.00  0.00    +0.000 N 
ATOM     31  C   UNL     1      43.994   3.964  12.594  0.00  0.00    +0.000 A 
ATOM     32  O   UNL     1      44.247   2.821  12.958  0.00  0.00    +0.000 OA
ATOM     33  C   UNL     1      44.883   5.093  12.792  0.00  0.00    +0.000 A 
ATOM     34  H   UNL     1      42.190   3.503  11.775  0.00  0.00    +0.000 HD
ENDBRANCH  21  24
ENDBRANCH   2  20
TORSDOF 6
ENDMDL
MODEL 9
REMARK VINA RESULT:    -6.508      4.652      7.563
REMARK INTER + INTRA:          -9.869
REMARK INTER:                  -8.906
REMARK INTRA:                  -0.963
REMARK UNBOUND:                -1.077
REMARK  Name = 
REMARK  7 active torsions:
REMARK  status: ('A' for Active; 'I' for Inactive)
REMARK    1  A    between atoms: C_1  and  C_2
REMARK    2  A    between atoms: C_2  and  N_3
REMARK    3  A    between atoms: C_2  and  C_16
REMARK    4  A    between atoms: C_4  and  C_6
REMARK    5  A    between atoms: C_19  and  C_20
REMARK    6  A    between atoms: C_20  and  N_21
REMARK    7  A    between atoms: C_22  and  C_24
REMARK                            x       y       z     vdW  Elec       q    Type
REMARK                         _______ _______ _______ _____ _____    ______ ____
ROOT
ATOM      1  C   UNL     1      45.271   9.552  12.135  0.00  0.00    +0.000 C 
ATOM      2  C   UNL     1      46.026   8.285  12.565  0.00  0.00    +0.000 C 
ENDROOT
BRANCH   2   3
ATOM      3  C   UNL     1      47.496   8.387  12.173  0.00  0.00    +0.000 A 
ATOM      4  C   UNL     1      48.340   7.272  12.268  0.00  0.00    +0.000 A 
ATOM      5  C   UNL     1      49.707   7.378  11.976  0.00  0.00    +0.000 A 
ATOM      6  C   UNL     1      50.263   8.604  11.590  0.00  0.00    +0.000 A 
ATOM      7  C   UNL     1      49.412   9.705  11.434  0.00  0.00    +0.000 A 
ATOM      8  C   UNL     1      48.048   9.599  11.724  0.00  0.00    +0.000 A 
BRANCH   6   9
ATOM      9  C   UNL     1      51.747   8.752  11.369  0.00  0.00    +0.000 C 
BRANCH   9  10
ATOM     10  N   UNL     1      52.116   8.605   9.984  0.00  0.00    +0.000 N 
ATOM     11  C   UNL     1      52.552   7.394   9.496  0.00  0.00    +0.000 C 
ATOM     12  O   UNL     1      52.678   6.403  10.208  0.00  0.00    +0.000 OA
ATOM     13  H   UNL     1      51.939   9.375   9.358  0.00  0.00    +0.000 HD
BRANCH  11  14
ATOM     14  C   UNL     1      52.842   7.360   8.086  0.00  0.00    +0.000 A 
ATOM     15  C   UNL     1      53.114   6.334   7.203  0.00  0.00    +0.000 A 
ATOM     16  N   UNL     1      53.333   6.808   5.935  0.00  0.00    +0.000 NA
ATOM     17  C   UNL     1      53.193   8.109   6.025  0.00  0.00    +0.000 A 
ATOM     18  N   UNL     1      52.890   8.491   7.299  0.00  0.00    +0.000 N 
ATOM     19  H   UNL     1      52.727   9.434   7.624  0.00  0.00    +0.000 HD
ENDBRANCH  11  14
ENDBRANCH   9  10
ENDBRANCH   6   9
ENDBRANCH   2   3
BRANCH   2  20
ATOM     20  N   UNL     1      45.448   7.077  12.000  0.00  0.00    +0.000 N 
ATOM     21  C   UNL     1      45.433   5.878  12.672  0.00  0.00    +0.000 C 
ATOM     22  O   UNL     1      45.856   5.752  13.817  0.00  0.00    +0.000 OA
ATOM     23  H   UNL     1      45.379   7.049  10.987  0.00  0.00    +0.000 HD
BRANCH  21  24
ATOM     24  C   UNL     1      44.814   4.748  11.972  0.00  0.00    +0.000 A 
ATOM     25  C   UNL     1      43.995   3.872  12.670  0.00  0.00    +0.000 A 
ATOM     26  S   UNL     1      43.355   2.621  11.704  0.00  0.00    +0.000 S 
ATOM     27  C   UNL     1      44.187   3.183  10.332  0.00  0.00    +0.000 A 
ATOM     28  N   UNL     1      44.110   2.521   9.146  0.00  0.00    +0.000 NA
ATOM     29  C   UNL     1      44.825   3.034   8.200  0.00  0.00    +0.000 A 
ATOM     30  N   UNL     1      45.598   4.160   8.329  0.00  0.00    +0.000 N 
ATOM     31  C   UNL     1      45.671   4.887   9.493  0.00  0.00    +0.000 A 
ATOM     32  O   UNL     1      46.307   5.933   9.560  0.00  0.00    +0.000 OA
ATOM     33  C   UNL     1      44.915   4.327  10.597  0.00  0.00    +0.000 A 
ATOM     34  H   UNL     1      46.116   4.521   7.542  0.00  0.00    +0.000 HD
ENDBRANCH  21  24
ENDBRANCH   2  20
TORSDOF 6
ENDMDL
