MODEL 1
REMARK VINA RESULT:    -6.726      0.000      0.000
REMARK INTER + INTRA:         -10.897
REMARK INTER:                  -9.872
REMARK INTRA:                  -1.025
REMARK UNBOUND:                -1.025
REMARK  Name = 
REMARK  9 active torsions:
REMARK  status: ('A' for Active; 'I' for Inactive)
REMARK    1  A    between atoms: C_1  and  O_2
REMARK    2  A    between atoms: O_2  and  C_3
REMARK    3  A    between atoms: C_10  and  C_11
REMARK    4  A    between atoms: N_13  and  C_14
REMARK    5  A    between atoms: C_14  and  C_15
REMARK    6  A    between atoms: C_18  and  O_19
REMARK    7  A    between atoms: O_19  and  C_20
REMARK    8  A    between atoms: C_20  and  C_21
REMARK    9  A    between atoms: C_21  and  N_22
REMARK                            x       y       z     vdW  Elec       q    Type
REMARK                         _______ _______ _______ _____ _____    ______ ____
ROOT
ATOM      1  C   UNL     1      49.531   7.606  15.289  0.00  0.00    +0.000 C 
ENDROOT
BRANCH   1   2
ATOM      2  C   UNL     1      48.580   7.017  14.279  0.00  0.00    +0.000 A 
ATOM      3  C   UNL     1      47.776   5.919  14.612  0.00  0.00    +0.000 A 
ATOM      4  C   UNL     1      46.860   5.396  13.691  0.00  0.00    +0.000 A 
ATOM      5  C   UNL     1      46.729   5.969  12.428  0.00  0.00    +0.000 A 
ATOM      6  C   UNL     1      47.581   7.012  12.061  0.00  0.00    +0.000 A 
ATOM      7  C   UNL     1      48.501   7.534  12.978  0.00  0.00    +0.000 A 
BRANCH   5   8
ATOM      8  O   UNL     1      45.815   5.584  11.483  0.00  0.00    +0.000 OA
BRANCH   8   9
ATOM      9  C   UNL     1      44.924   4.526  11.881  0.00  0.00    +0.000 C 
BRANCH   9  10
ATOM     10  C   UNL     1      45.207   3.289  11.009  0.00  0.00    +0.000 C 
BRANCH  10  11
ATOM     11  N   UNL     1      44.381   3.158   9.793  0.00  0.00    +0.000 NA
ATOM     12  C   UNL     1      44.583   1.830   9.160  0.00  0.00    +0.000 C 
ATOM     13  C   UNL     1      45.927   1.701   8.421  0.00  0.00    +0.000 C 
ATOM     14  O   UNL     1      46.043   2.698   7.400  0.00  0.00    +0.000 OA
ATOM     15  C   UNL     1      45.925   4.014   7.955  0.00  0.00    +0.000 C 
ATOM     16  C   UNL     1      44.622   4.187   8.757  0.00  0.00    +0.000 C 
ENDBRANCH  10  11
ENDBRANCH   9  10
ENDBRANCH   8   9
ENDBRANCH   5   8
ENDBRANCH   1   2
BRANCH   1  19
ATOM     17  C   UNL     1      50.232   6.126  17.123  0.00  0.00    +0.000 C 
ATOM     18  O   UNL     1      49.328   6.535  17.843  0.00  0.00    +0.000 OA
ATOM     19  N   UNL     1      50.396   6.598  15.849  0.00  0.00    +0.000 N 
ATOM     20  H   UNL     1      51.156   6.264  15.273  0.00  0.00    +0.000 HD
BRANCH  17  28
ATOM     21  C   UNL     1      50.258   2.683  17.070  0.00  0.00    +0.000 A 
ATOM     22  N   UNL     1      50.541   1.368  17.136  0.00  0.00    +0.000 NA
ATOM     23  C   UNL     1      51.702   1.003  17.686  0.00  0.00    +0.000 A 
ATOM     24  N   UNL     1      52.633   1.805  18.196  0.00  0.00    +0.000 NA
ATOM     25  C   UNL     1      52.318   3.109  18.097  0.00  0.00    +0.000 A 
ATOM     26  S   UNL     1      53.387   4.279  18.703  0.00  0.00    +0.000 S 
ATOM     27  C   UNL     1      52.356   5.541  18.223  0.00  0.00    +0.000 A 
ATOM     28  C   UNL     1      51.192   5.111  17.595  0.00  0.00    +0.000 A 
ATOM     29  C   UNL     1      51.165   3.650  17.538  0.00  0.00    +0.000 A 
BRANCH  21  31
ATOM     30  C   UNL     1      47.961   2.998  17.398  0.00  0.00    +0.000 C 
ATOM     31  O   UNL     1      49.064   3.065  16.497  0.00  0.00    +0.000 OA
ENDBRANCH  21  31
ENDBRANCH  17  28
ENDBRANCH   1  19
TORSDOF 8
ENDMDL
MODEL 2
REMARK VINA RESULT:    -6.450      1.976      3.467
REMARK INTER + INTRA:         -10.492
REMARK INTER:                  -9.607
REMARK INTRA:                  -0.885
REMARK UNBOUND:                -1.025
REMARK  Name = 
REMARK  9 active torsions:
REMARK  status: ('A' for Active; 'I' for Inactive)
REMARK    1  A    between atoms: C_1  and  O_2
REMARK    2  A    between atoms: O_2  and  C_3
REMARK    3  A    between atoms: C_10  and  C_11
REMARK    4  A    between atoms: N_13  and  C_14
REMARK    5  A    between atoms: C_14  and  C_15
REMARK    6  A    between atoms: C_18  and  O_19
REMARK    7  A    between atoms: O_19  and  C_20
REMARK    8  A    between atoms: C_20  and  C_21
REMARK    9  A    between atoms: C_21  and  N_22
REMARK                            x       y       z     vdW  Elec       q    Type
REMARK                         _______ _______ _______ _____ _____    ______ ____
ROOT
ATOM      1  C   UNL     1      47.748   3.590  17.354  0.00  0.00    +0.000 C 
ENDROOT
BRANCH   1   2
ATOM      2  C   UNL     1      47.587   4.386  16.084  0.00  0.00    +0.000 A 
ATOM      3  C   UNL     1      48.195   5.641  15.947  0.00  0.00    +0.000 A 
ATOM      4  C   UNL     1      48.084   6.364  14.752  0.00  0.00    +0.000 A 
ATOM      5  C   UNL     1      47.372   5.839  13.677  0.00  0.00    +0.000 A 
ATOM      6  C   UNL     1      46.698   4.627  13.833  0.00  0.00    +0.000 A 
ATOM      7  C   UNL     1      46.804   3.903  15.026  0.00  0.00    +0.000 A 
BRANCH   5   8
ATOM      8  O   UNL     1      47.265   6.428  12.444  0.00  0.00    +0.000 OA
BRANCH   8   9
ATOM      9  C   UNL     1      45.927   6.538  11.926  0.00  0.00    +0.000 C 
BRANCH   9  10
ATOM     10  C   UNL     1      45.746   5.502  10.802  0.00  0.00    +0.000 C 
BRANCH  10  11
ATOM     11  N   UNL     1      44.364   5.312  10.320  0.00  0.00    +0.000 NA
ATOM     12  C   UNL     1      43.430   5.135  11.460  0.00  0.00    +0.000 C 
ATOM     13  C   UNL     1      43.528   3.749  12.124  0.00  0.00    +0.000 C 
ATOM     14  O   UNL     1      43.268   2.711  11.173  0.00  0.00    +0.000 OA
ATOM     15  C   UNL     1      44.183   2.782  10.073  0.00  0.00    +0.000 C 
ATOM     16  C   UNL     1      44.171   4.168   9.402  0.00  0.00    +0.000 C 
ENDBRANCH  10  11
ENDBRANCH   9  10
ENDBRANCH   8   9
ENDBRANCH   5   8
ENDBRANCH   1   2
BRANCH   1  19
ATOM     17  C   UNL     1      49.886   2.428  17.009  0.00  0.00    +0.000 C 
ATOM     18  O   UNL     1      49.407   1.739  16.116  0.00  0.00    +0.000 OA
ATOM     19  N   UNL     1      49.137   3.367  17.664  0.00  0.00    +0.000 N 
ATOM     20  H   UNL     1      49.542   3.915  18.409  0.00  0.00    +0.000 HD
BRANCH  17  28
ATOM     21  C   UNL     1      52.327   4.652  17.983  0.00  0.00    +0.000 A 
ATOM     22  N   UNL     1      53.426   5.285  18.435  0.00  0.00    +0.000 NA
ATOM     23  C   UNL     1      54.499   4.545  18.729  0.00  0.00    +0.000 A 
ATOM     24  N   UNL     1      54.614   3.224  18.619  0.00  0.00    +0.000 NA
ATOM     25  C   UNL     1      53.491   2.631  18.178  0.00  0.00    +0.000 A 
ATOM     26  S   UNL     1      53.458   0.948  17.968  0.00  0.00    +0.000 S 
ATOM     27  C   UNL     1      51.840   0.995  17.450  0.00  0.00    +0.000 A 
ATOM     28  C   UNL     1      51.292   2.273  17.428  0.00  0.00    +0.000 A 
ATOM     29  C   UNL     1      52.292   3.253  17.848  0.00  0.00    +0.000 A 
BRANCH  21  31
ATOM     30  C   UNL     1      51.436   6.336  16.622  0.00  0.00    +0.000 C 
ATOM     31  O   UNL     1      51.216   5.411  17.684  0.00  0.00    +0.000 OA
ENDBRANCH  21  31
ENDBRANCH  17  28
ENDBRANCH   1  19
TORSDOF 8
ENDMDL
MODEL 3
REMARK VINA RESULT:    -6.428      3.403      8.688
REMARK INTER + INTRA:         -10.460
REMARK INTER:                  -8.952
REMARK INTRA:                  -1.508
REMARK UNBOUND:                -1.025
REMARK  Name = 
REMARK  9 active torsions:
REMARK  status: ('A' for Active; 'I' for Inactive)
REMARK    1  A    between atoms: C_1  and  O_2
REMARK    2  A    between atoms: O_2  and  C_3
REMARK    3  A    between atoms: C_10  and  C_11
REMARK    4  A    between atoms: N_13  and  C_14
REMARK    5  A    between atoms: C_14  and  C_15
REMARK    6  A    between atoms: C_18  and  O_19
REMARK    7  A    between atoms: O_19  and  C_20
REMARK    8  A    between atoms: C_20  and  C_21
REMARK    9  A    between atoms: C_21  and  N_22
REMARK                            x       y       z     vdW  Elec       q    Type
REMARK                         _______ _______ _______ _____ _____    ______ ____
ROOT
ATOM      1  C   UNL     1      47.135   3.357  16.969  0.00  0.00    +0.000 C 
ENDROOT
BRANCH   1   2
ATOM      2  C   UNL     1      48.439   3.671  17.657  0.00  0.00    +0.000 A 
ATOM      3  C   UNL     1      49.643   3.134  17.184  0.00  0.00    +0.000 A 
ATOM      4  C   UNL     1      50.861   3.459  17.795  0.00  0.00    +0.000 A 
ATOM      5  C   UNL     1      50.892   4.330  18.882  0.00  0.00    +0.000 A 
ATOM      6  C   UNL     1      49.690   4.806  19.407  0.00  0.00    +0.000 A 
ATOM      7  C   UNL     1      48.471   4.481  18.801  0.00  0.00    +0.000 A 
BRANCH   5   8
ATOM      8  O   UNL     1      52.031   4.770  19.502  0.00  0.00    +0.000 OA
BRANCH   8   9
ATOM      9  C   UNL     1      52.178   6.199  19.585  0.00  0.00    +0.000 C 
BRANCH   9  10
ATOM     10  C   UNL     1      52.703   6.720  18.235  0.00  0.00    +0.000 C 
BRANCH  10  11
ATOM     11  N   UNL     1      52.048   7.939  17.719  0.00  0.00    +0.000 NA
ATOM     12  C   UNL     1      50.615   7.683  17.430  0.00  0.00    +0.000 C 
ATOM     13  C   UNL     1      50.384   6.858  16.152  0.00  0.00    +0.000 C 
ATOM     14  O   UNL     1      50.953   7.516  15.014  0.00  0.00    +0.000 OA
ATOM     15  C   UNL     1      52.357   7.733  15.198  0.00  0.00    +0.000 C 
ATOM     16  C   UNL     1      52.655   8.506  16.495  0.00  0.00    +0.000 C 
ENDBRANCH  10  11
ENDBRANCH   9  10
ENDBRANCH   8   9
ENDBRANCH   5   8
ENDBRANCH   1   2
BRANCH   1  19
ATOM     17  C   UNL     1      46.953   4.186  14.661  0.00  0.00    +0.000 C 
ATOM     18  O   UNL     1      47.394   3.134  14.212  0.00  0.00    +0.000 OA
ATOM     19  N   UNL     1      46.789   4.372  16.007  0.00  0.00    +0.000 N 
ATOM     20  H   UNL     1      46.441   5.251  16.362  0.00  0.00    +0.000 HD
BRANCH  17  28
ATOM     21  C   UNL     1      44.208   4.843  12.689  0.00  0.00    +0.000 A 
ATOM     22  N   UNL     1      43.254   5.360  11.892  0.00  0.00    +0.000 NA
ATOM     23  C   UNL     1      43.478   6.556  11.342  0.00  0.00    +0.000 A 
ATOM     24  N   UNL     1      44.561   7.314  11.487  0.00  0.00    +0.000 NA
ATOM     25  C   UNL     1      45.481   6.768  12.301  0.00  0.00    +0.000 A 
ATOM     26  S   UNL     1      46.935   7.592  12.597  0.00  0.00    +0.000 S 
ATOM     27  C   UNL     1      47.482   6.357  13.628  0.00  0.00    +0.000 A 
ATOM     28  C   UNL     1      46.585   5.305  13.774  0.00  0.00    +0.000 A 
ATOM     29  C   UNL     1      45.394   5.547  12.963  0.00  0.00    +0.000 A 
BRANCH  21  31
ATOM     30  C   UNL     1      43.529   2.630  12.332  0.00  0.00    +0.000 C 
ATOM     31  O   UNL     1      43.979   3.611  13.264  0.00  0.00    +0.000 OA
ENDBRANCH  21  31
ENDBRANCH  17  28
ENDBRANCH   1  19
TORSDOF 8
ENDMDL
MODEL 4
REMARK VINA RESULT:    -6.416      3.038      4.861
REMARK INTER + INTRA:         -10.441
REMARK INTER:                  -9.453
REMARK INTRA:                  -0.988
REMARK UNBOUND:                -1.025
REMARK  Name = 
REMARK  9 active torsions:
REMARK  status: ('A' for Active; 'I' for Inactive)
REMARK    1  A    between atoms: C_1  and  O_2
REMARK    2  A    between atoms: O_2  and  C_3
REMARK    3  A    between atoms: C_10  and  C_11
REMARK    4  A    between atoms: N_13  and  C_14
REMARK    5  A    between atoms: C_14  and  C_15
REMARK    6  A    between atoms: C_18  and  O_19
REMARK    7  A    between atoms: O_19  and  C_20
REMARK    8  A    between atoms: C_20  and  C_21
REMARK    9  A    between atoms: C_21  and  N_22
REMARK                            x       y       z     vdW  Elec       q    Type
REMARK                         _______ _______ _______ _____ _____    ______ ____
ROOT
ATOM      1  C   UNL     1      47.488   4.173  15.788  0.00  0.00    +0.000 C 
ENDROOT
BRANCH   1   2
ATOM      2  C   UNL     1      46.991   4.735  14.480  0.00  0.00    +0.000 A 
ATOM      3  C   UNL     1      47.371   6.018  14.066  0.00  0.00    +0.000 A 
ATOM      4  C   UNL     1      46.946   6.527  12.831  0.00  0.00    +0.000 A 
ATOM      5  C   UNL     1      46.143   5.757  11.993  0.00  0.00    +0.000 A 
ATOM      6  C   UNL     1      45.696   4.511  12.434  0.00  0.00    +0.000 A 
ATOM      7  C   UNL     1      46.116   4.001  13.668  0.00  0.00    +0.000 A 
BRANCH   5   8
ATOM      8  O   UNL     1      45.736   6.129  10.739  0.00  0.00    +0.000 OA
BRANCH   8   9
ATOM      9  C   UNL     1      45.147   5.083   9.946  0.00  0.00    +0.000 C 
BRANCH   9  10
ATOM     10  C   UNL     1      46.018   4.862   8.696  0.00  0.00    +0.000 C 
BRANCH  10  11
ATOM     11  N   UNL     1      45.433   3.999   7.650  0.00  0.00    +0.000 NA
ATOM     12  C   UNL     1      44.675   2.877   8.259  0.00  0.00    +0.000 C 
ATOM     13  C   UNL     1      45.576   1.776   8.848  0.00  0.00    +0.000 C 
ATOM     14  O   UNL     1      46.438   1.233   7.842  0.00  0.00    +0.000 OA
ATOM     15  C   UNL     1      47.251   2.258   7.257  0.00  0.00    +0.000 C 
ATOM     16  C   UNL     1      46.406   3.417   6.700  0.00  0.00    +0.000 C 
ENDBRANCH  10  11
ENDBRANCH   9  10
ENDBRANCH   8   9
ENDBRANCH   5   8
ENDBRANCH   1   2
BRANCH   1  19
ATOM     17  C   UNL     1      48.366   5.742  17.465  0.00  0.00    +0.000 C 
ATOM     18  O   UNL     1      49.519   5.544  17.096  0.00  0.00    +0.000 OA
ATOM     19  N   UNL     1      47.309   5.111  16.867  0.00  0.00    +0.000 N 
ATOM     20  H   UNL     1      46.367   5.272  17.193  0.00  0.00    +0.000 HD
BRANCH  17  28
ATOM     21  C   UNL     1      47.945   9.153  17.664  0.00  0.00    +0.000 A 
ATOM     22  N   UNL     1      47.690  10.430  18.008  0.00  0.00    +0.000 NA
ATOM     23  C   UNL     1      47.397  10.688  19.286  0.00  0.00    +0.000 A 
ATOM     24  N   UNL     1      47.331   9.811  20.284  0.00  0.00    +0.000 NA
ATOM     25  C   UNL     1      47.578   8.548  19.895  0.00  0.00    +0.000 A 
ATOM     26  S   UNL     1      47.545   7.296  21.039  0.00  0.00    +0.000 S 
ATOM     27  C   UNL     1      47.912   6.136  19.852  0.00  0.00    +0.000 A 
ATOM     28  C   UNL     1      48.062   6.664  18.575  0.00  0.00    +0.000 A 
ATOM     29  C   UNL     1      47.878   8.114  18.608  0.00  0.00    +0.000 A 
BRANCH  21  31
ATOM     30  C   UNL     1      49.630   9.014  16.043  0.00  0.00    +0.000 C 
ATOM     31  O   UNL     1      48.243   8.882  16.346  0.00  0.00    +0.000 OA
ENDBRANCH  21  31
ENDBRANCH  17  28
ENDBRANCH   1  19
TORSDOF 8
ENDMDL
MODEL 5
REMARK VINA RESULT:    -6.361      3.493      9.423
REMARK INTER + INTRA:         -10.362
REMARK INTER:                  -9.717
REMARK INTRA:                  -0.644
REMARK UNBOUND:                -1.025
REMARK  Name = 
REMARK  9 active torsions:
REMARK  status: ('A' for Active; 'I' for Inactive)
REMARK    1  A    between atoms: C_1  and  O_2
REMARK    2  A    between atoms: O_2  and  C_3
REMARK    3  A    between atoms: C_10  and  C_11
REMARK    4  A    between atoms: N_13  and  C_14
REMARK    5  A    between atoms: C_14  and  C_15
REMARK    6  A    between atoms: C_18  and  O_19
REMARK    7  A    between atoms: O_19  and  C_20
REMARK    8  A    between atoms: C_20  and  C_21
REMARK    9  A    between atoms: C_21  and  N_22
REMARK                            x       y       z     vdW  Elec       q    Type
REMARK                         _______ _______ _______ _____ _____    ______ ____
ROOT
ATOM      1  C   UNL     1      47.395   3.598  17.101  0.00  0.00    +0.000 C 
ENDROOT
BRANCH   1   2
ATOM      2  C   UNL     1      48.880   3.387  17.244  0.00  0.00    +0.000 A 
ATOM      3  C   UNL     1      49.723   4.455  17.579  0.00  0.00    +0.000 A 
ATOM      4  C   UNL     1      51.098   4.253  17.755  0.00  0.00    +0.000 A 
ATOM      5  C   UNL     1      51.647   2.981  17.607  0.00  0.00    +0.000 A 
ATOM      6  C   UNL     1      50.827   1.929  17.196  0.00  0.00    +0.000 A 
ATOM      7  C   UNL     1      49.453   2.128  17.016  0.00  0.00    +0.000 A 
BRANCH   5   8
ATOM      8  O   UNL     1      52.961   2.664  17.829  0.00  0.00    +0.000 OA
BRANCH   8   9
ATOM      9  C   UNL     1      53.209   1.302  18.221  0.00  0.00    +0.000 C 
BRANCH   9  10
ATOM     10  C   UNL     1      53.934   0.581  17.071  0.00  0.00    +0.000 C 
BRANCH  10  11
ATOM     11  N   UNL     1      55.233  -0.032  17.414  0.00  0.00    +0.000 NA
ATOM     12  C   UNL     1      55.774  -0.797  16.263  0.00  0.00    +0.000 C 
ATOM     13  C   UNL     1      55.055  -2.137  16.024  0.00  0.00    +0.000 C 
ATOM     14  O   UNL     1      55.137  -2.971  17.186  0.00  0.00    +0.000 OA
ATOM     15  C   UNL     1      54.567  -2.317  18.326  0.00  0.00    +0.000 C 
ATOM     16  C   UNL     1      55.208  -0.941  18.582  0.00  0.00    +0.000 C 
ENDBRANCH  10  11
ENDBRANCH   9  10
ENDBRANCH   8   9
ENDBRANCH   5   8
ENDBRANCH   1   2
BRANCH   1  19
ATOM     17  C   UNL     1      47.158   4.355  14.774  0.00  0.00    +0.000 C 
ATOM     18  O   UNL     1      47.456   3.245  14.347  0.00  0.00    +0.000 OA
ATOM     19  N   UNL     1      47.098   4.608  16.117  0.00  0.00    +0.000 N 
ATOM     20  H   UNL     1      46.867   5.532  16.453  0.00  0.00    +0.000 HD
BRANCH  17  28
ATOM     21  C   UNL     1      44.545   5.027  12.634  0.00  0.00    +0.000 A 
ATOM     22  N   UNL     1      43.647   5.549  11.777  0.00  0.00    +0.000 NA
ATOM     23  C   UNL     1      43.915   6.742  11.237  0.00  0.00    +0.000 A 
ATOM     24  N   UNL     1      44.995   7.490  11.446  0.00  0.00    +0.000 NA
ATOM     25  C   UNL     1      45.858   6.939  12.317  0.00  0.00    +0.000 A 
ATOM     26  S   UNL     1      47.298   7.751  12.698  0.00  0.00    +0.000 S 
ATOM     27  C   UNL     1      47.770   6.516  13.766  0.00  0.00    +0.000 A 
ATOM     28  C   UNL     1      46.855   5.474  13.861  0.00  0.00    +0.000 A 
ATOM     29  C   UNL     1      45.718   5.723  12.977  0.00  0.00    +0.000 A 
BRANCH  21  31
ATOM     30  C   UNL     1      43.484   2.959  12.359  0.00  0.00    +0.000 C 
ATOM     31  O   UNL     1      44.270   3.801  13.198  0.00  0.00    +0.000 OA
ENDBRANCH  21  31
ENDBRANCH  17  28
ENDBRANCH   1  19
TORSDOF 8
ENDMDL
MODEL 6
REMARK VINA RESULT:    -6.324      2.360      3.602
REMARK INTER + INTRA:         -10.306
REMARK INTER:                  -9.164
REMARK INTRA:                  -1.143
REMARK UNBOUND:                -1.025
REMARK  Name = 
REMARK  9 active torsions:
REMARK  status: ('A' for Active; 'I' for Inactive)
REMARK    1  A    between atoms: C_1  and  O_2
REMARK    2  A    between atoms: O_2  and  C_3
REMARK    3  A    between atoms: C_10  and  C_11
REMARK    4  A    between atoms: N_13  and  C_14
REMARK    5  A    between atoms: C_14  and  C_15
REMARK    6  A    between atoms: C_18  and  O_19
REMARK    7  A    between atoms: O_19  and  C_20
REMARK    8  A    between atoms: C_20  and  C_21
REMARK    9  A    between atoms: C_21  and  N_22
REMARK                            x       y       z     vdW  Elec       q    Type
REMARK                         _______ _______ _______ _____ _____    ______ ____
ROOT
ATOM      1  C   UNL     1      47.202   4.107  15.764  0.00  0.00    +0.000 C 
ENDROOT
BRANCH   1   2
ATOM      2  C   UNL     1      46.804   4.582  14.390  0.00  0.00    +0.000 A 
ATOM      3  C   UNL     1      45.916   3.833  13.606  0.00  0.00    +0.000 A 
ATOM      4  C   UNL     1      45.510   4.294  12.347  0.00  0.00    +0.000 A 
ATOM      5  C   UNL     1      45.979   5.511  11.859  0.00  0.00    +0.000 A 
ATOM      6  C   UNL     1      46.923   6.224  12.599  0.00  0.00    +0.000 A 
ATOM      7  C   UNL     1      47.334   5.765  13.856  0.00  0.00    +0.000 A 
BRANCH   5   8
ATOM      8  O   UNL     1      45.588   6.086  10.678  0.00  0.00    +0.000 OA
BRANCH   8   9
ATOM      9  C   UNL     1      44.953   5.198   9.740  0.00  0.00    +0.000 C 
BRANCH   9  10
ATOM     10  C   UNL     1      45.965   4.842   8.636  0.00  0.00    +0.000 C 
BRANCH  10  11
ATOM     11  N   UNL     1      45.457   3.969   7.558  0.00  0.00    +0.000 NA
ATOM     12  C   UNL     1      44.724   2.809   8.122  0.00  0.00    +0.000 C 
ATOM     13  C   UNL     1      45.646   1.739   8.734  0.00  0.00    +0.000 C 
ATOM     14  O   UNL     1      46.568   1.245   7.756  0.00  0.00    +0.000 OA
ATOM     15  C   UNL     1      47.361   2.310   7.217  0.00  0.00    +0.000 C 
ATOM     16  C   UNL     1      46.490   3.441   6.640  0.00  0.00    +0.000 C 
ENDBRANCH  10  11
ENDBRANCH   9  10
ENDBRANCH   8   9
ENDBRANCH   5   8
ENDBRANCH   1   2
BRANCH   1  19
ATOM     17  C   UNL     1      47.648   5.473  17.759  0.00  0.00    +0.000 C 
ATOM     18  O   UNL     1      46.729   4.940  18.371  0.00  0.00    +0.000 OA
ATOM     19  N   UNL     1      47.950   5.113  16.473  0.00  0.00    +0.000 N 
ATOM     20  H   UNL     1      48.700   5.573  15.977  0.00  0.00    +0.000 HD
BRANCH  17  28
ATOM     21  C   UNL     1      51.017   6.184  17.717  0.00  0.00    +0.000 A 
ATOM     22  N   UNL     1      52.253   6.706  17.827  0.00  0.00    +0.000 NA
ATOM     23  C   UNL     1      52.400   7.820  18.550  0.00  0.00    +0.000 A 
ATOM     24  N   UNL     1      51.447   8.487  19.195  0.00  0.00    +0.000 NA
ATOM     25  C   UNL     1      50.228   7.940  19.047  0.00  0.00    +0.000 A 
ATOM     26  S   UNL     1      48.890   8.655  19.808  0.00  0.00    +0.000 S 
ATOM     27  C   UNL     1      47.839   7.479  19.173  0.00  0.00    +0.000 A 
ATOM     28  C   UNL     1      48.470   6.531  18.375  0.00  0.00    +0.000 A 
ATOM     29  C   UNL     1      49.905   6.801  18.317  0.00  0.00    +0.000 A 
BRANCH  21  31
ATOM     30  C   UNL     1      51.197   3.849  17.678  0.00  0.00    +0.000 C 
ATOM     31  O   UNL     1      50.859   5.038  16.967  0.00  0.00    +0.000 OA
ENDBRANCH  21  31
ENDBRANCH  17  28
ENDBRANCH   1  19
TORSDOF 8
ENDMDL
MODEL 7
REMARK VINA RESULT:    -6.185      1.671      2.205
REMARK INTER + INTRA:         -10.102
REMARK INTER:                  -8.973
REMARK INTRA:                  -1.129
REMARK UNBOUND:                -1.025
REMARK  Name = 
REMARK  9 active torsions:
REMARK  status: ('A' for Active; 'I' for Inactive)
REMARK    1  A    between atoms: C_1  and  O_2
REMARK    2  A    between atoms: O_2  and  C_3
REMARK    3  A    between atoms: C_10  and  C_11
REMARK    4  A    between atoms: N_13  and  C_14
REMARK    5  A    between atoms: C_14  and  C_15
REMARK    6  A    between atoms: C_18  and  O_19
REMARK    7  A    between atoms: O_19  and  C_20
REMARK    8  A    between atoms: C_20  and  C_21
REMARK    9  A    between atoms: C_21  and  N_22
REMARK                            x       y       z     vdW  Elec       q    Type
REMARK                         _______ _______ _______ _____ _____    ______ ____
ROOT
ATOM      1  C   UNL     1      49.589   7.856  17.007  0.00  0.00    +0.000 C 
ENDROOT
BRANCH   1   2
ATOM      2  C   UNL     1      48.844   7.774  15.700  0.00  0.00    +0.000 A 
ATOM      3  C   UNL     1      48.703   6.547  15.036  0.00  0.00    +0.000 A 
ATOM      4  C   UNL     1      47.974   6.459  13.843  0.00  0.00    +0.000 A 
ATOM      5  C   UNL     1      47.371   7.592  13.302  0.00  0.00    +0.000 A 
ATOM      6  C   UNL     1      47.574   8.830  13.914  0.00  0.00    +0.000 A 
ATOM      7  C   UNL     1      48.305   8.922  15.105  0.00  0.00    +0.000 A 
BRANCH   5   8
ATOM      8  O   UNL     1      46.579   7.601  12.185  0.00  0.00    +0.000 OA
BRANCH   8   9
ATOM      9  C   UNL     1      45.292   6.974  12.335  0.00  0.00    +0.000 C 
BRANCH   9  10
ATOM     10  C   UNL     1      45.229   5.747  11.408  0.00  0.00    +0.000 C 
BRANCH  10  11
ATOM     11  N   UNL     1      43.887   5.389  10.908  0.00  0.00    +0.000 NA
ATOM     12  C   UNL     1      43.025   4.906  12.016  0.00  0.00    +0.000 C 
ATOM     13  C   UNL     1      43.374   3.483  12.489  0.00  0.00    +0.000 C 
ATOM     14  O   UNL     1      43.268   2.549  11.408  0.00  0.00    +0.000 OA
ATOM     15  C   UNL     1      44.131   2.920  10.325  0.00  0.00    +0.000 C 
ATOM     16  C   UNL     1      43.867   4.359   9.846  0.00  0.00    +0.000 C 
ENDBRANCH  10  11
ENDBRANCH   9  10
ENDBRANCH   8   9
ENDBRANCH   5   8
ENDBRANCH   1   2
BRANCH   1  19
ATOM     17  C   UNL     1      50.732   6.268  18.495  0.00  0.00    +0.000 C 
ATOM     18  O   UNL     1      50.368   6.885  19.490  0.00  0.00    +0.000 OA
ATOM     19  N   UNL     1      50.384   6.677  17.236  0.00  0.00    +0.000 N 
ATOM     20  H   UNL     1      50.706   6.167  16.426  0.00  0.00    +0.000 HD
BRANCH  17  28
ATOM     21  C   UNL     1      50.374   3.030  17.379  0.00  0.00    +0.000 A 
ATOM     22  N   UNL     1      50.507   1.737  17.028  0.00  0.00    +0.000 NA
ATOM     23  C   UNL     1      51.615   1.095  17.407  0.00  0.00    +0.000 A 
ATOM     24  N   UNL     1      52.625   1.593  18.115  0.00  0.00    +0.000 NA
ATOM     25  C   UNL     1      52.459   2.889  18.432  0.00  0.00    +0.000 A 
ATOM     26  S   UNL     1      53.647   3.689  19.342  0.00  0.00    +0.000 S 
ATOM     27  C   UNL     1      52.768   5.142  19.304  0.00  0.00    +0.000 A 
ATOM     28  C   UNL     1      51.569   5.058  18.605  0.00  0.00    +0.000 A 
ATOM     29  C   UNL     1      51.379   3.699  18.099  0.00  0.00    +0.000 A 
BRANCH  21  31
ATOM     30  C   UNL     1      48.050   2.914  17.111  0.00  0.00    +0.000 C 
ATOM     31  O   UNL     1      49.234   3.698  16.985  0.00  0.00    +0.000 OA
ENDBRANCH  21  31
ENDBRANCH  17  28
ENDBRANCH   1  19
TORSDOF 8
ENDMDL
MODEL 8
REMARK VINA RESULT:    -6.138      3.384      7.959
REMARK INTER + INTRA:         -10.033
REMARK INTER:                  -8.958
REMARK INTRA:                  -1.075
REMARK UNBOUND:                -1.025
REMARK  Name = 
REMARK  9 active torsions:
REMARK  status: ('A' for Active; 'I' for Inactive)
REMARK    1  A    between atoms: C_1  and  O_2
REMARK    2  A    between atoms: O_2  and  C_3
REMARK    3  A    between atoms: C_10  and  C_11
REMARK    4  A    between atoms: N_13  and  C_14
REMARK    5  A    between atoms: C_14  and  C_15
REMARK    6  A    between atoms: C_18  and  O_19
REMARK    7  A    between atoms: O_19  and  C_20
REMARK    8  A    between atoms: C_20  and  C_21
REMARK    9  A    between atoms: C_21  and  N_22
REMARK                            x       y       z     vdW  Elec       q    Type
REMARK                         _______ _______ _______ _____ _____    ______ ____
ROOT
ATOM      1  C   UNL     1      48.354   8.186  11.740  0.00  0.00    +0.000 C 
ENDROOT
BRANCH   1   2
ATOM      2  C   UNL     1      48.617   8.077  13.220  0.00  0.00    +0.000 A 
ATOM      3  C   UNL     1      47.897   8.860  14.132  0.00  0.00    +0.000 A 
ATOM      4  C   UNL     1      48.107   8.730  15.511  0.00  0.00    +0.000 A 
ATOM      5  C   UNL     1      49.033   7.810  15.996  0.00  0.00    +0.000 A 
ATOM      6  C   UNL     1      49.810   7.084  15.093  0.00  0.00    +0.000 A 
ATOM      7  C   UNL     1      49.605   7.214  13.714  0.00  0.00    +0.000 A 
BRANCH   5   8
ATOM      8  O   UNL     1      49.261   7.552  17.323  0.00  0.00    +0.000 OA
BRANCH   8   9
ATOM      9  C   UNL     1      48.306   6.682  17.955  0.00  0.00    +0.000 C 
BRANCH   9  10
ATOM     10  C   UNL     1      48.274   5.346  17.191  0.00  0.00    +0.000 C 
BRANCH  10  11
ATOM     11  N   UNL     1      48.269   4.128  18.026  0.00  0.00    +0.000 NA
ATOM     12  C   UNL     1      49.651   3.758  18.423  0.00  0.00    +0.000 C 
ATOM     13  C   UNL     1      50.470   3.131  17.280  0.00  0.00    +0.000 C 
ATOM     14  O   UNL     1      49.824   1.955  16.779  0.00  0.00    +0.000 OA
ATOM     15  C   UNL     1      48.503   2.256  16.314  0.00  0.00    +0.000 C 
ATOM     16  C   UNL     1      47.651   2.940  17.398  0.00  0.00    +0.000 C 
ENDBRANCH  10  11
ENDBRANCH   9  10
ENDBRANCH   8   9
ENDBRANCH   5   8
ENDBRANCH   1   2
BRANCH   1  19
ATOM     17  C   UNL     1      46.263   6.989  11.252  0.00  0.00    +0.000 C 
ATOM     18  O   UNL     1      45.590   7.925  11.668  0.00  0.00    +0.000 OA
ATOM     19  N   UNL     1      47.630   7.041  11.247  0.00  0.00    +0.000 N 
ATOM     20  H   UNL     1      48.171   6.255  10.917  0.00  0.00    +0.000 HD
BRANCH  17  28
ATOM     21  C   UNL     1      44.578   4.393  12.761  0.00  0.00    +0.000 A 
ATOM     22  N   UNL     1      43.857   3.301  13.081  0.00  0.00    +0.000 NA
ATOM     23  C   UNL     1      43.490   2.481  12.093  0.00  0.00    +0.000 A 
ATOM     24  N   UNL     1      43.763   2.615  10.799  0.00  0.00    +0.000 NA
ATOM     25  C   UNL     1      44.471   3.724  10.521  0.00  0.00    +0.000 A 
ATOM     26  S   UNL     1      44.919   4.054   8.918  0.00  0.00    +0.000 S 
ATOM     27  C   UNL     1      45.697   5.493   9.380  0.00  0.00    +0.000 A 
ATOM     28  C   UNL     1      45.633   5.756  10.744  0.00  0.00    +0.000 A 
ATOM     29  C   UNL     1      44.912   4.683  11.427  0.00  0.00    +0.000 A 
BRANCH  21  31
ATOM     30  C   UNL     1      46.279   5.010  14.247  0.00  0.00    +0.000 C 
ATOM     31  O   UNL     1      44.954   5.245  13.777  0.00  0.00    +0.000 OA
ENDBRANCH  21  31
ENDBRANCH  17  28
ENDBRANCH   1  19
TORSDOF 8
ENDMDL
MODEL 9
REMARK VINA RESULT:    -5.881      4.106      8.971
REMARK INTER + INTRA:          -9.657
REMARK INTER:                  -7.872
REMARK INTRA:                  -1.785
REMARK UNBOUND:                -1.025
REMARK  Name = 
REMARK  9 active torsions:
REMARK  status: ('A' for Active; 'I' for Inactive)
REMARK    1  A    between atoms: C_1  and  O_2
REMARK    2  A    between atoms: O_2  and  C_3
REMARK    3  A    between atoms: C_10  and  C_11
REMARK    4  A    between atoms: N_13  and  C_14
REMARK    5  A    between atoms: C_14  and  C_15
REMARK    6  A    between atoms: C_18  and  O_19
REMARK    7  A    between atoms: O_19  and  C_20
REMARK    8  A    between atoms: C_20  and  C_21
REMARK    9  A    between atoms: C_21  and  N_22
REMARK                            x       y       z     vdW  Elec       q    Type
REMARK                         _______ _______ _______ _____ _____    ______ ____
ROOT
ATOM      1  C   UNL     1      47.640   3.640  16.143  0.00  0.00    +0.000 C 
ENDROOT
BRANCH   1   2
ATOM      2  C   UNL     1      48.036   4.395  17.386  0.00  0.00    +0.000 A 
ATOM      3  C   UNL     1      49.364   4.388  17.832  0.00  0.00    +0.000 A 
ATOM      4  C   UNL     1      49.743   5.124  18.962  0.00  0.00    +0.000 A 
ATOM      5  C   UNL     1      48.803   5.881  19.656  0.00  0.00    +0.000 A 
ATOM      6  C   UNL     1      47.464   5.830  19.265  0.00  0.00    +0.000 A 
ATOM      7  C   UNL     1      47.081   5.093  18.138  0.00  0.00    +0.000 A 
BRANCH   5   8
ATOM      8  O   UNL     1      49.083   6.692  20.725  0.00  0.00    +0.000 OA
BRANCH   8   9
ATOM      9  C   UNL     1      48.675   8.064  20.583  0.00  0.00    +0.000 C 
BRANCH   9  10
ATOM     10  C   UNL     1      49.732   8.810  19.748  0.00  0.00    +0.000 C 
BRANCH  10  11
ATOM     11  N   UNL     1      49.208   9.779  18.766  0.00  0.00    +0.000 NA
ATOM     12  C   UNL     1      48.268   9.119  17.826  0.00  0.00    +0.000 C 
ATOM     13  C   UNL     1      48.969   8.237  16.777  0.00  0.00    +0.000 C 
ATOM     14  O   UNL     1      49.899   9.006  16.006  0.00  0.00    +0.000 OA
ATOM     15  C   UNL     1      50.881   9.619  16.851  0.00  0.00    +0.000 C 
ATOM     16  C   UNL     1      50.236  10.472  17.958  0.00  0.00    +0.000 C 
ENDBRANCH  10  11
ENDBRANCH   9  10
ENDBRANCH   8   9
ENDBRANCH   5   8
ENDBRANCH   1   2
BRANCH   1  19
ATOM     17  C   UNL     1      46.451   4.038  14.028  0.00  0.00    +0.000 C 
ATOM     18  O   UNL     1      46.855   2.978  13.562  0.00  0.00    +0.000 OA
ATOM     19  N   UNL     1      46.787   4.433  15.294  0.00  0.00    +0.000 N 
ATOM     20  H   UNL     1      46.460   5.317  15.657  0.00  0.00    +0.000 HD
BRANCH  17  28
ATOM     21  C   UNL     1      46.740   7.325  13.046  0.00  0.00    +0.000 A 
ATOM     22  N   UNL     1      46.623   8.551  12.501  0.00  0.00    +0.000 NA
ATOM     23  C   UNL     1      45.533   8.812  11.775  0.00  0.00    +0.000 A 
ATOM     24  N   UNL     1      44.520   7.987  11.527  0.00  0.00    +0.000 NA
ATOM     25  C   UNL     1      44.683   6.771  12.077  0.00  0.00    +0.000 A 
ATOM     26  S   UNL     1      43.483   5.588  11.871  0.00  0.00    +0.000 S 
ATOM     27  C   UNL     1      44.374   4.458  12.774  0.00  0.00    +0.000 A 
ATOM     28  C   UNL     1      45.589   4.942  13.244  0.00  0.00    +0.000 A 
ATOM     29  C   UNL     1      45.762   6.336  12.839  0.00  0.00    +0.000 A 
BRANCH  21  31
ATOM     30  C   UNL     1      49.073   7.127  13.036  0.00  0.00    +0.000 C 
ATOM     31  O   UNL     1      47.866   7.049  13.791  0.00  0.00    +0.000 OA
ENDBRANCH  21  31
ENDBRANCH  17  28
ENDBRANCH   1  19
TORSDOF 8
ENDMDL
