MODEL 1
REMARK VINA RESULT:    -8.359      0.000      0.000
REMARK INTER + INTRA:         -10.729
REMARK INTER:                 -10.313
REMARK INTRA:                  -0.416
REMARK UNBOUND:                -0.416
REMARK  Name = 
REMARK  6 active torsions:
REMARK  status: ('A' for Active; 'I' for Inactive)
REMARK    1  A    between atoms: C_1  and  C_2
REMARK    2  A    between atoms: C_5  and  C_6
REMARK    3  A    between atoms: C_6  and  O_7
REMARK    4  A    between atoms: O_7  and  C_8
REMARK    5  A    between atoms: C_11  and  C_12
REMARK    6  A    between atoms: C_18  and  C_19
REMARK                            x       y       z     vdW  Elec       q    Type
REMARK                         _______ _______ _______ _____ _____    ______ ____
ROOT
ATOM      1  C   UNL     1      45.159   4.906  11.700  0.00  0.00    +0.000 A 
ATOM      2  C   UNL     1      45.908   6.006  12.109  0.00  0.00    +0.000 A 
ATOM      3  C   UNL     1      46.664   5.931  13.279  0.00  0.00    +0.000 A 
ATOM      4  C   UNL     1      46.647   4.748  14.005  0.00  0.00    +0.000 A 
ATOM      5  N   UNL     1      45.936   3.647  13.639  0.00  0.00    +0.000 NA
ATOM      6  C   UNL     1      45.213   3.762  12.495  0.00  0.00    +0.000 A 
ENDROOT
BRANCH   4   7
ATOM      7  C   UNL     1      47.437   4.655  15.273  0.00  0.00    +0.000 C 
ATOM      8  N   UNL     1      47.089   3.635  16.115  0.00  0.00    +0.000 N 
ATOM      9  O   UNL     1      48.334   5.443  15.552  0.00  0.00    +0.000 OA
ATOM     10  H   UNL     1      46.337   3.006  15.855  0.00  0.00    +0.000 HD
ATOM     11  H   UNL     1      47.576   3.525  16.992  0.00  0.00    +0.000 HD
ENDBRANCH   4   7
BRANCH   1  12
ATOM     12  O   UNL     1      44.367   4.841  10.588  0.00  0.00    +0.000 OA
BRANCH  12  13
ATOM     13  C   UNL     1      44.091   3.533  10.077  0.00  0.00    +0.000 C 
BRANCH  13  18
ATOM     14  C   UNL     1      47.934   2.145   5.906  0.00  0.00    +0.000 C 
ATOM     15  C   UNL     1      46.955   2.477   6.999  0.00  0.00    +0.000 A 
ATOM     16  C   UNL     1      46.582   3.813   7.203  0.00  0.00    +0.000 A 
ATOM     17  C   UNL     1      45.668   4.158   8.201  0.00  0.00    +0.000 A 
ATOM     18  C   UNL     1      45.107   3.173   9.020  0.00  0.00    +0.000 A 
ATOM     19  C   UNL     1      45.479   1.836   8.818  0.00  0.00    +0.000 A 
ATOM     20  C   UNL     1      46.403   1.477   7.822  0.00  0.00    +0.000 A 
ATOM     21  C   UNL     1      46.788   0.032   7.663  0.00  0.00    +0.000 C 
ENDBRANCH  13  18
ENDBRANCH  12  13
ENDBRANCH   1  12
TORSDOF 4
ENDMDL
MODEL 2
REMARK VINA RESULT:    -7.997      3.095      6.659
REMARK INTER + INTRA:         -10.282
REMARK INTER:                  -9.666
REMARK INTRA:                  -0.617
REMARK UNBOUND:                -0.416
REMARK  Name = 
REMARK  6 active torsions:
REMARK  status: ('A' for Active; 'I' for Inactive)
REMARK    1  A    between atoms: C_1  and  C_2
REMARK    2  A    between atoms: C_5  and  C_6
REMARK    3  A    between atoms: C_6  and  O_7
REMARK    4  A    between atoms: O_7  and  C_8
REMARK    5  A    between atoms: C_11  and  C_12
REMARK    6  A    between atoms: C_18  and  C_19
REMARK                            x       y       z     vdW  Elec       q    Type
REMARK                         _______ _______ _______ _____ _____    ______ ____
ROOT
ATOM      1  C   UNL     1      44.429   3.426   9.386  0.00  0.00    +0.000 A 
ATOM      2  C   UNL     1      44.854   2.101   9.323  0.00  0.00    +0.000 A 
ATOM      3  C   UNL     1      45.852   1.738   8.418  0.00  0.00    +0.000 A 
ATOM      4  C   UNL     1      46.398   2.720   7.603  0.00  0.00    +0.000 A 
ATOM      5  N   UNL     1      46.018   4.027   7.637  0.00  0.00    +0.000 NA
ATOM      6  C   UNL     1      45.043   4.338   8.530  0.00  0.00    +0.000 A 
ENDROOT
BRANCH   4   7
ATOM      7  C   UNL     1      47.456   2.347   6.613  0.00  0.00    +0.000 C 
ATOM      8  N   UNL     1      47.445   3.049   5.440  0.00  0.00    +0.000 N 
ATOM      9  O   UNL     1      48.279   1.463   6.828  0.00  0.00    +0.000 OA
ATOM     10  H   UNL     1      46.746   3.769   5.293  0.00  0.00    +0.000 HD
ATOM     11  H   UNL     1      48.127   2.837   4.726  0.00  0.00    +0.000 HD
ENDBRANCH   4   7
BRANCH   1  12
ATOM     12  O   UNL     1      43.458   3.920  10.212  0.00  0.00    +0.000 OA
BRANCH  12  13
ATOM     13  C   UNL     1      43.561   3.574  11.596  0.00  0.00    +0.000 C 
BRANCH  13  18
ATOM     14  C   UNL     1      47.952   6.459  14.142  0.00  0.00    +0.000 C 
ATOM     15  C   UNL     1      46.818   5.740  13.464  0.00  0.00    +0.000 A 
ATOM     16  C   UNL     1      46.811   4.339  13.438  0.00  0.00    +0.000 A 
ATOM     17  C   UNL     1      45.769   3.638  12.827  0.00  0.00    +0.000 A 
ATOM     18  C   UNL     1      44.709   4.325  12.226  0.00  0.00    +0.000 A 
ATOM     19  C   UNL     1      44.714   5.727  12.251  0.00  0.00    +0.000 A 
ATOM     20  C   UNL     1      45.760   6.444  12.856  0.00  0.00    +0.000 A 
ATOM     21  C   UNL     1      45.731   7.947  12.833  0.00  0.00    +0.000 C 
ENDBRANCH  13  18
ENDBRANCH  12  13
ENDBRANCH   1  12
TORSDOF 4
ENDMDL
MODEL 3
REMARK VINA RESULT:    -7.988      2.883      6.276
REMARK INTER + INTRA:         -10.272
REMARK INTER:                  -9.776
REMARK INTRA:                  -0.496
REMARK UNBOUND:                -0.416
REMARK  Name = 
REMARK  6 active torsions:
REMARK  status: ('A' for Active; 'I' for Inactive)
REMARK    1  A    between atoms: C_1  and  C_2
REMARK    2  A    between atoms: C_5  and  C_6
REMARK    3  A    between atoms: C_6  and  O_7
REMARK    4  A    between atoms: O_7  and  C_8
REMARK    5  A    between atoms: C_11  and  C_12
REMARK    6  A    between atoms: C_18  and  C_19
REMARK                            x       y       z     vdW  Elec       q    Type
REMARK                         _______ _______ _______ _____ _____    ______ ____
ROOT
ATOM      1  C   UNL     1      44.571   3.920   9.135  0.00  0.00    +0.000 A 
ATOM      2  C   UNL     1      45.543   4.330   8.226  0.00  0.00    +0.000 A 
ATOM      3  C   UNL     1      46.380   3.383   7.635  0.00  0.00    +0.000 A 
ATOM      4  C   UNL     1      46.212   2.047   7.973  0.00  0.00    +0.000 A 
ATOM      5  N   UNL     1      45.272   1.602   8.849  0.00  0.00    +0.000 NA
ATOM      6  C   UNL     1      44.479   2.555   9.404  0.00  0.00    +0.000 A 
ENDROOT
BRANCH   4   7
ATOM      7  C   UNL     1      47.113   1.018   7.363  0.00  0.00    +0.000 C 
ATOM      8  N   UNL     1      46.808  -0.283   7.653  0.00  0.00    +0.000 N 
ATOM      9  O   UNL     1      48.069   1.314   6.655  0.00  0.00    +0.000 OA
ATOM     10  H   UNL     1      46.014  -0.491   8.249  0.00  0.00    +0.000 HD
ATOM     11  H   UNL     1      47.384  -1.024   7.282  0.00  0.00    +0.000 HD
ENDBRANCH   4   7
BRANCH   1  12
ATOM     12  O   UNL     1      43.694   4.734   9.796  0.00  0.00    +0.000 OA
BRANCH  12  13
ATOM     13  C   UNL     1      43.588   4.542  11.210  0.00  0.00    +0.000 C 
BRANCH  13  18
ATOM     14  C   UNL     1      48.304   6.826  13.787  0.00  0.00    +0.000 C 
ATOM     15  C   UNL     1      47.079   6.226  13.152  0.00  0.00    +0.000 A 
ATOM     16  C   UNL     1      46.508   6.853  12.036  0.00  0.00    +0.000 A 
ATOM     17  C   UNL     1      45.377   6.319  11.415  0.00  0.00    +0.000 A 
ATOM     18  C   UNL     1      44.789   5.146  11.899  0.00  0.00    +0.000 A 
ATOM     19  C   UNL     1      45.358   4.517  13.016  0.00  0.00    +0.000 A 
ATOM     20  C   UNL     1      46.492   5.048  13.654  0.00  0.00    +0.000 A 
ATOM     21  C   UNL     1      47.049   4.351  14.864  0.00  0.00    +0.000 C 
ENDBRANCH  13  18
ENDBRANCH  12  13
ENDBRANCH   1  12
TORSDOF 4
ENDMDL
MODEL 4
REMARK VINA RESULT:    -7.940      2.295      2.760
REMARK INTER + INTRA:         -10.212
REMARK INTER:                  -9.721
REMARK INTRA:                  -0.492
REMARK UNBOUND:                -0.416
REMARK  Name = 
REMARK  6 active torsions:
REMARK  status: ('A' for Active; 'I' for Inactive)
REMARK    1  A    between atoms: C_1  and  C_2
REMARK    2  A    between atoms: C_5  and  C_6
REMARK    3  A    between atoms: C_6  and  O_7
REMARK    4  A    between atoms: O_7  and  C_8
REMARK    5  A    between atoms: C_11  and  C_12
REMARK    6  A    between atoms: C_18  and  C_19
REMARK                            x       y       z     vdW  Elec       q    Type
REMARK                         _______ _______ _______ _____ _____    ______ ____
ROOT
ATOM      1  C   UNL     1      44.961   4.784  11.751  0.00  0.00    +0.000 A 
ATOM      2  C   UNL     1      46.102   5.099  12.484  0.00  0.00    +0.000 A 
ATOM      3  C   UNL     1      46.373   6.430  12.803  0.00  0.00    +0.000 A 
ATOM      4  C   UNL     1      45.484   7.408  12.379  0.00  0.00    +0.000 A 
ATOM      5  N   UNL     1      44.354   7.144  11.669  0.00  0.00    +0.000 NA
ATOM      6  C   UNL     1      44.128   5.837  11.377  0.00  0.00    +0.000 A 
ENDROOT
BRANCH   4   7
ATOM      7  C   UNL     1      45.767   8.843  12.696  0.00  0.00    +0.000 C 
ATOM      8  N   UNL     1      44.675   9.664  12.756  0.00  0.00    +0.000 N 
ATOM      9  O   UNL     1      46.902   9.266  12.884  0.00  0.00    +0.000 OA
ATOM     10  H   UNL     1      43.751   9.281  12.589  0.00  0.00    +0.000 HD
ATOM     11  H   UNL     1      44.799  10.645  12.954  0.00  0.00    +0.000 HD
ENDBRANCH   4   7
BRANCH   1  12
ATOM     12  O   UNL     1      44.578   3.532  11.358  0.00  0.00    +0.000 OA
BRANCH  12  13
ATOM     13  C   UNL     1      43.960   3.428  10.072  0.00  0.00    +0.000 C 
BRANCH  13  18
ATOM     14  C   UNL     1      47.921   2.256   5.945  0.00  0.00    +0.000 C 
ATOM     15  C   UNL     1      46.912   2.533   7.026  0.00  0.00    +0.000 A 
ATOM     16  C   UNL     1      46.483   3.850   7.243  0.00  0.00    +0.000 A 
ATOM     17  C   UNL     1      45.541   4.143   8.231  0.00  0.00    +0.000 A 
ATOM     18  C   UNL     1      45.007   3.124   9.027  0.00  0.00    +0.000 A 
ATOM     19  C   UNL     1      45.435   1.806   8.812  0.00  0.00    +0.000 A 
ATOM     20  C   UNL     1      46.388   1.499   7.825  0.00  0.00    +0.000 A 
ATOM     21  C   UNL     1      46.834   0.073   7.652  0.00  0.00    +0.000 C 
ENDBRANCH  13  18
ENDBRANCH  12  13
ENDBRANCH   1  12
TORSDOF 4
ENDMDL
MODEL 5
REMARK VINA RESULT:    -7.591      0.888      1.726
REMARK INTER + INTRA:          -9.781
REMARK INTER:                  -9.287
REMARK INTRA:                  -0.494
REMARK UNBOUND:                -0.416
REMARK  Name = 
REMARK  6 active torsions:
REMARK  status: ('A' for Active; 'I' for Inactive)
REMARK    1  A    between atoms: C_1  and  C_2
REMARK    2  A    between atoms: C_5  and  C_6
REMARK    3  A    between atoms: C_6  and  O_7
REMARK    4  A    between atoms: O_7  and  C_8
REMARK    5  A    between atoms: C_11  and  C_12
REMARK    6  A    between atoms: C_18  and  C_19
REMARK                            x       y       z     vdW  Elec       q    Type
REMARK                         _______ _______ _______ _____ _____    ______ ____
ROOT
ATOM      1  C   UNL     1      45.362   5.608  11.802  0.00  0.00    +0.000 A 
ATOM      2  C   UNL     1      46.647   6.114  11.985  0.00  0.00    +0.000 A 
ATOM      3  C   UNL     1      47.359   5.790  13.140  0.00  0.00    +0.000 A 
ATOM      4  C   UNL     1      46.760   4.962  14.078  0.00  0.00    +0.000 A 
ATOM      5  N   UNL     1      45.511   4.439  13.937  0.00  0.00    +0.000 NA
ATOM      6  C   UNL     1      44.851   4.780  12.800  0.00  0.00    +0.000 A 
ENDROOT
BRANCH   4   7
ATOM      7  C   UNL     1      47.501   4.617  15.333  0.00  0.00    +0.000 C 
ATOM      8  N   UNL     1      47.061   3.505  15.995  0.00  0.00    +0.000 N 
ATOM      9  O   UNL     1      48.438   5.289  15.751  0.00  0.00    +0.000 OA
ATOM     10  H   UNL     1      46.279   2.977  15.623  0.00  0.00    +0.000 HD
ATOM     11  H   UNL     1      47.512   3.226  16.854  0.00  0.00    +0.000 HD
ENDBRANCH   4   7
BRANCH   1  12
ATOM     12  O   UNL     1      44.548   5.851  10.731  0.00  0.00    +0.000 OA
BRANCH  12  13
ATOM     13  C   UNL     1      43.715   4.768  10.306  0.00  0.00    +0.000 C 
BRANCH  13  18
ATOM     14  C   UNL     1      46.928   0.998   7.214  0.00  0.00    +0.000 C 
ATOM     15  C   UNL     1      46.098   1.989   7.984  0.00  0.00    +0.000 A 
ATOM     16  C   UNL     1      45.257   1.531   9.008  0.00  0.00    +0.000 A 
ATOM     17  C   UNL     1      44.480   2.422   9.750  0.00  0.00    +0.000 A 
ATOM     18  C   UNL     1      44.525   3.794   9.483  0.00  0.00    +0.000 A 
ATOM     19  C   UNL     1      45.364   4.255   8.459  0.00  0.00    +0.000 A 
ATOM     20  C   UNL     1      46.146   3.367   7.700  0.00  0.00    +0.000 A 
ATOM     21  C   UNL     1      47.011   3.909   6.595  0.00  0.00    +0.000 C 
ENDBRANCH  13  18
ENDBRANCH  12  13
ENDBRANCH   1  12
TORSDOF 4
ENDMDL
MODEL 6
REMARK VINA RESULT:    -6.202      2.969      3.816
REMARK INTER + INTRA:          -8.068
REMARK INTER:                  -7.507
REMARK INTRA:                  -0.561
REMARK UNBOUND:                -0.416
REMARK  Name = 
REMARK  6 active torsions:
REMARK  status: ('A' for Active; 'I' for Inactive)
REMARK    1  A    between atoms: C_1  and  C_2
REMARK    2  A    between atoms: C_5  and  C_6
REMARK    3  A    between atoms: C_6  and  O_7
REMARK    4  A    between atoms: O_7  and  C_8
REMARK    5  A    between atoms: C_11  and  C_12
REMARK    6  A    between atoms: C_18  and  C_19
REMARK                            x       y       z     vdW  Elec       q    Type
REMARK                         _______ _______ _______ _____ _____    ______ ____
ROOT
ATOM      1  C   UNL     1      45.324   6.533  12.196  0.00  0.00    +0.000 A 
ATOM      2  C   UNL     1      46.693   6.290  12.131  0.00  0.00    +0.000 A 
ATOM      3  C   UNL     1      47.588   7.360  12.178  0.00  0.00    +0.000 A 
ATOM      4  C   UNL     1      47.079   8.645  12.294  0.00  0.00    +0.000 A 
ATOM      5  N   UNL     1      45.750   8.928  12.368  0.00  0.00    +0.000 NA
ATOM      6  C   UNL     1      44.913   7.859  12.316  0.00  0.00    +0.000 A 
ENDROOT
BRANCH   4   7
ATOM      7  C   UNL     1      48.022   9.808  12.328  0.00  0.00    +0.000 C 
ATOM      8  N   UNL     1      48.089  10.483  13.515  0.00  0.00    +0.000 N 
ATOM      9  O   UNL     1      48.689  10.145  11.356  0.00  0.00    +0.000 OA
ATOM     10  H   UNL     1      47.517  10.180  14.296  0.00  0.00    +0.000 HD
ATOM     11  H   UNL     1      48.697  11.284  13.599  0.00  0.00    +0.000 HD
ENDBRANCH   4   7
BRANCH   1  12
ATOM     12  O   UNL     1      44.337   5.588  12.149  0.00  0.00    +0.000 OA
BRANCH  12  13
ATOM     13  C   UNL     1      43.670   5.425  10.893  0.00  0.00    +0.000 C 
BRANCH  13  18
ATOM     14  C   UNL     1      46.248   1.076   7.973  0.00  0.00    +0.000 C 
ATOM     15  C   UNL     1      45.583   2.214   8.697  0.00  0.00    +0.000 A 
ATOM     16  C   UNL     1      44.729   1.937   9.774  0.00  0.00    +0.000 A 
ATOM     17  C   UNL     1      44.103   2.968  10.477  0.00  0.00    +0.000 A 
ATOM     18  C   UNL     1      44.315   4.302  10.115  0.00  0.00    +0.000 A 
ATOM     19  C   UNL     1      45.167   4.583   9.038  0.00  0.00    +0.000 A 
ATOM     20  C   UNL     1      45.798   3.553   8.319  0.00  0.00    +0.000 A 
ATOM     21  C   UNL     1      46.684   3.904   7.155  0.00  0.00    +0.000 C 
ENDBRANCH  13  18
ENDBRANCH  12  13
ENDBRANCH   1  12
TORSDOF 4
ENDMDL
MODEL 7
REMARK VINA RESULT:    -6.046      3.242      7.913
REMARK INTER + INTRA:          -7.875
REMARK INTER:                  -7.519
REMARK INTRA:                  -0.357
REMARK UNBOUND:                -0.416
REMARK  Name = 
REMARK  6 active torsions:
REMARK  status: ('A' for Active; 'I' for Inactive)
REMARK    1  A    between atoms: C_1  and  C_2
REMARK    2  A    between atoms: C_5  and  C_6
REMARK    3  A    between atoms: C_6  and  O_7
REMARK    4  A    between atoms: O_7  and  C_8
REMARK    5  A    between atoms: C_11  and  C_12
REMARK    6  A    between atoms: C_18  and  C_19
REMARK                            x       y       z     vdW  Elec       q    Type
REMARK                         _______ _______ _______ _____ _____    ______ ____
ROOT
ATOM      1  C   UNL     1      46.763   4.902  13.968  0.00  0.00    +0.000 A 
ATOM      2  C   UNL     1      46.088   5.901  13.271  0.00  0.00    +0.000 A 
ATOM      3  C   UNL     1      45.161   5.554  12.288  0.00  0.00    +0.000 A 
ATOM      4  C   UNL     1      44.935   4.208  12.037  0.00  0.00    +0.000 A 
ATOM      5  N   UNL     1      45.565   3.199  12.698  0.00  0.00    +0.000 NA
ATOM      6  C   UNL     1      46.461   3.580  13.644  0.00  0.00    +0.000 A 
ENDROOT
BRANCH   4   7
ATOM      7  C   UNL     1      43.957   3.814  10.973  0.00  0.00    +0.000 C 
ATOM      8  N   UNL     1      43.918   4.626   9.873  0.00  0.00    +0.000 N 
ATOM      9  O   UNL     1      43.227   2.835  11.078  0.00  0.00    +0.000 OA
ATOM     10  H   UNL     1      44.531   5.432   9.824  0.00  0.00    +0.000 HD
ATOM     11  H   UNL     1      43.271   4.421   9.126  0.00  0.00    +0.000 HD
ENDBRANCH   4   7
BRANCH   1  12
ATOM     12  O   UNL     1      47.701   5.095  14.942  0.00  0.00    +0.000 OA
BRANCH  12  13
ATOM     13  C   UNL     1      47.499   4.391  16.171  0.00  0.00    +0.000 C 
BRANCH  13  18
ATOM     14  C   UNL     1      52.490   2.027  18.067  0.00  0.00    +0.000 C 
ATOM     15  C   UNL     1      51.221   2.663  17.570  0.00  0.00    +0.000 A 
ATOM     16  C   UNL     1      50.214   1.853  17.027  0.00  0.00    +0.000 A 
ATOM     17  C   UNL     1      49.019   2.407  16.565  0.00  0.00    +0.000 A 
ATOM     18  C   UNL     1      48.804   3.788  16.634  0.00  0.00    +0.000 A 
ATOM     19  C   UNL     1      49.810   4.600  17.176  0.00  0.00    +0.000 A 
ATOM     20  C   UNL     1      51.020   4.055  17.638  0.00  0.00    +0.000 A 
ATOM     21  C   UNL     1      52.078   4.972  18.187  0.00  0.00    +0.000 C 
ENDBRANCH  13  18
ENDBRANCH  12  13
ENDBRANCH   1  12
TORSDOF 4
ENDMDL
MODEL 8
REMARK VINA RESULT:    -6.000      2.485      3.071
REMARK INTER + INTRA:          -7.819
REMARK INTER:                  -7.343
REMARK INTRA:                  -0.476
REMARK UNBOUND:                -0.416
REMARK  Name = 
REMARK  6 active torsions:
REMARK  status: ('A' for Active; 'I' for Inactive)
REMARK    1  A    between atoms: C_1  and  C_2
REMARK    2  A    between atoms: C_5  and  C_6
REMARK    3  A    between atoms: C_6  and  O_7
REMARK    4  A    between atoms: O_7  and  C_8
REMARK    5  A    between atoms: C_11  and  C_12
REMARK    6  A    between atoms: C_18  and  C_19
REMARK                            x       y       z     vdW  Elec       q    Type
REMARK                         _______ _______ _______ _____ _____    ______ ____
ROOT
ATOM      1  C   UNL     1      46.146   5.986  13.098  0.00  0.00    +0.000 A 
ATOM      2  C   UNL     1      46.051   7.372  13.000  0.00  0.00    +0.000 A 
ATOM      3  C   UNL     1      47.200   8.154  13.116  0.00  0.00    +0.000 A 
ATOM      4  C   UNL     1      48.416   7.518  13.324  0.00  0.00    +0.000 A 
ATOM      5  N   UNL     1      48.556   6.168  13.419  0.00  0.00    +0.000 NA
ATOM      6  C   UNL     1      47.414   5.444  13.303  0.00  0.00    +0.000 A 
ENDROOT
BRANCH   4   7
ATOM      7  C   UNL     1      49.659   8.341  13.470  0.00  0.00    +0.000 C 
ATOM      8  N   UNL     1      50.794   7.649  13.790  0.00  0.00    +0.000 N 
ATOM      9  O   UNL     1      49.665   9.558  13.321  0.00  0.00    +0.000 OA
ATOM     10  H   UNL     1      50.750   6.644  13.912  0.00  0.00    +0.000 HD
ATOM     11  H   UNL     1      51.662   8.148  13.914  0.00  0.00    +0.000 HD
ENDBRANCH   4   7
BRANCH   1  12
ATOM     12  O   UNL     1      45.108   5.101  13.016  0.00  0.00    +0.000 OA
BRANCH  12  13
ATOM     13  C   UNL     1      44.186   5.296  11.939  0.00  0.00    +0.000 C 
BRANCH  13  18
ATOM     14  C   UNL     1      46.342   3.181   6.942  0.00  0.00    +0.000 C 
ATOM     15  C   UNL     1      45.791   3.696   8.243  0.00  0.00    +0.000 A 
ATOM     16  C   UNL     1      46.007   5.035   8.598  0.00  0.00    +0.000 A 
ATOM     17  C   UNL     1      45.501   5.551   9.793  0.00  0.00    +0.000 A 
ATOM     18  C   UNL     1      44.768   4.736  10.663  0.00  0.00    +0.000 A 
ATOM     19  C   UNL     1      44.551   3.397  10.310  0.00  0.00    +0.000 A 
ATOM     20  C   UNL     1      45.061   2.864   9.113  0.00  0.00    +0.000 A 
ATOM     21  C   UNL     1      44.823   1.414   8.793  0.00  0.00    +0.000 C 
ENDBRANCH  13  18
ENDBRANCH  12  13
ENDBRANCH   1  12
TORSDOF 4
ENDMDL
MODEL 9
REMARK VINA RESULT:    -5.811      3.459      5.991
REMARK INTER + INTRA:          -7.586
REMARK INTER:                  -7.206
REMARK INTRA:                  -0.380
REMARK UNBOUND:                -0.416
REMARK  Name = 
REMARK  6 active torsions:
REMARK  status: ('A' for Active; 'I' for Inactive)
REMARK    1  A    between atoms: C_1  and  C_2
REMARK    2  A    between atoms: C_5  and  C_6
REMARK    3  A    between atoms: C_6  and  O_7
REMARK    4  A    between atoms: O_7  and  C_8
REMARK    5  A    between atoms: C_11  and  C_12
REMARK    6  A    between atoms: C_18  and  C_19
REMARK                            x       y       z     vdW  Elec       q    Type
REMARK                         _______ _______ _______ _____ _____    ______ ____
ROOT
ATOM      1  C   UNL     1      48.386   3.649  16.548  0.00  0.00    +0.000 A 
ATOM      2  C   UNL     1      49.343   4.315  17.310  0.00  0.00    +0.000 A 
ATOM      3  C   UNL     1      50.492   3.638  17.722  0.00  0.00    +0.000 A 
ATOM      4  C   UNL     1      50.647   2.310  17.351  0.00  0.00    +0.000 A 
ATOM      5  N   UNL     1      49.742   1.623  16.602  0.00  0.00    +0.000 NA
ATOM      6  C   UNL     1      48.638   2.317  16.224  0.00  0.00    +0.000 A 
ENDROOT
BRANCH   4   7
ATOM      7  C   UNL     1      51.865   1.562  17.799  0.00  0.00    +0.000 C 
ATOM      8  N   UNL     1      51.677   0.237  18.079  0.00  0.00    +0.000 N 
ATOM      9  O   UNL     1      52.961   2.097  17.918  0.00  0.00    +0.000 OA
ATOM     10  H   UNL     1      50.754  -0.171  17.976  0.00  0.00    +0.000 HD
ATOM     11  H   UNL     1      52.456  -0.321  18.396  0.00  0.00    +0.000 HD
ENDBRANCH   4   7
BRANCH   1  12
ATOM     12  O   UNL     1      47.214   4.180  16.088  0.00  0.00    +0.000 OA
BRANCH  12  13
ATOM     13  C   UNL     1      47.324   5.216  15.107  0.00  0.00    +0.000 C 
BRANCH  13  18
ATOM     14  C   UNL     1      44.111   3.914  10.409  0.00  0.00    +0.000 C 
ATOM     15  C   UNL     1      44.917   4.274  11.627  0.00  0.00    +0.000 A 
ATOM     16  C   UNL     1      45.601   3.265  12.320  0.00  0.00    +0.000 A 
ATOM     17  C   UNL     1      46.368   3.564  13.448  0.00  0.00    +0.000 A 
ATOM     18  C   UNL     1      46.467   4.880  13.910  0.00  0.00    +0.000 A 
ATOM     19  C   UNL     1      45.783   5.891  13.219  0.00  0.00    +0.000 A 
ATOM     20  C   UNL     1      45.003   5.602  12.087  0.00  0.00    +0.000 A 
ATOM     21  C   UNL     1      44.268   6.718  11.396  0.00  0.00    +0.000 C 
ENDBRANCH  13  18
ENDBRANCH  12  13
ENDBRANCH   1  12
TORSDOF 4
ENDMDL
