MODEL 1
REMARK VINA RESULT:    -8.623      0.000      0.000
REMARK INTER + INTRA:         -12.151
REMARK INTER:                 -11.144
REMARK INTRA:                  -1.007
REMARK UNBOUND:                -1.007
REMARK  Name = 
REMARK  5 active torsions:
REMARK  status: ('A' for Active; 'I' for Inactive)
REMARK    1  A    between atoms: C_2  and  C_3
REMARK    2  A    between atoms: C_6  and  O_7
REMARK    3  A    between atoms: O_7  and  C_8
REMARK    4  A    between atoms: C_8  and  C_9
REMARK    5  A    between atoms: C_14  and  C_15
REMARK                            x       y       z     vdW  Elec       q    Type
REMARK                         _______ _______ _______ _____ _____    ______ ____
ROOT
ATOM      1  C   UNL     1      44.899   4.199  12.106  0.00  0.00    +0.000 A 
ATOM      2  C   UNL     1      45.668   3.427  12.980  0.00  0.00    +0.000 A 
ATOM      3  C   UNL     1      46.755   4.000  13.625  0.00  0.00    +0.000 A 
ATOM      4  F   UNL     1      47.487   3.256  14.465  0.00  0.00    +0.000 F 
ATOM      5  C   UNL     1      47.100   5.332  13.418  0.00  0.00    +0.000 A 
ATOM      6  C   UNL     1      46.348   6.148  12.557  0.00  0.00    +0.000 A 
ATOM      7  C   UNL     1      45.242   5.553  11.914  0.00  0.00    +0.000 A 
ENDROOT
BRANCH   6   8
ATOM      8  C   UNL     1      46.706   7.570  12.331  0.00  0.00    +0.000 A 
ATOM      9  C   UNL     1      48.038   7.966  12.095  0.00  0.00    +0.000 A 
ATOM     10  C   UNL     1      48.380   9.305  11.863  0.00  0.00    +0.000 A 
ATOM     11  C   UNL     1      47.393  10.283  11.878  0.00  0.00    +0.000 A 
ATOM     12  C   UNL     1      46.078   9.914  12.119  0.00  0.00    +0.000 A 
ATOM     13  F   UNL     1      45.123  10.853  12.139  0.00  0.00    +0.000 F 
ATOM     14  C   UNL     1      45.730   8.583  12.336  0.00  0.00    +0.000 A 
ENDBRANCH   6   8
BRANCH   1  15
ATOM     15  C   UNL     1      43.706   3.607  11.397  0.00  0.00    +0.000 C 
BRANCH  15  16
ATOM     16  O   UNL     1      43.726   4.014  10.028  0.00  0.00    +0.000 OA
BRANCH  16  20
ATOM     17  C   UNL     1      46.635   2.480   7.457  0.00  0.00    +0.000 A 
ATOM     18  C   UNL     1      45.951   1.594   8.296  0.00  0.00    +0.000 A 
ATOM     19  C   UNL     1      44.969   2.067   9.175  0.00  0.00    +0.000 A 
ATOM     20  C   UNL     1      44.664   3.428   9.222  0.00  0.00    +0.000 A 
ATOM     21  C   UNL     1      45.355   4.311   8.386  0.00  0.00    +0.000 A 
ATOM     22  C   UNL     1      46.336   3.844   7.506  0.00  0.00    +0.000 A 
BRANCH  17  24
ATOM     23  N   UNL     1      48.443   1.597   5.818  0.00  0.00    +0.000 NA
ATOM     24  C   UNL     1      47.632   1.988   6.552  0.00  0.00    +0.000 C 
ENDBRANCH  17  24
ENDBRANCH  16  20
ENDBRANCH  15  16
ENDBRANCH   1  15
TORSDOF 5
ENDMDL
MODEL 2
REMARK VINA RESULT:    -8.518      1.096      1.467
REMARK INTER + INTRA:         -12.015
REMARK INTER:                 -11.041
REMARK INTRA:                  -0.974
REMARK UNBOUND:                -1.007
REMARK  Name = 
REMARK  5 active torsions:
REMARK  status: ('A' for Active; 'I' for Inactive)
REMARK    1  A    between atoms: C_2  and  C_3
REMARK    2  A    between atoms: C_6  and  O_7
REMARK    3  A    between atoms: O_7  and  C_8
REMARK    4  A    between atoms: C_8  and  C_9
REMARK    5  A    between atoms: C_14  and  C_15
REMARK                            x       y       z     vdW  Elec       q    Type
REMARK                         _______ _______ _______ _____ _____    ______ ____
ROOT
ATOM      1  C   UNL     1      44.842   4.399  12.086  0.00  0.00    +0.000 A 
ATOM      2  C   UNL     1      45.563   3.555  12.935  0.00  0.00    +0.000 A 
ATOM      3  C   UNL     1      46.721   4.019  13.542  0.00  0.00    +0.000 A 
ATOM      4  F   UNL     1      47.406   3.208  14.358  0.00  0.00    +0.000 F 
ATOM      5  C   UNL     1      47.185   5.313  13.321  0.00  0.00    +0.000 A 
ATOM      6  C   UNL     1      46.486   6.199  12.485  0.00  0.00    +0.000 A 
ATOM      7  C   UNL     1      45.307   5.713  11.881  0.00  0.00    +0.000 A 
ENDROOT
BRANCH   6   8
ATOM      8  C   UNL     1      46.971   7.580  12.245  0.00  0.00    +0.000 A 
ATOM      9  C   UNL     1      46.107   8.691  12.334  0.00  0.00    +0.000 A 
ATOM     10  C   UNL     1      46.564   9.999  12.125  0.00  0.00    +0.000 A 
ATOM     11  C   UNL     1      47.898  10.223  11.807  0.00  0.00    +0.000 A 
ATOM     12  C   UNL     1      48.760   9.142  11.704  0.00  0.00    +0.000 A 
ATOM     13  F   UNL     1      50.046   9.352  11.394  0.00  0.00    +0.000 F 
ATOM     14  C   UNL     1      48.315   7.841  11.925  0.00  0.00    +0.000 A 
ENDBRANCH   6   8
BRANCH   1  15
ATOM     15  C   UNL     1      43.574   3.925  11.419  0.00  0.00    +0.000 C 
BRANCH  15  16
ATOM     16  O   UNL     1      43.623   4.258  10.031  0.00  0.00    +0.000 OA
BRANCH  16  20
ATOM     17  C   UNL     1      46.541   2.529   7.598  0.00  0.00    +0.000 A 
ATOM     18  C   UNL     1      45.796   1.697   8.440  0.00  0.00    +0.000 A 
ATOM     19  C   UNL     1      44.808   2.236   9.274  0.00  0.00    +0.000 A 
ATOM     20  C   UNL     1      44.560   3.610   9.272  0.00  0.00    +0.000 A 
ATOM     21  C   UNL     1      45.312   4.438   8.433  0.00  0.00    +0.000 A 
ATOM     22  C   UNL     1      46.299   3.905   7.598  0.00  0.00    +0.000 A 
BRANCH  17  24
ATOM     23  N   UNL     1      48.352   1.508   6.045  0.00  0.00    +0.000 NA
ATOM     24  C   UNL     1      47.544   1.969   6.740  0.00  0.00    +0.000 C 
ENDBRANCH  17  24
ENDBRANCH  16  20
ENDBRANCH  15  16
ENDBRANCH   1  15
TORSDOF 5
ENDMDL
MODEL 3
REMARK VINA RESULT:    -8.003      2.041      4.097
REMARK INTER + INTRA:         -11.349
REMARK INTER:                 -10.567
REMARK INTRA:                  -0.782
REMARK UNBOUND:                -1.007
REMARK  Name = 
REMARK  5 active torsions:
REMARK  status: ('A' for Active; 'I' for Inactive)
REMARK    1  A    between atoms: C_2  and  C_3
REMARK    2  A    between atoms: C_6  and  O_7
REMARK    3  A    between atoms: O_7  and  C_8
REMARK    4  A    between atoms: C_8  and  C_9
REMARK    5  A    between atoms: C_14  and  C_15
REMARK                            x       y       z     vdW  Elec       q    Type
REMARK                         _______ _______ _______ _____ _____    ______ ____
ROOT
ATOM      1  C   UNL     1      44.943   4.714  12.232  0.00  0.00    +0.000 A 
ATOM      2  C   UNL     1      45.181   5.978  11.687  0.00  0.00    +0.000 A 
ATOM      3  C   UNL     1      46.133   6.806  12.265  0.00  0.00    +0.000 A 
ATOM      4  F   UNL     1      46.359   8.016  11.737  0.00  0.00    +0.000 F 
ATOM      5  C   UNL     1      46.857   6.405  13.384  0.00  0.00    +0.000 A 
ATOM      6  C   UNL     1      46.659   5.138  13.958  0.00  0.00    +0.000 A 
ATOM      7  C   UNL     1      45.693   4.306  13.353  0.00  0.00    +0.000 A 
ENDROOT
BRANCH   6   8
ATOM      8  C   UNL     1      47.427   4.700  15.149  0.00  0.00    +0.000 A 
ATOM      9  C   UNL     1      47.463   3.348  15.547  0.00  0.00    +0.000 A 
ATOM     10  C   UNL     1      48.202   2.926  16.661  0.00  0.00    +0.000 A 
ATOM     11  C   UNL     1      48.911   3.856  17.412  0.00  0.00    +0.000 A 
ATOM     12  C   UNL     1      48.879   5.191  17.042  0.00  0.00    +0.000 A 
ATOM     13  F   UNL     1      49.558   6.092  17.765  0.00  0.00    +0.000 F 
ATOM     14  C   UNL     1      48.159   5.615  15.928  0.00  0.00    +0.000 A 
ENDBRANCH   6   8
BRANCH   1  15
ATOM     15  C   UNL     1      43.922   3.787  11.620  0.00  0.00    +0.000 C 
BRANCH  15  16
ATOM     16  O   UNL     1      43.799   4.081  10.227  0.00  0.00    +0.000 OA
BRANCH  16  20
ATOM     17  C   UNL     1      46.581   2.498   7.548  0.00  0.00    +0.000 A 
ATOM     18  C   UNL     1      45.929   1.626   8.426  0.00  0.00    +0.000 A 
ATOM     19  C   UNL     1      44.990   2.115   9.342  0.00  0.00    +0.000 A 
ATOM     20  C   UNL     1      44.697   3.480   9.387  0.00  0.00    +0.000 A 
ATOM     21  C   UNL     1      45.356   4.348   8.512  0.00  0.00    +0.000 A 
ATOM     22  C   UNL     1      46.294   3.864   7.595  0.00  0.00    +0.000 A 
BRANCH  17  24
ATOM     23  N   UNL     1      48.308   1.584   5.840  0.00  0.00    +0.000 NA
ATOM     24  C   UNL     1      47.533   1.988   6.605  0.00  0.00    +0.000 C 
ENDBRANCH  17  24
ENDBRANCH  16  20
ENDBRANCH  15  16
ENDBRANCH   1  15
TORSDOF 5
ENDMDL
MODEL 4
REMARK VINA RESULT:    -7.741      3.222      6.827
REMARK INTER + INTRA:         -11.010
REMARK INTER:                 -10.020
REMARK INTRA:                  -0.990
REMARK UNBOUND:                -1.007
REMARK  Name = 
REMARK  5 active torsions:
REMARK  status: ('A' for Active; 'I' for Inactive)
REMARK    1  A    between atoms: C_2  and  C_3
REMARK    2  A    between atoms: C_6  and  O_7
REMARK    3  A    between atoms: O_7  and  C_8
REMARK    4  A    between atoms: C_8  and  C_9
REMARK    5  A    between atoms: C_14  and  C_15
REMARK                            x       y       z     vdW  Elec       q    Type
REMARK                         _______ _______ _______ _____ _____    ______ ____
ROOT
ATOM      1  C   UNL     1      44.233   5.312  11.127  0.00  0.00    +0.000 A 
ATOM      2  C   UNL     1      43.590   4.408  11.975  0.00  0.00    +0.000 A 
ATOM      3  C   UNL     1      43.634   3.051  11.691  0.00  0.00    +0.000 A 
ATOM      4  F   UNL     1      43.018   2.187  12.509  0.00  0.00    +0.000 F 
ATOM      5  C   UNL     1      44.306   2.567  10.572  0.00  0.00    +0.000 A 
ATOM      6  C   UNL     1      44.977   3.440   9.699  0.00  0.00    +0.000 A 
ATOM      7  C   UNL     1      44.928   4.816  10.006  0.00  0.00    +0.000 A 
ENDROOT
BRANCH   6   8
ATOM      8  C   UNL     1      45.699   2.934   8.505  0.00  0.00    +0.000 A 
ATOM      9  C   UNL     1      46.098   3.798   7.464  0.00  0.00    +0.000 A 
ATOM     10  C   UNL     1      46.796   3.329   6.343  0.00  0.00    +0.000 A 
ATOM     11  C   UNL     1      47.096   1.977   6.232  0.00  0.00    +0.000 A 
ATOM     12  C   UNL     1      46.702   1.111   7.240  0.00  0.00    +0.000 A 
ATOM     13  F   UNL     1      46.986  -0.195   7.136  0.00  0.00    +0.000 F 
ATOM     14  C   UNL     1      46.022   1.573   8.364  0.00  0.00    +0.000 A 
ENDBRANCH   6   8
BRANCH   1  15
ATOM     15  C   UNL     1      44.210   6.794  11.415  0.00  0.00    +0.000 C 
BRANCH  15  16
ATOM     16  O   UNL     1      44.896   7.042  12.642  0.00  0.00    +0.000 OA
BRANCH  16  20
ATOM     17  C   UNL     1      48.970   7.894  12.322  0.00  0.00    +0.000 A 
ATOM     18  C   UNL     1      48.586   6.610  12.724  0.00  0.00    +0.000 A 
ATOM     19  C   UNL     1      47.230   6.283  12.845  0.00  0.00    +0.000 A 
ATOM     20  C   UNL     1      46.248   7.237  12.567  0.00  0.00    +0.000 A 
ATOM     21  C   UNL     1      46.637   8.520  12.172  0.00  0.00    +0.000 A 
ATOM     22  C   UNL     1      47.990   8.852  12.048  0.00  0.00    +0.000 A 
BRANCH  17  24
ATOM     23  N   UNL     1      51.487   8.479  12.088  0.00  0.00    +0.000 NA
ATOM     24  C   UNL     1      50.359   8.219  12.188  0.00  0.00    +0.000 C 
ENDBRANCH  17  24
ENDBRANCH  16  20
ENDBRANCH  15  16
ENDBRANCH   1  15
TORSDOF 5
ENDMDL
MODEL 5
REMARK VINA RESULT:    -7.648      3.838      7.414
REMARK INTER + INTRA:         -10.891
REMARK INTER:                 -10.125
REMARK INTRA:                  -0.766
REMARK UNBOUND:                -1.007
REMARK  Name = 
REMARK  5 active torsions:
REMARK  status: ('A' for Active; 'I' for Inactive)
REMARK    1  A    between atoms: C_2  and  C_3
REMARK    2  A    between atoms: C_6  and  O_7
REMARK    3  A    between atoms: O_7  and  C_8
REMARK    4  A    between atoms: C_8  and  C_9
REMARK    5  A    between atoms: C_14  and  C_15
REMARK                            x       y       z     vdW  Elec       q    Type
REMARK                         _______ _______ _______ _____ _____    ______ ____
ROOT
ATOM      1  C   UNL     1      45.350   6.320  11.425  0.00  0.00    +0.000 A 
ATOM      2  C   UNL     1      43.998   6.202  11.756  0.00  0.00    +0.000 A 
ATOM      3  C   UNL     1      43.215   5.254  11.114  0.00  0.00    +0.000 A 
ATOM      4  F   UNL     1      41.920   5.143  11.437  0.00  0.00    +0.000 F 
ATOM      5  C   UNL     1      43.748   4.414  10.139  0.00  0.00    +0.000 A 
ATOM      6  C   UNL     1      45.105   4.490   9.784  0.00  0.00    +0.000 A 
ATOM      7  C   UNL     1      45.889   5.455  10.451  0.00  0.00    +0.000 A 
ENDROOT
BRANCH   6   8
ATOM      8  C   UNL     1      45.683   3.598   8.749  0.00  0.00    +0.000 A 
ATOM      9  C   UNL     1      46.287   4.115   7.584  0.00  0.00    +0.000 A 
ATOM     10  C   UNL     1      46.851   3.279   6.612  0.00  0.00    +0.000 A 
ATOM     11  C   UNL     1      46.808   1.900   6.778  0.00  0.00    +0.000 A 
ATOM     12  C   UNL     1      46.209   1.372   7.911  0.00  0.00    +0.000 A 
ATOM     13  F   UNL     1      46.162   0.043   8.074  0.00  0.00    +0.000 F 
ATOM     14  C   UNL     1      45.660   2.199   8.888  0.00  0.00    +0.000 A 
ENDBRANCH   6   8
BRANCH   1  15
ATOM     15  C   UNL     1      46.229   7.336  12.112  0.00  0.00    +0.000 C 
BRANCH  15  16
ATOM     16  O   UNL     1      47.486   6.733  12.423  0.00  0.00    +0.000 OA
BRANCH  16  20
ATOM     17  C   UNL     1      47.993   5.054  16.211  0.00  0.00    +0.000 A 
ATOM     18  C   UNL     1      47.158   4.401  15.298  0.00  0.00    +0.000 A 
ATOM     19  C   UNL     1      46.960   4.931  14.017  0.00  0.00    +0.000 A 
ATOM     20  C   UNL     1      47.593   6.117  13.641  0.00  0.00    +0.000 A 
ATOM     21  C   UNL     1      48.420   6.769  14.559  0.00  0.00    +0.000 A 
ATOM     22  C   UNL     1      48.623   6.244  15.839  0.00  0.00    +0.000 A 
BRANCH  17  24
ATOM     23  N   UNL     1      48.376   4.047  18.572  0.00  0.00    +0.000 NA
ATOM     24  C   UNL     1      48.201   4.500  17.517  0.00  0.00    +0.000 C 
ENDBRANCH  17  24
ENDBRANCH  16  20
ENDBRANCH  15  16
ENDBRANCH   1  15
TORSDOF 5
ENDMDL
MODEL 6
REMARK VINA RESULT:    -7.121      3.619      7.307
REMARK INTER + INTRA:         -10.210
REMARK INTER:                  -9.451
REMARK INTRA:                  -0.759
REMARK UNBOUND:                -1.007
REMARK  Name = 
REMARK  5 active torsions:
REMARK  status: ('A' for Active; 'I' for Inactive)
REMARK    1  A    between atoms: C_2  and  C_3
REMARK    2  A    between atoms: C_6  and  O_7
REMARK    3  A    between atoms: O_7  and  C_8
REMARK    4  A    between atoms: C_8  and  C_9
REMARK    5  A    between atoms: C_14  and  C_15
REMARK                            x       y       z     vdW  Elec       q    Type
REMARK                         _______ _______ _______ _____ _____    ______ ____
ROOT
ATOM      1  C   UNL     1      45.318   6.366  11.358  0.00  0.00    +0.000 A 
ATOM      2  C   UNL     1      43.974   6.225  11.714  0.00  0.00    +0.000 A 
ATOM      3  C   UNL     1      43.200   5.254  11.097  0.00  0.00    +0.000 A 
ATOM      4  F   UNL     1      41.913   5.121  11.443  0.00  0.00    +0.000 F 
ATOM      5  C   UNL     1      43.733   4.413  10.123  0.00  0.00    +0.000 A 
ATOM      6  C   UNL     1      45.082   4.511   9.744  0.00  0.00    +0.000 A 
ATOM      7  C   UNL     1      45.857   5.500  10.386  0.00  0.00    +0.000 A 
ENDROOT
BRANCH   6   8
ATOM      8  C   UNL     1      45.661   3.619   8.710  0.00  0.00    +0.000 A 
ATOM      9  C   UNL     1      46.232   4.133   7.528  0.00  0.00    +0.000 A 
ATOM     10  C   UNL     1      46.796   3.296   6.556  0.00  0.00    +0.000 A 
ATOM     11  C   UNL     1      46.786   1.919   6.740  0.00  0.00    +0.000 A 
ATOM     12  C   UNL     1      46.220   1.394   7.891  0.00  0.00    +0.000 A 
ATOM     13  F   UNL     1      46.204   0.066   8.072  0.00  0.00    +0.000 F 
ATOM     14  C   UNL     1      45.671   2.221   8.868  0.00  0.00    +0.000 A 
ENDBRANCH   6   8
BRANCH   1  15
ATOM     15  C   UNL     1      46.188   7.407  12.019  0.00  0.00    +0.000 C 
BRANCH  15  16
ATOM     16  O   UNL     1      47.147   6.756  12.852  0.00  0.00    +0.000 OA
BRANCH  16  20
ATOM     17  C   UNL     1      50.988   8.375  12.632  0.00  0.00    +0.000 A 
ATOM     18  C   UNL     1      50.479   8.032  13.889  0.00  0.00    +0.000 A 
ATOM     19  C   UNL     1      49.195   7.488  14.008  0.00  0.00    +0.000 A 
ATOM     20  C   UNL     1      48.410   7.283  12.871  0.00  0.00    +0.000 A 
ATOM     21  C   UNL     1      48.920   7.633  11.618  0.00  0.00    +0.000 A 
ATOM     22  C   UNL     1      50.203   8.177  11.494  0.00  0.00    +0.000 A 
BRANCH  17  24
ATOM     23  N   UNL     1      53.379   9.362  12.416  0.00  0.00    +0.000 NA
ATOM     24  C   UNL     1      52.308   8.922  12.517  0.00  0.00    +0.000 C 
ENDBRANCH  17  24
ENDBRANCH  16  20
ENDBRANCH  15  16
ENDBRANCH   1  15
TORSDOF 5
ENDMDL
MODEL 7
REMARK VINA RESULT:    -6.625      4.618      8.023
REMARK INTER + INTRA:          -9.569
REMARK INTER:                  -8.826
REMARK INTRA:                  -0.743
REMARK UNBOUND:                -1.007
REMARK  Name = 
REMARK  5 active torsions:
REMARK  status: ('A' for Active; 'I' for Inactive)
REMARK    1  A    between atoms: C_2  and  C_3
REMARK    2  A    between atoms: C_6  and  O_7
REMARK    3  A    between atoms: O_7  and  C_8
REMARK    4  A    between atoms: C_8  and  C_9
REMARK    5  A    between atoms: C_14  and  C_15
REMARK                            x       y       z     vdW  Elec       q    Type
REMARK                         _______ _______ _______ _____ _____    ______ ____
ROOT
ATOM      1  C   UNL     1      47.025   7.362  13.249  0.00  0.00    +0.000 A 
ATOM      2  C   UNL     1      46.311   8.554  13.103  0.00  0.00    +0.000 A 
ATOM      3  C   UNL     1      45.278   8.627  12.180  0.00  0.00    +0.000 A 
ATOM      4  F   UNL     1      44.595   9.771  12.046  0.00  0.00    +0.000 F 
ATOM      5  C   UNL     1      44.937   7.534  11.388  0.00  0.00    +0.000 A 
ATOM      6  C   UNL     1      45.620   6.312  11.510  0.00  0.00    +0.000 A 
ATOM      7  C   UNL     1      46.663   6.253  12.458  0.00  0.00    +0.000 A 
ENDROOT
BRANCH   6   8
ATOM      8  C   UNL     1      45.263   5.141  10.672  0.00  0.00    +0.000 A 
ATOM      9  C   UNL     1      44.524   4.059  11.194  0.00  0.00    +0.000 A 
ATOM     10  C   UNL     1      44.168   2.959  10.403  0.00  0.00    +0.000 A 
ATOM     11  C   UNL     1      44.560   2.909   9.071  0.00  0.00    +0.000 A 
ATOM     12  C   UNL     1      45.297   3.958   8.543  0.00  0.00    +0.000 A 
ATOM     13  F   UNL     1      45.681   3.914   7.260  0.00  0.00    +0.000 F 
ATOM     14  C   UNL     1      45.641   5.062   9.320  0.00  0.00    +0.000 A 
ENDBRANCH   6   8
BRANCH   1  15
ATOM     15  C   UNL     1      48.147   7.250  14.251  0.00  0.00    +0.000 C 
BRANCH  15  16
ATOM     16  O   UNL     1      48.382   5.871  14.539  0.00  0.00    +0.000 OA
BRANCH  16  20
ATOM     17  C   UNL     1      48.491   4.927  18.603  0.00  0.00    +0.000 A 
ATOM     18  C   UNL     1      47.636   4.197  17.771  0.00  0.00    +0.000 A 
ATOM     19  C   UNL     1      47.568   4.482  16.402  0.00  0.00    +0.000 A 
ATOM     20  C   UNL     1      48.353   5.500  15.855  0.00  0.00    +0.000 A 
ATOM     21  C   UNL     1      49.200   6.231  16.692  0.00  0.00    +0.000 A 
ATOM     22  C   UNL     1      49.273   5.950  18.061  0.00  0.00    +0.000 A 
BRANCH  17  24
ATOM     23  N   UNL     1      48.627   4.384  21.137  0.00  0.00    +0.000 NA
ATOM     24  C   UNL     1      48.564   4.623  20.002  0.00  0.00    +0.000 C 
ENDBRANCH  17  24
ENDBRANCH  16  20
ENDBRANCH  15  16
ENDBRANCH   1  15
TORSDOF 5
ENDMDL
MODEL 8
REMARK VINA RESULT:    -6.459      4.580      7.559
REMARK INTER + INTRA:          -9.354
REMARK INTER:                  -8.512
REMARK INTRA:                  -0.843
REMARK UNBOUND:                -1.007
REMARK  Name = 
REMARK  5 active torsions:
REMARK  status: ('A' for Active; 'I' for Inactive)
REMARK    1  A    between atoms: C_2  and  C_3
REMARK    2  A    between atoms: C_6  and  O_7
REMARK    3  A    between atoms: O_7  and  C_8
REMARK    4  A    between atoms: C_8  and  C_9
REMARK    5  A    between atoms: C_14  and  C_15
REMARK                            x       y       z     vdW  Elec       q    Type
REMARK                         _______ _______ _______ _____ _____    ______ ____
ROOT
ATOM      1  C   UNL     1      48.291   6.775  14.356  0.00  0.00    +0.000 A 
ATOM      2  C   UNL     1      48.836   7.750  13.516  0.00  0.00    +0.000 A 
ATOM      3  C   UNL     1      48.354   7.888  12.223  0.00  0.00    +0.000 A 
ATOM      4  F   UNL     1      48.878   8.826  11.423  0.00  0.00    +0.000 F 
ATOM      5  C   UNL     1      47.336   7.071  11.739  0.00  0.00    +0.000 A 
ATOM      6  C   UNL     1      46.751   6.087  12.552  0.00  0.00    +0.000 A 
ATOM      7  C   UNL     1      47.247   5.964  13.867  0.00  0.00    +0.000 A 
ENDROOT
BRANCH   6   8
ATOM      8  C   UNL     1      45.664   5.213  12.046  0.00  0.00    +0.000 A 
ATOM      9  C   UNL     1      44.933   4.370  12.909  0.00  0.00    +0.000 A 
ATOM     10  C   UNL     1      43.893   3.556  12.440  0.00  0.00    +0.000 A 
ATOM     11  C   UNL     1      43.572   3.557  11.088  0.00  0.00    +0.000 A 
ATOM     12  C   UNL     1      44.286   4.370  10.222  0.00  0.00    +0.000 A 
ATOM     13  F   UNL     1      43.982   4.372   8.917  0.00  0.00    +0.000 F 
ATOM     14  C   UNL     1      45.310   5.193  10.685  0.00  0.00    +0.000 A 
ENDBRANCH   6   8
BRANCH   1  15
ATOM     15  C   UNL     1      48.788   6.607  15.771  0.00  0.00    +0.000 C 
BRANCH  15  16
ATOM     16  O   UNL     1      48.132   5.488  16.368  0.00  0.00    +0.000 OA
BRANCH  16  20
ATOM     17  C   UNL     1      50.713   2.376  17.404  0.00  0.00    +0.000 A 
ATOM     18  C   UNL     1      49.457   2.054  16.880  0.00  0.00    +0.000 A 
ATOM     19  C   UNL     1      48.560   3.068  16.521  0.00  0.00    +0.000 A 
ATOM     20  C   UNL     1      48.912   4.409  16.684  0.00  0.00    +0.000 A 
ATOM     21  C   UNL     1      50.166   4.725  17.214  0.00  0.00    +0.000 A 
ATOM     22  C   UNL     1      51.066   3.717  17.573  0.00  0.00    +0.000 A 
BRANCH  17  24
ATOM     23  N   UNL     1      52.374   0.491  18.056  0.00  0.00    +0.000 NA
ATOM     24  C   UNL     1      51.631   1.334  17.760  0.00  0.00    +0.000 C 
ENDBRANCH  17  24
ENDBRANCH  16  20
ENDBRANCH  15  16
ENDBRANCH   1  15
TORSDOF 5
ENDMDL
