MODEL 1
REMARK VINA RESULT:    -7.776      0.000      0.000
REMARK INTER + INTRA:         -11.855
REMARK INTER:                 -11.186
REMARK INTRA:                  -0.669
REMARK UNBOUND:                -0.669
REMARK  Name = 
REMARK  8 active torsions:
REMARK  status: ('A' for Active; 'I' for Inactive)
REMARK    1  A    between atoms: N_1  and  C_2
REMARK    2  A    between atoms: C_2  and  C_3
REMARK    3  A    between atoms: C_3  and  N_4
REMARK    4  A    between atoms: N_4  and  C_5
REMARK    5  A    between atoms: C_5  and  C_6
REMARK    6  A    between atoms: C_8  and  C_9
REMARK    7  A    between atoms: C_9  and  N_10
REMARK    8  A    between atoms: C_11  and  C_13
REMARK                            x       y       z     vdW  Elec       q    Type
REMARK                         _______ _______ _______ _____ _____    ______ ____
ROOT
ATOM      1  C   UNL     1      44.447   4.581  12.873  0.00  0.00    +0.000 C 
ENDROOT
BRANCH   1   4
ATOM      2  C   UNL     1      45.257   3.634   9.299  0.00  0.00    +0.000 A 
ATOM      3  C   UNL     1      44.827   3.539  10.621  0.00  0.00    +0.000 A 
ATOM      4  C   UNL     1      44.930   4.655  11.454  0.00  0.00    +0.000 A 
ATOM      5  C   UNL     1      45.445   5.839  10.920  0.00  0.00    +0.000 A 
ATOM      6  C   UNL     1      45.855   5.846   9.597  0.00  0.00    +0.000 A 
ATOM      7  N   UNL     1      45.773   4.776   8.777  0.00  0.00    +0.000 NA
BRANCH   2   8
ATOM      8  C   UNL     1      45.067   2.456   8.362  0.00  0.00    +0.000 C 
BRANCH   8   9
ATOM      9  N   UNL     1      46.025   1.353   8.576  0.00  0.00    +0.000 NA
ATOM     10  H   UNL     1      46.705   1.691   9.262  0.00  0.00    +0.000 HD
BRANCH   9  11
ATOM     11  C   UNL     1      46.800   1.040   7.362  0.00  0.00    +0.000 C 
BRANCH  11  12
ATOM     12  C   UNL     1      47.685   2.203   6.874  0.00  0.00    +0.000 C 
BRANCH  12  13
ATOM     13  N   UNL     1      48.549   1.783   5.764  0.00  0.00    +0.000 NA
ATOM     14  H   UNL     1      49.467   1.544   6.137  0.00  0.00    +0.000 HD
ATOM     15  H   UNL     1      48.693   2.577   5.141  0.00  0.00    +0.000 HD
ENDBRANCH  12  13
ENDBRANCH  11  12
ENDBRANCH   9  11
ENDBRANCH   8   9
ENDBRANCH   2   8
ENDBRANCH   1   4
BRANCH   1  16
ATOM     16  N   UNL     1      45.421   5.119  13.791  0.00  0.00    +0.000 N 
ATOM     17  C   UNL     1      46.542   4.423  14.163  0.00  0.00    +0.000 C 
ATOM     18  O   UNL     1      46.789   3.299  13.733  0.00  0.00    +0.000 OA
ATOM     19  H   UNL     1      45.161   5.959  14.295  0.00  0.00    +0.000 HD
BRANCH  17  20
ATOM     20  C   UNL     1      47.485   5.122  15.048  0.00  0.00    +0.000 A 
ATOM     21  C   UNL     1      48.230   6.180  14.545  0.00  0.00    +0.000 A 
ATOM     22  S   UNL     1      49.243   6.918  15.699  0.00  0.00    +0.000 S 
ATOM     23  C   UNL     1      48.759   5.820  16.904  0.00  0.00    +0.000 A 
ATOM     24  N   UNL     1      49.285   5.886  18.158  0.00  0.00    +0.000 NA
ATOM     25  C   UNL     1      48.859   4.974  18.966  0.00  0.00    +0.000 A 
ATOM     26  N   UNL     1      47.945   4.006  18.634  0.00  0.00    +0.000 N 
ATOM     27  C   UNL     1      47.338   3.941  17.401  0.00  0.00    +0.000 A 
ATOM     28  O   UNL     1      46.446   3.129  17.176  0.00  0.00    +0.000 OA
ATOM     29  C   UNL     1      47.815   4.919  16.440  0.00  0.00    +0.000 A 
ATOM     30  H   UNL     1      47.635   3.335  19.321  0.00  0.00    +0.000 HD
ENDBRANCH  17  20
ENDBRANCH   1  16
TORSDOF 8
ENDMDL
MODEL 2
REMARK VINA RESULT:    -7.693      1.476      1.997
REMARK INTER + INTRA:         -11.736
REMARK INTER:                 -10.804
REMARK INTRA:                  -0.932
REMARK UNBOUND:                -0.669
REMARK  Name = 
REMARK  8 active torsions:
REMARK  status: ('A' for Active; 'I' for Inactive)
REMARK    1  A    between atoms: N_1  and  C_2
REMARK    2  A    between atoms: C_2  and  C_3
REMARK    3  A    between atoms: C_3  and  N_4
REMARK    4  A    between atoms: N_4  and  C_5
REMARK    5  A    between atoms: C_5  and  C_6
REMARK    6  A    between atoms: C_8  and  C_9
REMARK    7  A    between atoms: C_9  and  N_10
REMARK    8  A    between atoms: C_11  and  C_13
REMARK                            x       y       z     vdW  Elec       q    Type
REMARK                         _______ _______ _______ _____ _____    ______ ____
ROOT
ATOM      1  C   UNL     1      45.510   6.606  11.518  0.00  0.00    +0.000 C 
ENDROOT
BRANCH   1   4
ATOM      2  C   UNL     1      44.845   3.502   9.455  0.00  0.00    +0.000 A 
ATOM      3  C   UNL     1      45.388   4.717   9.868  0.00  0.00    +0.000 A 
ATOM      4  C   UNL     1      44.919   5.311  11.041  0.00  0.00    +0.000 A 
ATOM      5  C   UNL     1      43.929   4.649  11.772  0.00  0.00    +0.000 A 
ATOM      6  C   UNL     1      43.439   3.448  11.288  0.00  0.00    +0.000 A 
ATOM      7  N   UNL     1      43.871   2.860  10.152  0.00  0.00    +0.000 NA
BRANCH   2   8
ATOM      8  C   UNL     1      45.410   2.805   8.232  0.00  0.00    +0.000 C 
BRANCH   8   9
ATOM      9  N   UNL     1      45.919   1.444   8.493  0.00  0.00    +0.000 NA
ATOM     10  H   UNL     1      46.357   1.473   9.417  0.00  0.00    +0.000 HD
BRANCH   9  11
ATOM     11  C   UNL     1      46.987   1.055   7.554  0.00  0.00    +0.000 C 
BRANCH  11  12
ATOM     12  C   UNL     1      47.666   2.251   6.857  0.00  0.00    +0.000 C 
BRANCH  12  13
ATOM     13  N   UNL     1      48.501   1.806   5.734  0.00  0.00    +0.000 NA
ATOM     14  H   UNL     1      47.944   1.198   5.134  0.00  0.00    +0.000 HD
ATOM     15  H   UNL     1      49.260   1.231   6.097  0.00  0.00    +0.000 HD
ENDBRANCH  12  13
ENDBRANCH  11  12
ENDBRANCH   9  11
ENDBRANCH   8   9
ENDBRANCH   2   8
ENDBRANCH   1   4
BRANCH   1  16
ATOM     16  N   UNL     1      46.192   6.443  12.778  0.00  0.00    +0.000 N 
ATOM     17  C   UNL     1      47.546   6.615  12.907  0.00  0.00    +0.000 C 
ATOM     18  O   UNL     1      48.261   6.926  11.958  0.00  0.00    +0.000 OA
ATOM     19  H   UNL     1      45.666   6.018  13.533  0.00  0.00    +0.000 HD
BRANCH  17  20
ATOM     20  C   UNL     1      48.098   6.489  14.264  0.00  0.00    +0.000 A 
ATOM     21  C   UNL     1      48.976   7.457  14.731  0.00  0.00    +0.000 A 
ATOM     22  S   UNL     1      49.494   7.199  16.334  0.00  0.00    +0.000 S 
ATOM     23  C   UNL     1      48.600   5.758  16.448  0.00  0.00    +0.000 A 
ATOM     24  N   UNL     1      48.627   5.009  17.584  0.00  0.00    +0.000 NA
ATOM     25  C   UNL     1      47.933   3.922  17.526  0.00  0.00    +0.000 A 
ATOM     26  N   UNL     1      47.204   3.522  16.434  0.00  0.00    +0.000 N 
ATOM     27  C   UNL     1      47.094   4.278  15.290  0.00  0.00    +0.000 A 
ATOM     28  O   UNL     1      46.347   3.939  14.378  0.00  0.00    +0.000 OA
ATOM     29  C   UNL     1      47.892   5.490  15.288  0.00  0.00    +0.000 A 
ATOM     30  H   UNL     1      46.663   2.671  16.462  0.00  0.00    +0.000 HD
ENDBRANCH  17  20
ENDBRANCH   1  16
TORSDOF 8
ENDMDL
MODEL 3
REMARK VINA RESULT:    -6.992      3.385      8.120
REMARK INTER + INTRA:         -10.726
REMARK INTER:                  -9.595
REMARK INTRA:                  -1.131
REMARK UNBOUND:                -0.669
REMARK  Name = 
REMARK  8 active torsions:
REMARK  status: ('A' for Active; 'I' for Inactive)
REMARK    1  A    between atoms: N_1  and  C_2
REMARK    2  A    between atoms: C_2  and  C_3
REMARK    3  A    between atoms: C_3  and  N_4
REMARK    4  A    between atoms: N_4  and  C_5
REMARK    5  A    between atoms: C_5  and  C_6
REMARK    6  A    between atoms: C_8  and  C_9
REMARK    7  A    between atoms: C_9  and  N_10
REMARK    8  A    between atoms: C_11  and  C_13
REMARK                            x       y       z     vdW  Elec       q    Type
REMARK                         _______ _______ _______ _____ _____    ______ ____
ROOT
ATOM      1  C   UNL     1      49.032   6.933  15.844  0.00  0.00    +0.000 C 
ENDROOT
BRANCH   1   4
ATOM      2  C   UNL     1      50.934   4.302  17.791  0.00  0.00    +0.000 A 
ATOM      3  C   UNL     1      50.653   5.467  17.081  0.00  0.00    +0.000 A 
ATOM      4  C   UNL     1      49.362   5.672  16.588  0.00  0.00    +0.000 A 
ATOM      5  C   UNL     1      48.390   4.702  16.845  0.00  0.00    +0.000 A 
ATOM      6  C   UNL     1      48.754   3.570  17.555  0.00  0.00    +0.000 A 
ATOM      7  N   UNL     1      49.998   3.347  18.031  0.00  0.00    +0.000 NA
BRANCH   2   8
ATOM      8  C   UNL     1      52.307   4.112  18.406  0.00  0.00    +0.000 C 
BRANCH   8   9
ATOM      9  N   UNL     1      52.527   2.776  18.993  0.00  0.00    +0.000 NA
ATOM     10  H   UNL     1      52.937   2.931  19.918  0.00  0.00    +0.000 HD
BRANCH   9  11
ATOM     11  C   UNL     1      53.520   1.990  18.240  0.00  0.00    +0.000 C 
BRANCH  11  12
ATOM     12  C   UNL     1      52.993   0.625  17.754  0.00  0.00    +0.000 C 
BRANCH  12  13
ATOM     13  N   UNL     1      51.555   0.487  18.017  0.00  0.00    +0.000 NA
ATOM     14  H   UNL     1      51.137  -0.063  17.267  0.00  0.00    +0.000 HD
ATOM     15  H   UNL     1      51.123   1.409  17.968  0.00  0.00    +0.000 HD
ENDBRANCH  12  13
ENDBRANCH  11  12
ENDBRANCH   9  11
ENDBRANCH   8   9
ENDBRANCH   2   8
ENDBRANCH   1   4
BRANCH   1  16
ATOM     16  N   UNL     1      47.869   6.765  15.008  0.00  0.00    +0.000 N 
ATOM     17  C   UNL     1      47.961   6.471  13.672  0.00  0.00    +0.000 C 
ATOM     18  O   UNL     1      49.041   6.328  13.106  0.00  0.00    +0.000 OA
ATOM     19  H   UNL     1      46.977   7.048  15.399  0.00  0.00    +0.000 HD
BRANCH  17  20
ATOM     20  C   UNL     1      46.694   6.255  12.958  0.00  0.00    +0.000 A 
ATOM     21  C   UNL     1      46.042   7.341  12.390  0.00  0.00    +0.000 A 
ATOM     22  S   UNL     1      44.614   6.928  11.558  0.00  0.00    +0.000 S 
ATOM     23  C   UNL     1      44.787   5.286  11.967  0.00  0.00    +0.000 A 
ATOM     24  N   UNL     1      43.861   4.370  11.575  0.00  0.00    +0.000 NA
ATOM     25  C   UNL     1      44.093   3.167  11.981  0.00  0.00    +0.000 A 
ATOM     26  N   UNL     1      45.177   2.796  12.738  0.00  0.00    +0.000 N 
ATOM     27  C   UNL     1      46.172   3.675  13.100  0.00  0.00    +0.000 A 
ATOM     28  O   UNL     1      47.178   3.285  13.683  0.00  0.00    +0.000 OA
ATOM     29  C   UNL     1      45.935   5.051  12.706  0.00  0.00    +0.000 A 
ATOM     30  H   UNL     1      45.312   1.832  13.003  0.00  0.00    +0.000 HD
ENDBRANCH  17  20
ENDBRANCH   1  16
TORSDOF 8
ENDMDL
MODEL 4
REMARK VINA RESULT:    -6.903      2.436      3.566
REMARK INTER + INTRA:         -10.598
REMARK INTER:                  -9.549
REMARK INTRA:                  -1.049
REMARK UNBOUND:                -0.669
REMARK  Name = 
REMARK  8 active torsions:
REMARK  status: ('A' for Active; 'I' for Inactive)
REMARK    1  A    between atoms: N_1  and  C_2
REMARK    2  A    between atoms: C_2  and  C_3
REMARK    3  A    between atoms: C_3  and  N_4
REMARK    4  A    between atoms: N_4  and  C_5
REMARK    5  A    between atoms: C_5  and  C_6
REMARK    6  A    between atoms: C_8  and  C_9
REMARK    7  A    between atoms: C_9  and  N_10
REMARK    8  A    between atoms: C_11  and  C_13
REMARK                            x       y       z     vdW  Elec       q    Type
REMARK                         _______ _______ _______ _____ _____    ______ ____
ROOT
ATOM      1  C   UNL     1      47.088   3.788  14.545  0.00  0.00    +0.000 C 
ENDROOT
BRANCH   1   4
ATOM      2  C   UNL     1      44.973   5.589  11.973  0.00  0.00    +0.000 A 
ATOM      3  C   UNL     1      45.368   4.669  12.942  0.00  0.00    +0.000 A 
ATOM      4  C   UNL     1      46.654   4.753  13.480  0.00  0.00    +0.000 A 
ATOM      5  C   UNL     1      47.495   5.777  13.038  0.00  0.00    +0.000 A 
ATOM      6  C   UNL     1      47.026   6.647  12.067  0.00  0.00    +0.000 A 
ATOM      7  N   UNL     1      45.791   6.577  11.526  0.00  0.00    +0.000 NA
BRANCH   2   8
ATOM      8  C   UNL     1      43.551   5.561  11.448  0.00  0.00    +0.000 C 
BRANCH   8   9
ATOM      9  N   UNL     1      43.443   5.240  10.011  0.00  0.00    +0.000 NA
ATOM     10  H   UNL     1      42.449   5.076   9.826  0.00  0.00    +0.000 HD
BRANCH   9  11
ATOM     11  C   UNL     1      44.129   3.982   9.664  0.00  0.00    +0.000 C 
BRANCH  11  12
ATOM     12  C   UNL     1      44.999   4.079   8.395  0.00  0.00    +0.000 C 
BRANCH  12  13
ATOM     13  N   UNL     1      45.983   5.163   8.507  0.00  0.00    +0.000 NA
ATOM     14  H   UNL     1      46.657   4.918   9.232  0.00  0.00    +0.000 HD
ATOM     15  H   UNL     1      45.509   6.004   8.833  0.00  0.00    +0.000 HD
ENDBRANCH  12  13
ENDBRANCH  11  12
ENDBRANCH   9  11
ENDBRANCH   8   9
ENDBRANCH   2   8
ENDBRANCH   1   4
BRANCH   1  16
ATOM     16  N   UNL     1      47.576   4.477  15.714  0.00  0.00    +0.000 N 
ATOM     17  C   UNL     1      47.195   4.129  16.984  0.00  0.00    +0.000 C 
ATOM     18  O   UNL     1      46.417   3.203  17.204  0.00  0.00    +0.000 OA
ATOM     19  H   UNL     1      48.073   5.347  15.561  0.00  0.00    +0.000 HD
BRANCH  17  20
ATOM     20  C   UNL     1      47.826   4.869  18.086  0.00  0.00    +0.000 A 
ATOM     21  C   UNL     1      47.035   5.647  18.921  0.00  0.00    +0.000 A 
ATOM     22  S   UNL     1      47.901   6.406  20.177  0.00  0.00    +0.000 S 
ATOM     23  C   UNL     1      49.374   5.761  19.624  0.00  0.00    +0.000 A 
ATOM     24  N   UNL     1      50.542   6.051  20.258  0.00  0.00    +0.000 NA
ATOM     25  C   UNL     1      51.590   5.526  19.716  0.00  0.00    +0.000 A 
ATOM     26  N   UNL     1      51.572   4.727  18.601  0.00  0.00    +0.000 N 
ATOM     27  C   UNL     1      50.409   4.353  17.968  0.00  0.00    +0.000 A 
ATOM     28  O   UNL     1      50.423   3.550  17.040  0.00  0.00    +0.000 OA
ATOM     29  C   UNL     1      49.205   4.953  18.511  0.00  0.00    +0.000 A 
ATOM     30  H   UNL     1      52.425   4.328  18.241  0.00  0.00    +0.000 HD
ENDBRANCH  17  20
ENDBRANCH   1  16
TORSDOF 8
ENDMDL
MODEL 5
REMARK VINA RESULT:    -6.893      1.872      2.767
REMARK INTER + INTRA:         -10.585
REMARK INTER:                  -9.787
REMARK INTRA:                  -0.798
REMARK UNBOUND:                -0.669
REMARK  Name = 
REMARK  8 active torsions:
REMARK  status: ('A' for Active; 'I' for Inactive)
REMARK    1  A    between atoms: N_1  and  C_2
REMARK    2  A    between atoms: C_2  and  C_3
REMARK    3  A    between atoms: C_3  and  N_4
REMARK    4  A    between atoms: N_4  and  C_5
REMARK    5  A    between atoms: C_5  and  C_6
REMARK    6  A    between atoms: C_8  and  C_9
REMARK    7  A    between atoms: C_9  and  N_10
REMARK    8  A    between atoms: C_11  and  C_13
REMARK                            x       y       z     vdW  Elec       q    Type
REMARK                         _______ _______ _______ _____ _____    ______ ____
ROOT
ATOM      1  C   UNL     1      46.020   3.212  13.158  0.00  0.00    +0.000 C 
ENDROOT
BRANCH   1   4
ATOM      2  C   UNL     1      44.465   4.301   9.883  0.00  0.00    +0.000 A 
ATOM      3  C   UNL     1      45.328   3.694  10.793  0.00  0.00    +0.000 A 
ATOM      4  C   UNL     1      45.118   3.880  12.161  0.00  0.00    +0.000 A 
ATOM      5  C   UNL     1      44.031   4.657  12.568  0.00  0.00    +0.000 A 
ATOM      6  C   UNL     1      43.225   5.229  11.598  0.00  0.00    +0.000 A 
ATOM      7  N   UNL     1      43.415   5.071  10.270  0.00  0.00    +0.000 NA
BRANCH   2   8
ATOM      8  C   UNL     1      44.630   4.032   8.399  0.00  0.00    +0.000 C 
BRANCH   8   9
ATOM      9  N   UNL     1      45.988   4.300   7.884  0.00  0.00    +0.000 NA
ATOM     10  H   UNL     1      45.958   5.233   7.464  0.00  0.00    +0.000 HD
BRANCH   9  11
ATOM     11  C   UNL     1      46.366   3.381   6.795  0.00  0.00    +0.000 C 
BRANCH  11  12
ATOM     12  C   UNL     1      47.319   2.254   7.237  0.00  0.00    +0.000 C 
BRANCH  12  13
ATOM     13  N   UNL     1      48.268   1.912   6.170  0.00  0.00    +0.000 NA
ATOM     14  H   UNL     1      47.917   1.096   5.670  0.00  0.00    +0.000 HD
ATOM     15  H   UNL     1      49.150   1.629   6.594  0.00  0.00    +0.000 HD
ENDBRANCH  12  13
ENDBRANCH  11  12
ENDBRANCH   9  11
ENDBRANCH   8   9
ENDBRANCH   2   8
ENDBRANCH   1   4
BRANCH   1  16
ATOM     16  N   UNL     1      46.446   4.131  14.183  0.00  0.00    +0.000 N 
ATOM     17  C   UNL     1      47.364   3.788  15.142  0.00  0.00    +0.000 C 
ATOM     18  O   UNL     1      47.885   2.676  15.183  0.00  0.00    +0.000 OA
ATOM     19  H   UNL     1      45.911   4.986  14.285  0.00  0.00    +0.000 HD
BRANCH  17  20
ATOM     20  C   UNL     1      47.760   4.847  16.081  0.00  0.00    +0.000 A 
ATOM     21  C   UNL     1      47.548   4.662  17.441  0.00  0.00    +0.000 A 
ATOM     22  S   UNL     1      48.100   5.953  18.405  0.00  0.00    +0.000 S 
ATOM     23  C   UNL     1      48.601   6.831  17.038  0.00  0.00    +0.000 A 
ATOM     24  N   UNL     1      49.153   8.068  17.168  0.00  0.00    +0.000 NA
ATOM     25  C   UNL     1      49.457   8.639  16.051  0.00  0.00    +0.000 A 
ATOM     26  N   UNL     1      49.267   8.077  14.813  0.00  0.00    +0.000 N 
ATOM     27  C   UNL     1      48.776   6.804  14.637  0.00  0.00    +0.000 A 
ATOM     28  O   UNL     1      48.722   6.296  13.521  0.00  0.00    +0.000 OA
ATOM     29  C   UNL     1      48.376   6.136  15.861  0.00  0.00    +0.000 A 
ATOM     30  H   UNL     1      49.549   8.568  13.978  0.00  0.00    +0.000 HD
ENDBRANCH  17  20
ENDBRANCH   1  16
TORSDOF 8
ENDMDL
MODEL 6
REMARK VINA RESULT:    -6.866      3.775      8.186
REMARK INTER + INTRA:         -10.546
REMARK INTER:                  -9.564
REMARK INTRA:                  -0.982
REMARK UNBOUND:                -0.669
REMARK  Name = 
REMARK  8 active torsions:
REMARK  status: ('A' for Active; 'I' for Inactive)
REMARK    1  A    between atoms: N_1  and  C_2
REMARK    2  A    between atoms: C_2  and  C_3
REMARK    3  A    between atoms: C_3  and  N_4
REMARK    4  A    between atoms: N_4  and  C_5
REMARK    5  A    between atoms: C_5  and  C_6
REMARK    6  A    between atoms: C_8  and  C_9
REMARK    7  A    between atoms: C_9  and  N_10
REMARK    8  A    between atoms: C_11  and  C_13
REMARK                            x       y       z     vdW  Elec       q    Type
REMARK                         _______ _______ _______ _____ _____    ______ ____
ROOT
ATOM      1  C   UNL     1      47.165   3.413  16.768  0.00  0.00    +0.000 C 
ENDROOT
BRANCH   1   4
ATOM      2  C   UNL     1      50.806   2.621  17.434  0.00  0.00    +0.000 A 
ATOM      3  C   UNL     1      49.446   2.450  17.184  0.00  0.00    +0.000 A 
ATOM      4  C   UNL     1      48.627   3.575  17.064  0.00  0.00    +0.000 A 
ATOM      5  C   UNL     1      49.211   4.839  17.179  0.00  0.00    +0.000 A 
ATOM      6  C   UNL     1      50.570   4.921  17.434  0.00  0.00    +0.000 A 
ATOM      7  N   UNL     1      51.378   3.846  17.563  0.00  0.00    +0.000 NA
BRANCH   2   8
ATOM      8  C   UNL     1      51.718   1.410  17.477  0.00  0.00    +0.000 C 
BRANCH   8   9
ATOM      9  N   UNL     1      52.814   1.514  18.461  0.00  0.00    +0.000 NA
ATOM     10  H   UNL     1      52.663   2.389  18.970  0.00  0.00    +0.000 HD
BRANCH   9  11
ATOM     11  C   UNL     1      54.134   1.646  17.818  0.00  0.00    +0.000 C 
BRANCH  11  12
ATOM     12  C   UNL     1      54.916   2.899  18.259  0.00  0.00    +0.000 C 
BRANCH  12  13
ATOM     13  N   UNL     1      54.494   4.083  17.501  0.00  0.00    +0.000 NA
ATOM     14  H   UNL     1      53.713   3.824  16.899  0.00  0.00    +0.000 HD
ATOM     15  H   UNL     1      55.252   4.362  16.879  0.00  0.00    +0.000 HD
ENDBRANCH  12  13
ENDBRANCH  11  12
ENDBRANCH   9  11
ENDBRANCH   8   9
ENDBRANCH   2   8
ENDBRANCH   1   4
BRANCH   1  16
ATOM     16  N   UNL     1      46.714   4.373  15.791  0.00  0.00    +0.000 N 
ATOM     17  C   UNL     1      46.753   4.122  14.443  0.00  0.00    +0.000 C 
ATOM     18  O   UNL     1      47.168   3.061  13.986  0.00  0.00    +0.000 OA
ATOM     19  H   UNL     1      46.534   5.314  16.121  0.00  0.00    +0.000 HD
BRANCH  17  20
ATOM     20  C   UNL     1      46.194   5.161  13.565  0.00  0.00    +0.000 A 
ATOM     21  C   UNL     1      46.928   6.315  13.329  0.00  0.00    +0.000 A 
ATOM     22  S   UNL     1      46.173   7.403  12.257  0.00  0.00    +0.000 S 
ATOM     23  C   UNL     1      44.813   6.393  12.106  0.00  0.00    +0.000 A 
ATOM     24  N   UNL     1      43.757   6.760  11.330  0.00  0.00    +0.000 NA
ATOM     25  C   UNL     1      42.776   5.920  11.330  0.00  0.00    +0.000 A 
ATOM     26  N   UNL     1      42.762   4.740  12.030  0.00  0.00    +0.000 N 
ATOM     27  C   UNL     1      43.833   4.297  12.772  0.00  0.00    +0.000 A 
ATOM     28  O   UNL     1      43.825   3.187  13.295  0.00  0.00    +0.000 OA
ATOM     29  C   UNL     1      44.945   5.227  12.841  0.00  0.00    +0.000 A 
ATOM     30  H   UNL     1      41.973   4.115  11.968  0.00  0.00    +0.000 HD
ENDBRANCH  17  20
ENDBRANCH   1  16
TORSDOF 8
ENDMDL
MODEL 7
REMARK VINA RESULT:    -6.637      3.072      8.047
REMARK INTER + INTRA:         -10.216
REMARK INTER:                  -9.462
REMARK INTRA:                  -0.754
REMARK UNBOUND:                -0.669
REMARK  Name = 
REMARK  8 active torsions:
REMARK  status: ('A' for Active; 'I' for Inactive)
REMARK    1  A    between atoms: N_1  and  C_2
REMARK    2  A    between atoms: C_2  and  C_3
REMARK    3  A    between atoms: C_3  and  N_4
REMARK    4  A    between atoms: N_4  and  C_5
REMARK    5  A    between atoms: C_5  and  C_6
REMARK    6  A    between atoms: C_8  and  C_9
REMARK    7  A    between atoms: C_9  and  N_10
REMARK    8  A    between atoms: C_11  and  C_13
REMARK                            x       y       z     vdW  Elec       q    Type
REMARK                         _______ _______ _______ _____ _____    ______ ____
ROOT
ATOM      1  C   UNL     1      47.797   8.078  11.960  0.00  0.00    +0.000 C 
ENDROOT
BRANCH   1   4
ATOM      2  C   UNL     1      49.679   7.322  15.156  0.00  0.00    +0.000 A 
ATOM      3  C   UNL     1      48.644   7.413  14.228  0.00  0.00    +0.000 A 
ATOM      4  C   UNL     1      48.892   7.996  12.984  0.00  0.00    +0.000 A 
ATOM      5  C   UNL     1      50.183   8.451  12.707  0.00  0.00    +0.000 A 
ATOM      6  C   UNL     1      51.154   8.328  13.688  0.00  0.00    +0.000 A 
ATOM      7  N   UNL     1      50.933   7.777  14.901  0.00  0.00    +0.000 NA
BRANCH   2   8
ATOM      8  C   UNL     1      49.443   6.611  16.475  0.00  0.00    +0.000 C 
BRANCH   8   9
ATOM      9  N   UNL     1      49.197   5.161  16.345  0.00  0.00    +0.000 NA
ATOM     10  H   UNL     1      49.100   4.975  15.343  0.00  0.00    +0.000 HD
BRANCH   9  11
ATOM     11  C   UNL     1      47.920   4.752  16.957  0.00  0.00    +0.000 C 
BRANCH  11  12
ATOM     12  C   UNL     1      47.939   3.324  17.535  0.00  0.00    +0.000 C 
BRANCH  12  13
ATOM     13  N   UNL     1      46.577   2.804  17.711  0.00  0.00    +0.000 NA
ATOM     14  H   UNL     1      46.630   1.801  17.883  0.00  0.00    +0.000 HD
ATOM     15  H   UNL     1      46.068   2.916  16.835  0.00  0.00    +0.000 HD
ENDBRANCH  12  13
ENDBRANCH  11  12
ENDBRANCH   9  11
ENDBRANCH   8   9
ENDBRANCH   2   8
ENDBRANCH   1   4
BRANCH   1  16
ATOM     16  N   UNL     1      47.016   6.867  11.923  0.00  0.00    +0.000 N 
ATOM     17  C   UNL     1      45.671   6.868  11.657  0.00  0.00    +0.000 C 
ATOM     18  O   UNL     1      45.049   7.902  11.428  0.00  0.00    +0.000 OA
ATOM     19  H   UNL     1      47.456   6.026  12.279  0.00  0.00    +0.000 HD
BRANCH  17  20
ATOM     20  C   UNL     1      45.015   5.555  11.580  0.00  0.00    +0.000 A 
ATOM     21  C   UNL     1      44.303   5.087  12.677  0.00  0.00    +0.000 A 
ATOM     22  S   UNL     1      43.562   3.574  12.421  0.00  0.00    +0.000 S 
ATOM     23  C   UNL     1      44.205   3.465  10.851  0.00  0.00    +0.000 A 
ATOM     24  N   UNL     1      43.966   2.372  10.075  0.00  0.00    +0.000 NA
ATOM     25  C   UNL     1      44.541   2.400   8.920  0.00  0.00    +0.000 A 
ATOM     26  N   UNL     1      45.327   3.429   8.466  0.00  0.00    +0.000 N 
ATOM     27  C   UNL     1      45.542   4.581   9.188  0.00  0.00    +0.000 A 
ATOM     28  O   UNL     1      46.161   5.524   8.705  0.00  0.00    +0.000 OA
ATOM     29  C   UNL     1      44.953   4.581  10.514  0.00  0.00    +0.000 A 
ATOM     30  H   UNL     1      45.729   3.399   7.541  0.00  0.00    +0.000 HD
ENDBRANCH  17  20
ENDBRANCH   1  16
TORSDOF 8
ENDMDL
MODEL 8
REMARK VINA RESULT:    -6.542      3.826      8.138
REMARK INTER + INTRA:         -10.080
REMARK INTER:                  -9.248
REMARK INTRA:                  -0.832
REMARK UNBOUND:                -0.669
REMARK  Name = 
REMARK  8 active torsions:
REMARK  status: ('A' for Active; 'I' for Inactive)
REMARK    1  A    between atoms: N_1  and  C_2
REMARK    2  A    between atoms: C_2  and  C_3
REMARK    3  A    between atoms: C_3  and  N_4
REMARK    4  A    between atoms: N_4  and  C_5
REMARK    5  A    between atoms: C_5  and  C_6
REMARK    6  A    between atoms: C_8  and  C_9
REMARK    7  A    between atoms: C_9  and  N_10
REMARK    8  A    between atoms: C_11  and  C_13
REMARK                            x       y       z     vdW  Elec       q    Type
REMARK                         _______ _______ _______ _____ _____    ______ ____
ROOT
ATOM      1  C   UNL     1      47.306   3.536  16.626  0.00  0.00    +0.000 C 
ENDROOT
BRANCH   1   4
ATOM      2  C   UNL     1      50.466   5.479  17.379  0.00  0.00    +0.000 A 
ATOM      3  C   UNL     1      49.153   5.192  17.012  0.00  0.00    +0.000 A 
ATOM      4  C   UNL     1      48.724   3.863  16.993  0.00  0.00    +0.000 A 
ATOM      5  C   UNL     1      49.629   2.867  17.366  0.00  0.00    +0.000 A 
ATOM      6  C   UNL     1      50.918   3.237  17.713  0.00  0.00    +0.000 A 
ATOM      7  N   UNL     1      51.357   4.514  17.728  0.00  0.00    +0.000 NA
BRANCH   2   8
ATOM      8  C   UNL     1      50.915   6.924  17.489  0.00  0.00    +0.000 C 
BRANCH   8   9
ATOM      9  N   UNL     1      50.098   7.872  16.706  0.00  0.00    +0.000 NA
ATOM     10  H   UNL     1      50.757   8.462  16.190  0.00  0.00    +0.000 HD
BRANCH   9  11
ATOM     11  C   UNL     1      49.326   8.787  17.564  0.00  0.00    +0.000 C 
BRANCH  11  12
ATOM     12  C   UNL     1      48.490   9.818  16.779  0.00  0.00    +0.000 C 
BRANCH  12  13
ATOM     13  N   UNL     1      47.606   9.158  15.811  0.00  0.00    +0.000 NA
ATOM     14  H   UNL     1      48.003   9.267  14.879  0.00  0.00    +0.000 HD
ATOM     15  H   UNL     1      46.711   9.646  15.799  0.00  0.00    +0.000 HD
ENDBRANCH  12  13
ENDBRANCH  11  12
ENDBRANCH   9  11
ENDBRANCH   8   9
ENDBRANCH   2   8
ENDBRANCH   1   4
BRANCH   1  16
ATOM     16  N   UNL     1      46.772   4.485  15.682  0.00  0.00    +0.000 N 
ATOM     17  C   UNL     1      46.763   4.253  14.331  0.00  0.00    +0.000 C 
ATOM     18  O   UNL     1      47.205   3.216  13.842  0.00  0.00    +0.000 OA
ATOM     19  H   UNL     1      46.564   5.414  16.033  0.00  0.00    +0.000 HD
BRANCH  17  20
ATOM     20  C   UNL     1      46.121   5.275  13.492  0.00  0.00    +0.000 A 
ATOM     21  C   UNL     1      46.793   6.464  13.240  0.00  0.00    +0.000 A 
ATOM     22  S   UNL     1      45.944   7.530  12.217  0.00  0.00    +0.000 S 
ATOM     23  C   UNL     1      44.625   6.462  12.110  0.00  0.00    +0.000 A 
ATOM     24  N   UNL     1      43.521   6.790  11.386  0.00  0.00    +0.000 NA
ATOM     25  C   UNL     1      42.579   5.907  11.416  0.00  0.00    +0.000 A 
ATOM     26  N   UNL     1      42.648   4.719  12.100  0.00  0.00    +0.000 N 
ATOM     27  C   UNL     1      43.769   4.317  12.790  0.00  0.00    +0.000 A 
ATOM     28  O   UNL     1      43.832   3.202  13.297  0.00  0.00    +0.000 OA
ATOM     29  C   UNL     1      44.840   5.294  12.824  0.00  0.00    +0.000 A 
ATOM     30  H   UNL     1      41.885   4.061  12.063  0.00  0.00    +0.000 HD
ENDBRANCH  17  20
ENDBRANCH   1  16
TORSDOF 8
ENDMDL
MODEL 9
REMARK VINA RESULT:    -6.102      1.897      2.479
REMARK INTER + INTRA:          -9.447
REMARK INTER:                  -8.627
REMARK INTRA:                  -0.820
REMARK UNBOUND:                -0.669
REMARK  Name = 
REMARK  8 active torsions:
REMARK  status: ('A' for Active; 'I' for Inactive)
REMARK    1  A    between atoms: N_1  and  C_2
REMARK    2  A    between atoms: C_2  and  C_3
REMARK    3  A    between atoms: C_3  and  N_4
REMARK    4  A    between atoms: N_4  and  C_5
REMARK    5  A    between atoms: C_5  and  C_6
REMARK    6  A    between atoms: C_8  and  C_9
REMARK    7  A    between atoms: C_9  and  N_10
REMARK    8  A    between atoms: C_11  and  C_13
REMARK                            x       y       z     vdW  Elec       q    Type
REMARK                         _______ _______ _______ _____ _____    ______ ____
ROOT
ATOM      1  C   UNL     1      46.441   4.017  13.644  0.00  0.00    +0.000 C 
ENDROOT
BRANCH   1   4
ATOM      2  C   UNL     1      44.471   4.569  10.459  0.00  0.00    +0.000 A 
ATOM      3  C   UNL     1      45.487   4.175  11.326  0.00  0.00    +0.000 A 
ATOM      4  C   UNL     1      45.370   4.458  12.689  0.00  0.00    +0.000 A 
ATOM      5  C   UNL     1      44.220   5.113  13.136  0.00  0.00    +0.000 A 
ATOM      6  C   UNL     1      43.260   5.475  12.206  0.00  0.00    +0.000 A 
ATOM      7  N   UNL     1      43.357   5.220  10.884  0.00  0.00    +0.000 NA
BRANCH   2   8
ATOM      8  C   UNL     1      44.547   4.188   8.993  0.00  0.00    +0.000 C 
BRANCH   8   9
ATOM      9  N   UNL     1      45.033   2.815   8.749  0.00  0.00    +0.000 NA
ATOM     10  H   UNL     1      45.487   2.513   9.615  0.00  0.00    +0.000 HD
BRANCH   9  11
ATOM     11  C   UNL     1      46.076   2.766   7.710  0.00  0.00    +0.000 C 
BRANCH  11  12
ATOM     12  C   UNL     1      46.804   1.410   7.624  0.00  0.00    +0.000 C 
BRANCH  12  13
ATOM     13  N   UNL     1      48.036   1.518   6.833  0.00  0.00    +0.000 NA
ATOM     14  H   UNL     1      48.777   1.885   7.430  0.00  0.00    +0.000 HD
ATOM     15  H   UNL     1      47.894   2.209   6.097  0.00  0.00    +0.000 HD
ENDBRANCH  12  13
ENDBRANCH  11  12
ENDBRANCH   9  11
ENDBRANCH   8   9
ENDBRANCH   2   8
ENDBRANCH   1   4
BRANCH   1  16
ATOM     16  N   UNL     1      46.957   5.126  14.407  0.00  0.00    +0.000 N 
ATOM     17  C   UNL     1      47.943   5.951  13.930  0.00  0.00    +0.000 C 
ATOM     18  O   UNL     1      48.444   5.799  12.818  0.00  0.00    +0.000 OA
ATOM     19  H   UNL     1      46.695   5.172  15.385  0.00  0.00    +0.000 HD
BRANCH  17  20
ATOM     20  C   UNL     1      48.322   7.085  14.785  0.00  0.00    +0.000 A 
ATOM     21  C   UNL     1      48.061   8.378  14.350  0.00  0.00    +0.000 A 
ATOM     22  S   UNL     1      48.514   9.583  15.467  0.00  0.00    +0.000 S 
ATOM     23  C   UNL     1      49.119   8.424  16.554  0.00  0.00    +0.000 A 
ATOM     24  N   UNL     1      49.687   8.803  17.731  0.00  0.00    +0.000 NA
ATOM     25  C   UNL     1      50.137   7.827  18.447  0.00  0.00    +0.000 A 
ATOM     26  N   UNL     1      50.061   6.503  18.094  0.00  0.00    +0.000 N 
ATOM     27  C   UNL     1      49.438   6.069  16.946  0.00  0.00    +0.000 A 
ATOM     28  O   UNL     1      49.294   4.873  16.718  0.00  0.00    +0.000 OA
ATOM     29  C   UNL     1      48.953   7.131  16.084  0.00  0.00    +0.000 A 
ATOM     30  H   UNL     1      50.412   5.787  18.711  0.00  0.00    +0.000 HD
ENDBRANCH  17  20
ENDBRANCH   1  16
TORSDOF 8
ENDMDL
