MODEL 1
REMARK VINA RESULT:    -8.666      0.000      0.000
REMARK INTER + INTRA:         -12.448
REMARK INTER:                 -11.706
REMARK INTRA:                  -0.742
REMARK UNBOUND:                -0.742
REMARK  Name = 
REMARK  6 active torsions:
REMARK  status: ('A' for Active; 'I' for Inactive)
REMARK    1  A    between atoms: C_2  and  C_4
REMARK    2  A    between atoms: C_7  and  S_8
REMARK    3  A    between atoms: S_8  and  C_9
REMARK    4  A    between atoms: C_9  and  C_10
REMARK    5  A    between atoms: C_10  and  C_11
REMARK    6  A    between atoms: C_15  and  C_16
REMARK                            x       y       z     vdW  Elec       q    Type
REMARK                         _______ _______ _______ _____ _____    ______ ____
ROOT
ATOM      1  C   UNL     1      44.480   7.386  11.368  0.00  0.00    +0.000 C 
ENDROOT
BRANCH   1   2
ATOM      2  C   UNL     1      44.261   5.925  11.052  0.00  0.00    +0.000 A 
ATOM      3  C   UNL     1      43.269   5.190  11.686  0.00  0.00    +0.000 A 
ATOM      4  N   UNL     1      43.023   3.892  11.446  0.00  0.00    +0.000 NA
ATOM      5  C   UNL     1      43.788   3.291  10.504  0.00  0.00    +0.000 A 
ATOM      6  C   UNL     1      44.806   3.912   9.776  0.00  0.00    +0.000 A 
ATOM      7  C   UNL     1      45.030   5.265  10.080  0.00  0.00    +0.000 A 
BRANCH   6   8
ATOM      8  C   UNL     1      45.571   3.187   8.736  0.00  0.00    +0.000 A 
ATOM      9  C   UNL     1      46.226   3.880   7.693  0.00  0.00    +0.000 A 
ATOM     10  C   UNL     1      47.004   3.210   6.743  0.00  0.00    +0.000 A 
ATOM     11  C   UNL     1      47.123   1.829   6.810  0.00  0.00    +0.000 A 
ATOM     12  F   UNL     1      47.878   1.191   5.905  0.00  0.00    +0.000 F 
ATOM     13  C   UNL     1      46.472   1.122   7.806  0.00  0.00    +0.000 A 
ATOM     14  F   UNL     1      46.585  -0.211   7.870  0.00  0.00    +0.000 F 
ATOM     15  C   UNL     1      45.705   1.788   8.763  0.00  0.00    +0.000 A 
ENDBRANCH   6   8
ENDBRANCH   1   2
BRANCH   1  16
ATOM     16  C   UNL     1      45.282   7.598  12.658  0.00  0.00    +0.000 C 
BRANCH  16  17
ATOM     17  S   UNL     1      47.008   7.050  12.421  0.00  0.00    +0.000 S 
BRANCH  17  21
ATOM     18  C   UNL     1      47.560   4.105  15.836  0.00  0.00    +0.000 A 
ATOM     19  C   UNL     1      48.194   5.334  15.965  0.00  0.00    +0.000 A 
ATOM     20  C   UNL     1      48.063   6.267  14.933  0.00  0.00    +0.000 A 
ATOM     21  C   UNL     1      47.301   5.961  13.805  0.00  0.00    +0.000 A 
ATOM     22  C   UNL     1      46.717   4.691  13.773  0.00  0.00    +0.000 A 
ATOM     23  N   UNL     1      46.824   3.753  14.750  0.00  0.00    +0.000 NA
BRANCH  18  25
ATOM     24  N   UNL     1      48.916   2.582  17.152  0.00  0.00    +0.000 N 
ATOM     25  C   UNL     1      47.667   3.099  16.939  0.00  0.00    +0.000 C 
ATOM     26  O   UNL     1      46.706   2.756  17.616  0.00  0.00    +0.000 OA
ATOM     27  H   UNL     1      49.061   1.936  17.913  0.00  0.00    +0.000 HD
ATOM     28  H   UNL     1      49.704   2.940  16.623  0.00  0.00    +0.000 HD
ENDBRANCH  18  25
ENDBRANCH  17  21
ENDBRANCH  16  17
ENDBRANCH   1  16
TORSDOF 6
ENDMDL
MODEL 2
REMARK VINA RESULT:    -8.205      4.525      8.226
REMARK INTER + INTRA:         -11.825
REMARK INTER:                 -11.198
REMARK INTRA:                  -0.627
REMARK UNBOUND:                -0.742
REMARK  Name = 
REMARK  6 active torsions:
REMARK  status: ('A' for Active; 'I' for Inactive)
REMARK    1  A    between atoms: C_2  and  C_4
REMARK    2  A    between atoms: C_7  and  S_8
REMARK    3  A    between atoms: S_8  and  C_9
REMARK    4  A    between atoms: C_9  and  C_10
REMARK    5  A    between atoms: C_10  and  C_11
REMARK    6  A    between atoms: C_15  and  C_16
REMARK                            x       y       z     vdW  Elec       q    Type
REMARK                         _______ _______ _______ _____ _____    ______ ____
ROOT
ATOM      1  C   UNL     1      45.889   6.191  11.338  0.00  0.00    +0.000 C 
ENDROOT
BRANCH   1   2
ATOM      2  C   UNL     1      46.983   6.503  12.331  0.00  0.00    +0.000 A 
ATOM      3  C   UNL     1      47.919   7.498  12.084  0.00  0.00    +0.000 A 
ATOM      4  N   UNL     1      48.911   7.825  12.929  0.00  0.00    +0.000 NA
ATOM      5  C   UNL     1      48.967   7.141  14.096  0.00  0.00    +0.000 A 
ATOM      6  C   UNL     1      48.083   6.130  14.482  0.00  0.00    +0.000 A 
ATOM      7  C   UNL     1      47.075   5.820  13.554  0.00  0.00    +0.000 A 
BRANCH   6   8
ATOM      8  C   UNL     1      48.196   5.459  15.797  0.00  0.00    +0.000 A 
ATOM      9  C   UNL     1      48.988   6.006  16.831  0.00  0.00    +0.000 A 
ATOM     10  C   UNL     1      49.051   5.415  18.098  0.00  0.00    +0.000 A 
ATOM     11  C   UNL     1      48.335   4.252  18.344  0.00  0.00    +0.000 A 
ATOM     12  F   UNL     1      48.388   3.693  19.561  0.00  0.00    +0.000 F 
ATOM     13  C   UNL     1      47.571   3.680  17.341  0.00  0.00    +0.000 A 
ATOM     14  F   UNL     1      46.881   2.556  17.577  0.00  0.00    +0.000 F 
ATOM     15  C   UNL     1      47.496   4.274  16.080  0.00  0.00    +0.000 A 
ENDBRANCH   6   8
ENDBRANCH   1   2
BRANCH   1  16
ATOM     16  C   UNL     1      44.847   5.212  11.892  0.00  0.00    +0.000 C 
BRANCH  16  17
ATOM     17  S   UNL     1      43.717   4.678  10.560  0.00  0.00    +0.000 S 
BRANCH  17  21
ATOM     18  C   UNL     1      46.405   2.261   7.808  0.00  0.00    +0.000 A 
ATOM     19  C   UNL     1      46.349   3.630   7.578  0.00  0.00    +0.000 A 
ATOM     20  C   UNL     1      45.525   4.412   8.393  0.00  0.00    +0.000 A 
ATOM     21  C   UNL     1      44.786   3.819   9.416  0.00  0.00    +0.000 A 
ATOM     22  C   UNL     1      44.907   2.432   9.551  0.00  0.00    +0.000 A 
ATOM     23  N   UNL     1      45.690   1.634   8.779  0.00  0.00    +0.000 NA
BRANCH  18  25
ATOM     24  N   UNL     1      48.315   2.062   6.324  0.00  0.00    +0.000 N 
ATOM     25  C   UNL     1      47.299   1.406   6.964  0.00  0.00    +0.000 C 
ATOM     26  O   UNL     1      47.141   0.198   6.851  0.00  0.00    +0.000 OA
ATOM     27  H   UNL     1      48.980   1.532   5.780  0.00  0.00    +0.000 HD
ATOM     28  H   UNL     1      48.462   3.050   6.497  0.00  0.00    +0.000 HD
ENDBRANCH  18  25
ENDBRANCH  17  21
ENDBRANCH  16  17
ENDBRANCH   1  16
TORSDOF 6
ENDMDL
MODEL 3
REMARK VINA RESULT:    -7.945      4.808      7.614
REMARK INTER + INTRA:         -11.473
REMARK INTER:                 -10.659
REMARK INTRA:                  -0.815
REMARK UNBOUND:                -0.742
REMARK  Name = 
REMARK  6 active torsions:
REMARK  status: ('A' for Active; 'I' for Inactive)
REMARK    1  A    between atoms: C_2  and  C_4
REMARK    2  A    between atoms: C_7  and  S_8
REMARK    3  A    between atoms: S_8  and  C_9
REMARK    4  A    between atoms: C_9  and  C_10
REMARK    5  A    between atoms: C_10  and  C_11
REMARK    6  A    between atoms: C_15  and  C_16
REMARK                            x       y       z     vdW  Elec       q    Type
REMARK                         _______ _______ _______ _____ _____    ______ ____
ROOT
ATOM      1  C   UNL     1      43.449   5.182  12.761  0.00  0.00    +0.000 C 
ENDROOT
BRANCH   1   2
ATOM      2  C   UNL     1      44.917   5.450  12.996  0.00  0.00    +0.000 A 
ATOM      3  C   UNL     1      45.722   4.531  13.655  0.00  0.00    +0.000 A 
ATOM      4  N   UNL     1      47.033   4.710  13.890  0.00  0.00    +0.000 NA
ATOM      5  C   UNL     1      47.584   5.855  13.425  0.00  0.00    +0.000 A 
ATOM      6  C   UNL     1      46.900   6.856  12.731  0.00  0.00    +0.000 A 
ATOM      7  C   UNL     1      45.529   6.623  12.528  0.00  0.00    +0.000 A 
BRANCH   6   8
ATOM      8  C   UNL     1      47.592   8.063  12.225  0.00  0.00    +0.000 A 
ATOM      9  C   UNL     1      46.907   9.290  12.075  0.00  0.00    +0.000 A 
ATOM     10  C   UNL     1      47.566  10.452  11.659  0.00  0.00    +0.000 A 
ATOM     11  C   UNL     1      48.921  10.399  11.367  0.00  0.00    +0.000 A 
ATOM     12  F   UNL     1      49.553  11.516  10.979  0.00  0.00    +0.000 F 
ATOM     13  C   UNL     1      49.612   9.205  11.480  0.00  0.00    +0.000 A 
ATOM     14  F   UNL     1      50.920   9.153  11.195  0.00  0.00    +0.000 F 
ATOM     15  C   UNL     1      48.961   8.047  11.906  0.00  0.00    +0.000 A 
ENDBRANCH   6   8
ENDBRANCH   1   2
BRANCH   1  16
ATOM     16  C   UNL     1      43.157   4.693  11.338  0.00  0.00    +0.000 C 
BRANCH  16  17
ATOM     17  S   UNL     1      43.748   2.977  11.131  0.00  0.00    +0.000 S 
BRANCH  17  21
ATOM     18  C   UNL     1      46.358   2.883   7.415  0.00  0.00    +0.000 A 
ATOM     19  C   UNL     1      45.995   4.137   7.888  0.00  0.00    +0.000 A 
ATOM     20  C   UNL     1      45.181   4.215   9.022  0.00  0.00    +0.000 A 
ATOM     21  C   UNL     1      44.757   3.049   9.660  0.00  0.00    +0.000 A 
ATOM     22  C   UNL     1      45.171   1.840   9.092  0.00  0.00    +0.000 A 
ATOM     23  N   UNL     1      45.954   1.720   7.989  0.00  0.00    +0.000 NA
BRANCH  18  25
ATOM     24  N   UNL     1      48.561   2.490   6.474  0.00  0.00    +0.000 N 
ATOM     25  C   UNL     1      47.247   2.776   6.215  0.00  0.00    +0.000 C 
ATOM     26  O   UNL     1      46.835   2.927   5.073  0.00  0.00    +0.000 OA
ATOM     27  H   UNL     1      49.198   2.356   5.703  0.00  0.00    +0.000 HD
ATOM     28  H   UNL     1      48.854   2.298   7.425  0.00  0.00    +0.000 HD
ENDBRANCH  18  25
ENDBRANCH  17  21
ENDBRANCH  16  17
ENDBRANCH   1  16
TORSDOF 6
ENDMDL
MODEL 4
REMARK VINA RESULT:    -7.896      4.668      7.593
REMARK INTER + INTRA:         -11.407
REMARK INTER:                 -10.734
REMARK INTRA:                  -0.673
REMARK UNBOUND:                -0.742
REMARK  Name = 
REMARK  6 active torsions:
REMARK  status: ('A' for Active; 'I' for Inactive)
REMARK    1  A    between atoms: C_2  and  C_4
REMARK    2  A    between atoms: C_7  and  S_8
REMARK    3  A    between atoms: S_8  and  C_9
REMARK    4  A    between atoms: C_9  and  C_10
REMARK    5  A    between atoms: C_10  and  C_11
REMARK    6  A    between atoms: C_15  and  C_16
REMARK                            x       y       z     vdW  Elec       q    Type
REMARK                         _______ _______ _______ _____ _____    ______ ____
ROOT
ATOM      1  C   UNL     1      45.374   3.725  12.354  0.00  0.00    +0.000 C 
ENDROOT
BRANCH   1   2
ATOM      2  C   UNL     1      46.341   4.667  13.031  0.00  0.00    +0.000 A 
ATOM      3  C   UNL     1      46.835   4.404  14.302  0.00  0.00    +0.000 A 
ATOM      4  N   UNL     1      47.700   5.199  14.954  0.00  0.00    +0.000 NA
ATOM      5  C   UNL     1      48.119   6.308  14.300  0.00  0.00    +0.000 A 
ATOM      6  C   UNL     1      47.720   6.686  13.015  0.00  0.00    +0.000 A 
ATOM      7  C   UNL     1      46.804   5.826  12.388  0.00  0.00    +0.000 A 
BRANCH   6   8
ATOM      8  C   UNL     1      48.259   7.899  12.360  0.00  0.00    +0.000 A 
ATOM      9  C   UNL     1      47.481   9.073  12.242  0.00  0.00    +0.000 A 
ATOM     10  C   UNL     1      48.001  10.245  11.683  0.00  0.00    +0.000 A 
ATOM     11  C   UNL     1      49.307  10.255  11.214  0.00  0.00    +0.000 A 
ATOM     12  F   UNL     1      49.808  11.382  10.689  0.00  0.00    +0.000 F 
ATOM     13  C   UNL     1      50.084   9.112  11.294  0.00  0.00    +0.000 A 
ATOM     14  F   UNL     1      51.344   9.120  10.839  0.00  0.00    +0.000 F 
ATOM     15  C   UNL     1      49.572   7.945  11.862  0.00  0.00    +0.000 A 
ENDBRANCH   6   8
ENDBRANCH   1   2
BRANCH   1  16
ATOM     16  C   UNL     1      43.945   4.280  12.305  0.00  0.00    +0.000 C 
BRANCH  16  17
ATOM     17  S   UNL     1      43.538   4.812  10.606  0.00  0.00    +0.000 S 
BRANCH  17  21
ATOM     18  C   UNL     1      46.342   2.516   7.867  0.00  0.00    +0.000 A 
ATOM     19  C   UNL     1      45.486   1.759   8.656  0.00  0.00    +0.000 A 
ATOM     20  C   UNL     1      44.613   2.423   9.524  0.00  0.00    +0.000 A 
ATOM     21  C   UNL     1      44.608   3.817   9.580  0.00  0.00    +0.000 A 
ATOM     22  C   UNL     1      45.520   4.478   8.752  0.00  0.00    +0.000 A 
ATOM     23  N   UNL     1      46.388   3.873   7.900  0.00  0.00    +0.000 NA
BRANCH  18  25
ATOM     24  N   UNL     1      48.302   2.590   6.437  0.00  0.00    +0.000 N 
ATOM     25  C   UNL     1      47.269   1.828   6.913  0.00  0.00    +0.000 C 
ATOM     26  O   UNL     1      47.123   0.660   6.578  0.00  0.00    +0.000 OA
ATOM     27  H   UNL     1      48.988   2.167   5.829  0.00  0.00    +0.000 HD
ATOM     28  H   UNL     1      48.437   3.530   6.790  0.00  0.00    +0.000 HD
ENDBRANCH  18  25
ENDBRANCH  17  21
ENDBRANCH  16  17
ENDBRANCH   1  16
TORSDOF 6
ENDMDL
MODEL 5
REMARK VINA RESULT:    -7.769      4.921      8.653
REMARK INTER + INTRA:         -11.235
REMARK INTER:                 -10.749
REMARK INTRA:                  -0.486
REMARK UNBOUND:                -0.742
REMARK  Name = 
REMARK  6 active torsions:
REMARK  status: ('A' for Active; 'I' for Inactive)
REMARK    1  A    between atoms: C_2  and  C_4
REMARK    2  A    between atoms: C_7  and  S_8
REMARK    3  A    between atoms: S_8  and  C_9
REMARK    4  A    between atoms: C_9  and  C_10
REMARK    5  A    between atoms: C_10  and  C_11
REMARK    6  A    between atoms: C_15  and  C_16
REMARK                            x       y       z     vdW  Elec       q    Type
REMARK                         _______ _______ _______ _____ _____    ______ ____
ROOT
ATOM      1  C   UNL     1      45.311   3.295  12.295  0.00  0.00    +0.000 C 
ENDROOT
BRANCH   1   2
ATOM      2  C   UNL     1      46.176   4.318  12.993  0.00  0.00    +0.000 A 
ATOM      3  C   UNL     1      46.489   5.529  12.392  0.00  0.00    +0.000 A 
ATOM      4  N   UNL     1      47.248   6.479  12.962  0.00  0.00    +0.000 NA
ATOM      5  C   UNL     1      47.704   6.226  14.212  0.00  0.00    +0.000 A 
ATOM      6  C   UNL     1      47.452   5.061  14.941  0.00  0.00    +0.000 A 
ATOM      7  C   UNL     1      46.667   4.096  14.290  0.00  0.00    +0.000 A 
BRANCH   6   8
ATOM      8  C   UNL     1      47.962   4.883  16.320  0.00  0.00    +0.000 A 
ATOM      9  C   UNL     1      47.732   3.686  17.035  0.00  0.00    +0.000 A 
ATOM     10  C   UNL     1      48.264   3.482  18.313  0.00  0.00    +0.000 A 
ATOM     11  C   UNL     1      49.020   4.484  18.905  0.00  0.00    +0.000 A 
ATOM     12  F   UNL     1      49.537   4.281  20.125  0.00  0.00    +0.000 F 
ATOM     13  C   UNL     1      49.239   5.676  18.238  0.00  0.00    +0.000 A 
ATOM     14  F   UNL     1      49.967   6.645  18.810  0.00  0.00    +0.000 F 
ATOM     15  C   UNL     1      48.721   5.879  16.958  0.00  0.00    +0.000 A 
ENDBRANCH   6   8
ENDBRANCH   1   2
BRANCH   1  16
ATOM     16  C   UNL     1      43.833   3.698  12.253  0.00  0.00    +0.000 C 
BRANCH  16  17
ATOM     17  S   UNL     1      43.443   4.485  10.652  0.00  0.00    +0.000 S 
BRANCH  17  21
ATOM     18  C   UNL     1      46.438   2.841   7.659  0.00  0.00    +0.000 A 
ATOM     19  C   UNL     1      45.702   1.909   8.378  0.00  0.00    +0.000 A 
ATOM     20  C   UNL     1      44.777   2.369   9.320  0.00  0.00    +0.000 A 
ATOM     21  C   UNL     1      44.601   3.738   9.517  0.00  0.00    +0.000 A 
ATOM     22  C   UNL     1      45.403   4.588   8.749  0.00  0.00    +0.000 A 
ATOM     23  N   UNL     1      46.318   4.184   7.829  0.00  0.00    +0.000 NA
BRANCH  18  25
ATOM     24  N   UNL     1      47.434   3.084   5.459  0.00  0.00    +0.000 N 
ATOM     25  C   UNL     1      47.418   2.373   6.628  0.00  0.00    +0.000 C 
ATOM     26  O   UNL     1      48.165   1.421   6.813  0.00  0.00    +0.000 OA
ATOM     27  H   UNL     1      48.108   2.846   4.746  0.00  0.00    +0.000 HD
ATOM     28  H   UNL     1      46.856   3.911   5.366  0.00  0.00    +0.000 HD
ENDBRANCH  18  25
ENDBRANCH  17  21
ENDBRANCH  16  17
ENDBRANCH   1  16
TORSDOF 6
ENDMDL
MODEL 6
REMARK VINA RESULT:    -7.517      4.969      7.746
REMARK INTER + INTRA:         -10.895
REMARK INTER:                 -10.459
REMARK INTRA:                  -0.436
REMARK UNBOUND:                -0.742
REMARK  Name = 
REMARK  6 active torsions:
REMARK  status: ('A' for Active; 'I' for Inactive)
REMARK    1  A    between atoms: C_2  and  C_4
REMARK    2  A    between atoms: C_7  and  S_8
REMARK    3  A    between atoms: S_8  and  C_9
REMARK    4  A    between atoms: C_9  and  C_10
REMARK    5  A    between atoms: C_10  and  C_11
REMARK    6  A    between atoms: C_15  and  C_16
REMARK                            x       y       z     vdW  Elec       q    Type
REMARK                         _______ _______ _______ _____ _____    ______ ____
ROOT
ATOM      1  C   UNL     1      45.477   3.802  12.475  0.00  0.00    +0.000 C 
ENDROOT
BRANCH   1   2
ATOM      2  C   UNL     1      45.847   5.261  12.596  0.00  0.00    +0.000 A 
ATOM      3  C   UNL     1      44.879   6.238  12.789  0.00  0.00    +0.000 A 
ATOM      4  N   UNL     1      45.146   7.549  12.908  0.00  0.00    +0.000 NA
ATOM      5  C   UNL     1      46.449   7.912  12.857  0.00  0.00    +0.000 A 
ATOM      6  C   UNL     1      47.525   7.037  12.686  0.00  0.00    +0.000 A 
ATOM      7  C   UNL     1      47.186   5.681  12.551  0.00  0.00    +0.000 A 
BRANCH   6   8
ATOM      8  C   UNL     1      48.925   7.519  12.679  0.00  0.00    +0.000 A 
ATOM      9  C   UNL     1      49.592   7.809  11.468  0.00  0.00    +0.000 A 
ATOM     10  C   UNL     1      50.892   8.326  11.452  0.00  0.00    +0.000 A 
ATOM     11  C   UNL     1      51.555   8.541  12.652  0.00  0.00    +0.000 A 
ATOM     12  F   UNL     1      52.796   9.046  12.635  0.00  0.00    +0.000 F 
ATOM     13  C   UNL     1      50.935   8.241  13.853  0.00  0.00    +0.000 A 
ATOM     14  F   UNL     1      51.574   8.447  15.011  0.00  0.00    +0.000 F 
ATOM     15  C   UNL     1      49.633   7.738  13.873  0.00  0.00    +0.000 A 
ENDBRANCH   6   8
ENDBRANCH   1   2
BRANCH   1  16
ATOM     16  C   UNL     1      43.989   3.592  12.170  0.00  0.00    +0.000 C 
BRANCH  16  17
ATOM     17  S   UNL     1      43.570   4.329  10.552  0.00  0.00    +0.000 S 
BRANCH  17  21
ATOM     18  C   UNL     1      46.549   2.652   7.560  0.00  0.00    +0.000 A 
ATOM     19  C   UNL     1      45.915   1.734   8.388  0.00  0.00    +0.000 A 
ATOM     20  C   UNL     1      44.999   2.206   9.333  0.00  0.00    +0.000 A 
ATOM     21  C   UNL     1      44.732   3.572   9.427  0.00  0.00    +0.000 A 
ATOM     22  C   UNL     1      45.435   4.407   8.554  0.00  0.00    +0.000 A 
ATOM     23  N   UNL     1      46.337   3.992   7.626  0.00  0.00    +0.000 NA
BRANCH  18  25
ATOM     24  N   UNL     1      47.820   3.060   5.533  0.00  0.00    +0.000 N 
ATOM     25  C   UNL     1      47.516   2.168   6.525  0.00  0.00    +0.000 C 
ATOM     26  O   UNL     1      48.012   1.049   6.557  0.00  0.00    +0.000 OA
ATOM     27  H   UNL     1      48.503   2.809   4.834  0.00  0.00    +0.000 HD
ATOM     28  H   UNL     1      47.449   4.003   5.576  0.00  0.00    +0.000 HD
ENDBRANCH  18  25
ENDBRANCH  17  21
ENDBRANCH  16  17
ENDBRANCH   1  16
TORSDOF 6
ENDMDL
MODEL 7
REMARK VINA RESULT:    -7.427      2.403      3.564
REMARK INTER + INTRA:         -10.773
REMARK INTER:                  -9.868
REMARK INTRA:                  -0.906
REMARK UNBOUND:                -0.742
REMARK  Name = 
REMARK  6 active torsions:
REMARK  status: ('A' for Active; 'I' for Inactive)
REMARK    1  A    between atoms: C_2  and  C_4
REMARK    2  A    between atoms: C_7  and  S_8
REMARK    3  A    between atoms: S_8  and  C_9
REMARK    4  A    between atoms: C_9  and  C_10
REMARK    5  A    between atoms: C_10  and  C_11
REMARK    6  A    between atoms: C_15  and  C_16
REMARK                            x       y       z     vdW  Elec       q    Type
REMARK                         _______ _______ _______ _____ _____    ______ ____
ROOT
ATOM      1  C   UNL     1      49.025   8.534  12.168  0.00  0.00    +0.000 C 
ENDROOT
BRANCH   1   2
ATOM      2  C   UNL     1      47.576   8.110  12.154  0.00  0.00    +0.000 A 
ATOM      3  C   UNL     1      46.595   8.873  12.772  0.00  0.00    +0.000 A 
ATOM      4  N   UNL     1      45.290   8.552  12.790  0.00  0.00    +0.000 NA
ATOM      5  C   UNL     1      44.933   7.421  12.138  0.00  0.00    +0.000 A 
ATOM      6  C   UNL     1      45.808   6.570  11.459  0.00  0.00    +0.000 A 
ATOM      7  C   UNL     1      47.161   6.946  11.487  0.00  0.00    +0.000 A 
BRANCH   6   8
ATOM      8  C   UNL     1      45.324   5.370  10.740  0.00  0.00    +0.000 A 
ATOM      9  C   UNL     1      45.662   5.143   9.387  0.00  0.00    +0.000 A 
ATOM     10  C   UNL     1      45.265   3.982   8.716  0.00  0.00    +0.000 A 
ATOM     11  C   UNL     1      44.502   3.035   9.386  0.00  0.00    +0.000 A 
ATOM     12  F   UNL     1      44.131   1.917   8.745  0.00  0.00    +0.000 F 
ATOM     13  C   UNL     1      44.135   3.243  10.704  0.00  0.00    +0.000 A 
ATOM     14  F   UNL     1      43.398   2.331  11.351  0.00  0.00    +0.000 F 
ATOM     15  C   UNL     1      44.541   4.395  11.380  0.00  0.00    +0.000 A 
ENDBRANCH   6   8
ENDBRANCH   1   2
BRANCH   1  16
ATOM     16  C   UNL     1      49.908   7.597  13.002  0.00  0.00    +0.000 C 
BRANCH  16  17
ATOM     17  S   UNL     1      50.017   8.204  14.722  0.00  0.00    +0.000 S 
BRANCH  17  21
ATOM     18  C   UNL     1      48.281   4.685  17.010  0.00  0.00    +0.000 A 
ATOM     19  C   UNL     1      49.290   5.400  17.641  0.00  0.00    +0.000 A 
ATOM     20  C   UNL     1      49.863   6.484  16.969  0.00  0.00    +0.000 A 
ATOM     21  C   UNL     1      49.416   6.834  15.695  0.00  0.00    +0.000 A 
ATOM     22  C   UNL     1      48.404   6.038  15.149  0.00  0.00    +0.000 A 
ATOM     23  N   UNL     1      47.824   4.974  15.763  0.00  0.00    +0.000 NA
BRANCH  18  25
ATOM     24  N   UNL     1      48.297   3.073  18.825  0.00  0.00    +0.000 N 
ATOM     25  C   UNL     1      47.636   3.535  17.719  0.00  0.00    +0.000 C 
ATOM     26  O   UNL     1      46.583   3.036  17.344  0.00  0.00    +0.000 OA
ATOM     27  H   UNL     1      47.886   2.332  19.373  0.00  0.00    +0.000 HD
ATOM     28  H   UNL     1      49.127   3.555  19.150  0.00  0.00    +0.000 HD
ENDBRANCH  18  25
ENDBRANCH  17  21
ENDBRANCH  16  17
ENDBRANCH   1  16
TORSDOF 6
ENDMDL
MODEL 8
REMARK VINA RESULT:    -7.409      4.831      7.371
REMARK INTER + INTRA:         -10.749
REMARK INTER:                  -9.948
REMARK INTRA:                  -0.801
REMARK UNBOUND:                -0.742
REMARK  Name = 
REMARK  6 active torsions:
REMARK  status: ('A' for Active; 'I' for Inactive)
REMARK    1  A    between atoms: C_2  and  C_4
REMARK    2  A    between atoms: C_7  and  S_8
REMARK    3  A    between atoms: S_8  and  C_9
REMARK    4  A    between atoms: C_9  and  C_10
REMARK    5  A    between atoms: C_10  and  C_11
REMARK    6  A    between atoms: C_15  and  C_16
REMARK                            x       y       z     vdW  Elec       q    Type
REMARK                         _______ _______ _______ _____ _____    ______ ____
ROOT
ATOM      1  C   UNL     1      45.684   5.055  12.363  0.00  0.00    +0.000 C 
ENDROOT
BRANCH   1   2
ATOM      2  C   UNL     1      46.165   6.487  12.372  0.00  0.00    +0.000 A 
ATOM      3  C   UNL     1      45.350   7.519  12.816  0.00  0.00    +0.000 A 
ATOM      4  N   UNL     1      45.722   8.810  12.852  0.00  0.00    +0.000 NA
ATOM      5  C   UNL     1      46.982   9.092  12.445  0.00  0.00    +0.000 A 
ATOM      6  C   UNL     1      47.913   8.154  11.992  0.00  0.00    +0.000 A 
ATOM      7  C   UNL     1      47.465   6.823  11.962  0.00  0.00    +0.000 A 
BRANCH   6   8
ATOM      8  C   UNL     1      49.285   8.547  11.601  0.00  0.00    +0.000 A 
ATOM      9  C   UNL     1      49.705   9.895  11.663  0.00  0.00    +0.000 A 
ATOM     10  C   UNL     1      51.018  10.269  11.358  0.00  0.00    +0.000 A 
ATOM     11  C   UNL     1      51.929   9.298  10.964  0.00  0.00    +0.000 A 
ATOM     12  F   UNL     1      53.190   9.657  10.682  0.00  0.00    +0.000 F 
ATOM     13  C   UNL     1      51.538   7.974  10.870  0.00  0.00    +0.000 A 
ATOM     14  F   UNL     1      52.416   7.038  10.488  0.00  0.00    +0.000 F 
ATOM     15  C   UNL     1      50.233   7.596  11.185  0.00  0.00    +0.000 A 
ENDBRANCH   6   8
ENDBRANCH   1   2
BRANCH   1  16
ATOM     16  C   UNL     1      44.169   4.938  12.569  0.00  0.00    +0.000 C 
BRANCH  16  17
ATOM     17  S   UNL     1      43.310   5.015  10.959  0.00  0.00    +0.000 S 
BRANCH  17  21
ATOM     18  C   UNL     1      45.867   2.308   8.357  0.00  0.00    +0.000 A 
ATOM     19  C   UNL     1      46.021   3.676   8.171  0.00  0.00    +0.000 A 
ATOM     20  C   UNL     1      45.245   4.548   8.941  0.00  0.00    +0.000 A 
ATOM     21  C   UNL     1      44.345   4.041   9.878  0.00  0.00    +0.000 A 
ATOM     22  C   UNL     1      44.261   2.648   9.974  0.00  0.00    +0.000 A 
ATOM     23  N   UNL     1      44.990   1.766   9.242  0.00  0.00    +0.000 NA
BRANCH  18  25
ATOM     24  N   UNL     1      47.388   1.904   6.510  0.00  0.00    +0.000 N 
ATOM     25  C   UNL     1      46.703   1.356   7.560  0.00  0.00    +0.000 C 
ATOM     26  O   UNL     1      46.779   0.163   7.826  0.00  0.00    +0.000 OA
ATOM     27  H   UNL     1      48.007   1.321   5.966  0.00  0.00    +0.000 HD
ATOM     28  H   UNL     1      47.362   2.906   6.361  0.00  0.00    +0.000 HD
ENDBRANCH  18  25
ENDBRANCH  17  21
ENDBRANCH  16  17
ENDBRANCH   1  16
TORSDOF 6
ENDMDL
MODEL 9
REMARK VINA RESULT:    -7.009      2.979      4.366
REMARK INTER + INTRA:         -10.209
REMARK INTER:                  -9.315
REMARK INTRA:                  -0.894
REMARK UNBOUND:                -0.742
REMARK  Name = 
REMARK  6 active torsions:
REMARK  status: ('A' for Active; 'I' for Inactive)
REMARK    1  A    between atoms: C_2  and  C_4
REMARK    2  A    between atoms: C_7  and  S_8
REMARK    3  A    between atoms: S_8  and  C_9
REMARK    4  A    between atoms: C_9  and  C_10
REMARK    5  A    between atoms: C_10  and  C_11
REMARK    6  A    between atoms: C_15  and  C_16
REMARK                            x       y       z     vdW  Elec       q    Type
REMARK                         _______ _______ _______ _____ _____    ______ ____
ROOT
ATOM      1  C   UNL     1      49.106   8.765  12.161  0.00  0.00    +0.000 C 
ENDROOT
BRANCH   1   2
ATOM      2  C   UNL     1      47.607   8.583  12.122  0.00  0.00    +0.000 A 
ATOM      3  C   UNL     1      46.748   9.673  12.129  0.00  0.00    +0.000 A 
ATOM      4  N   UNL     1      45.408   9.576  12.091  0.00  0.00    +0.000 NA
ATOM      5  C   UNL     1      44.890   8.328  12.019  0.00  0.00    +0.000 A 
ATOM      6  C   UNL     1      45.634   7.146  11.986  0.00  0.00    +0.000 A 
ATOM      7  C   UNL     1      47.029   7.307  12.044  0.00  0.00    +0.000 A 
BRANCH   6   8
ATOM      8  C   UNL     1      44.984   5.821  11.870  0.00  0.00    +0.000 A 
ATOM      9  C   UNL     1      44.374   5.205  12.985  0.00  0.00    +0.000 A 
ATOM     10  C   UNL     1      43.701   3.984  12.872  0.00  0.00    +0.000 A 
ATOM     11  C   UNL     1      43.645   3.348  11.640  0.00  0.00    +0.000 A 
ATOM     12  F   UNL     1      42.991   2.183  11.531  0.00  0.00    +0.000 F 
ATOM     13  C   UNL     1      44.256   3.916  10.535  0.00  0.00    +0.000 A 
ATOM     14  F   UNL     1      44.204   3.302   9.346  0.00  0.00    +0.000 F 
ATOM     15  C   UNL     1      44.918   5.140  10.642  0.00  0.00    +0.000 A 
ENDBRANCH   6   8
ENDBRANCH   1   2
BRANCH   1  16
ATOM     16  C   UNL     1      49.820   7.641  12.921  0.00  0.00    +0.000 C 
BRANCH  16  17
ATOM     17  S   UNL     1      50.166   8.166  14.636  0.00  0.00    +0.000 S 
BRANCH  17  21
ATOM     18  C   UNL     1      48.368   4.714  16.979  0.00  0.00    +0.000 A 
ATOM     19  C   UNL     1      49.445   5.368  17.563  0.00  0.00    +0.000 A 
ATOM     20  C   UNL     1      50.039   6.428  16.872  0.00  0.00    +0.000 A 
ATOM     21  C   UNL     1      49.545   6.817  15.627  0.00  0.00    +0.000 A 
ATOM     22  C   UNL     1      48.465   6.082  15.127  0.00  0.00    +0.000 A 
ATOM     23  N   UNL     1      47.863   5.042  15.761  0.00  0.00    +0.000 NA
BRANCH  18  25
ATOM     24  N   UNL     1      48.334   3.163  18.845  0.00  0.00    +0.000 N 
ATOM     25  C   UNL     1      47.701   3.591  17.710  0.00  0.00    +0.000 C 
ATOM     26  O   UNL     1      46.655   3.084  17.327  0.00  0.00    +0.000 OA
ATOM     27  H   UNL     1      47.907   2.442  19.407  0.00  0.00    +0.000 HD
ATOM     28  H   UNL     1      49.158   3.652  19.175  0.00  0.00    +0.000 HD
ENDBRANCH  18  25
ENDBRANCH  17  21
ENDBRANCH  16  17
ENDBRANCH   1  16
TORSDOF 6
ENDMDL
