MODEL 1
REMARK VINA RESULT:    -6.993      0.000      0.000
REMARK INTER + INTRA:          -9.250
REMARK INTER:                  -8.832
REMARK INTRA:                  -0.418
REMARK UNBOUND:                -0.418
REMARK  Name = 
REMARK  5 active torsions:
REMARK  status: ('A' for Active; 'I' for Inactive)
REMARK    1  A    between atoms: N_1  and  C_2
REMARK    2  A    between atoms: C_2  and  C_3
REMARK    3  A    between atoms: C_6  and  S_7
REMARK    4  A    between atoms: S_7  and  C_8
REMARK    5  A    between atoms: C_8  and  C_9
REMARK                            x       y       z     vdW  Elec       q    Type
REMARK                         _______ _______ _______ _____ _____    ______ ____
ROOT
ATOM      1  C   UNL     1      46.969   5.763  13.235  0.00  0.00    +0.000 A 
ATOM      2  C   UNL     1      46.555   6.258  11.996  0.00  0.00    +0.000 A 
ATOM      3  C   UNL     1      45.653   5.528  11.222  0.00  0.00    +0.000 A 
ATOM      4  C   UNL     1      45.172   4.321  11.713  0.00  0.00    +0.000 A 
ATOM      5  N   UNL     1      45.560   3.815  12.905  0.00  0.00    +0.000 NA
ATOM      6  C   UNL     1      46.444   4.538  13.629  0.00  0.00    +0.000 A 
ENDROOT
BRANCH   1   7
ATOM      7  C   UNL     1      47.944   6.507  14.103  0.00  0.00    +0.000 C 
BRANCH   7   8
ATOM      8  N   UNL     1      49.249   6.627  13.463  0.00  0.00    +0.000 NA
ATOM      9  H   UNL     1      49.864   7.179  14.058  0.00  0.00    +0.000 HD
ATOM     10  H   UNL     1      49.150   7.151  12.594  0.00  0.00    +0.000 HD
ENDBRANCH   7   8
ENDBRANCH   1   7
BRANCH   4  11
ATOM     11  S   UNL     1      44.030   3.364  10.730  0.00  0.00    +0.000 S 
BRANCH  11  12
ATOM     12  C   UNL     1      44.419   4.023   9.077  0.00  0.00    +0.000 C 
BRANCH  12  13
ATOM     13  C   UNL     1      45.411   3.157   8.336  0.00  0.00    +0.000 A 
ATOM     14  C   UNL     1      45.571   1.808   8.684  0.00  0.00    +0.000 A 
ATOM     15  C   UNL     1      46.463   0.993   7.985  0.00  0.00    +0.000 A 
ATOM     16  C   UNL     1      47.210   1.519   6.933  0.00  0.00    +0.000 A 
ATOM     17  C   UNL     1      47.070   2.862   6.585  0.00  0.00    +0.000 A 
ATOM     18  C   UNL     1      46.179   3.679   7.282  0.00  0.00    +0.000 A 
ENDBRANCH  12  13
ENDBRANCH  11  12
ENDBRANCH   4  11
TORSDOF 5
ENDMDL
MODEL 2
REMARK VINA RESULT:    -6.939      0.177      1.213
REMARK INTER + INTRA:          -9.182
REMARK INTER:                  -8.748
REMARK INTRA:                  -0.434
REMARK UNBOUND:                -0.418
REMARK  Name = 
REMARK  5 active torsions:
REMARK  status: ('A' for Active; 'I' for Inactive)
REMARK    1  A    between atoms: N_1  and  C_2
REMARK    2  A    between atoms: C_2  and  C_3
REMARK    3  A    between atoms: C_6  and  S_7
REMARK    4  A    between atoms: S_7  and  C_8
REMARK    5  A    between atoms: C_8  and  C_9
REMARK                            x       y       z     vdW  Elec       q    Type
REMARK                         _______ _______ _______ _____ _____    ______ ____
ROOT
ATOM      1  C   UNL     1      47.034   5.834  13.201  0.00  0.00    +0.000 A 
ATOM      2  C   UNL     1      46.570   6.305  11.971  0.00  0.00    +0.000 A 
ATOM      3  C   UNL     1      45.647   5.554  11.242  0.00  0.00    +0.000 A 
ATOM      4  C   UNL     1      45.197   4.350  11.770  0.00  0.00    +0.000 A 
ATOM      5  N   UNL     1      45.635   3.867  12.954  0.00  0.00    +0.000 NA
ATOM      6  C   UNL     1      46.537   4.610  13.634  0.00  0.00    +0.000 A 
ENDROOT
BRANCH   1   7
ATOM      7  C   UNL     1      48.034   6.601  14.020  0.00  0.00    +0.000 C 
BRANCH   7   8
ATOM      8  N   UNL     1      49.343   6.630  13.380  0.00  0.00    +0.000 NA
ATOM      9  H   UNL     1      49.874   7.421  13.739  0.00  0.00    +0.000 HD
ATOM     10  H   UNL     1      49.226   6.796  12.382  0.00  0.00    +0.000 HD
ENDBRANCH   7   8
ENDBRANCH   1   7
BRANCH   4  11
ATOM     11  S   UNL     1      44.029   3.366  10.845  0.00  0.00    +0.000 S 
BRANCH  11  12
ATOM     12  C   UNL     1      44.339   4.014   9.171  0.00  0.00    +0.000 C 
BRANCH  12  13
ATOM     13  C   UNL     1      45.380   3.207   8.431  0.00  0.00    +0.000 A 
ATOM     14  C   UNL     1      46.258   3.837   7.536  0.00  0.00    +0.000 A 
ATOM     15  C   UNL     1      47.243   3.104   6.871  0.00  0.00    +0.000 A 
ATOM     16  C   UNL     1      47.357   1.733   7.087  0.00  0.00    +0.000 A 
ATOM     17  C   UNL     1      46.482   1.092   7.963  0.00  0.00    +0.000 A 
ATOM     18  C   UNL     1      45.497   1.822   8.630  0.00  0.00    +0.000 A 
ENDBRANCH  12  13
ENDBRANCH  11  12
ENDBRANCH   4  11
TORSDOF 5
ENDMDL
MODEL 3
REMARK VINA RESULT:    -6.895      2.342      5.909
REMARK INTER + INTRA:          -9.126
REMARK INTER:                  -8.774
REMARK INTRA:                  -0.352
REMARK UNBOUND:                -0.418
REMARK  Name = 
REMARK  5 active torsions:
REMARK  status: ('A' for Active; 'I' for Inactive)
REMARK    1  A    between atoms: N_1  and  C_2
REMARK    2  A    between atoms: C_2  and  C_3
REMARK    3  A    between atoms: C_6  and  S_7
REMARK    4  A    between atoms: S_7  and  C_8
REMARK    5  A    between atoms: C_8  and  C_9
REMARK                            x       y       z     vdW  Elec       q    Type
REMARK                         _______ _______ _______ _____ _____    ______ ____
ROOT
ATOM      1  C   UNL     1      46.616   2.368   7.476  0.00  0.00    +0.000 A 
ATOM      2  C   UNL     1      45.907   1.661   8.449  0.00  0.00    +0.000 A 
ATOM      3  C   UNL     1      45.033   2.336   9.301  0.00  0.00    +0.000 A 
ATOM      4  C   UNL     1      44.878   3.709   9.151  0.00  0.00    +0.000 A 
ATOM      5  N   UNL     1      45.557   4.419   8.223  0.00  0.00    +0.000 NA
ATOM      6  C   UNL     1      46.406   3.740   7.417  0.00  0.00    +0.000 A 
ENDROOT
BRANCH   1   7
ATOM      7  C   UNL     1      47.575   1.688   6.540  0.00  0.00    +0.000 C 
BRANCH   7   8
ATOM      8  N   UNL     1      48.720   2.537   6.233  0.00  0.00    +0.000 NA
ATOM      9  H   UNL     1      48.962   3.084   7.057  0.00  0.00    +0.000 HD
ATOM     10  H   UNL     1      48.456   3.209   5.513  0.00  0.00    +0.000 HD
ENDBRANCH   7   8
ENDBRANCH   1   7
BRANCH   4  11
ATOM     11  S   UNL     1      43.777   4.594  10.242  0.00  0.00    +0.000 S 
BRANCH  11  12
ATOM     12  C   UNL     1      44.462   4.083  11.850  0.00  0.00    +0.000 C 
BRANCH  12  13
ATOM     13  C   UNL     1      45.612   4.960  12.286  0.00  0.00    +0.000 A 
ATOM     14  C   UNL     1      46.268   4.715  13.501  0.00  0.00    +0.000 A 
ATOM     15  C   UNL     1      47.351   5.502  13.897  0.00  0.00    +0.000 A 
ATOM     16  C   UNL     1      47.786   6.548  13.087  0.00  0.00    +0.000 A 
ATOM     17  C   UNL     1      47.134   6.812  11.883  0.00  0.00    +0.000 A 
ATOM     18  C   UNL     1      46.052   6.026  11.484  0.00  0.00    +0.000 A 
ENDBRANCH  12  13
ENDBRANCH  11  12
ENDBRANCH   4  11
TORSDOF 5
ENDMDL
MODEL 4
REMARK VINA RESULT:    -5.351      2.990      4.706
REMARK INTER + INTRA:          -7.176
REMARK INTER:                  -6.758
REMARK INTRA:                  -0.418
REMARK UNBOUND:                -0.418
REMARK  Name = 
REMARK  5 active torsions:
REMARK  status: ('A' for Active; 'I' for Inactive)
REMARK    1  A    between atoms: N_1  and  C_2
REMARK    2  A    between atoms: C_2  and  C_3
REMARK    3  A    between atoms: C_6  and  S_7
REMARK    4  A    between atoms: S_7  and  C_8
REMARK    5  A    between atoms: C_8  and  C_9
REMARK                            x       y       z     vdW  Elec       q    Type
REMARK                         _______ _______ _______ _____ _____    ______ ____
ROOT
ATOM      1  C   UNL     1      47.739   4.557  16.287  0.00  0.00    +0.000 A 
ATOM      2  C   UNL     1      46.982   4.100  15.206  0.00  0.00    +0.000 A 
ATOM      3  C   UNL     1      47.001   4.799  13.999  0.00  0.00    +0.000 A 
ATOM      4  C   UNL     1      47.790   5.938  13.896  0.00  0.00    +0.000 A 
ATOM      5  N   UNL     1      48.527   6.406  14.928  0.00  0.00    +0.000 NA
ATOM      6  C   UNL     1      48.481   5.714  16.090  0.00  0.00    +0.000 A 
ENDROOT
BRANCH   1   7
ATOM      7  C   UNL     1      47.746   3.844  17.610  0.00  0.00    +0.000 C 
BRANCH   7   8
ATOM      8  N   UNL     1      46.623   2.923  17.730  0.00  0.00    +0.000 NA
ATOM      9  H   UNL     1      46.750   2.346  18.560  0.00  0.00    +0.000 HD
ATOM     10  H   UNL     1      46.626   2.283  16.937  0.00  0.00    +0.000 HD
ENDBRANCH   7   8
ENDBRANCH   1   7
BRANCH   4  11
ATOM     11  S   UNL     1      47.815   6.856  12.365  0.00  0.00    +0.000 S 
BRANCH  11  12
ATOM     12  C   UNL     1      46.063   7.341  12.269  0.00  0.00    +0.000 C 
BRANCH  12  13
ATOM     13  C   UNL     1      45.235   6.342  11.495  0.00  0.00    +0.000 A 
ATOM     14  C   UNL     1      45.764   5.716  10.357  0.00  0.00    +0.000 A 
ATOM     15  C   UNL     1      45.017   4.770   9.653  0.00  0.00    +0.000 A 
ATOM     16  C   UNL     1      43.730   4.443  10.074  0.00  0.00    +0.000 A 
ATOM     17  C   UNL     1      43.187   5.068  11.196  0.00  0.00    +0.000 A 
ATOM     18  C   UNL     1      43.931   6.014  11.902  0.00  0.00    +0.000 A 
ENDBRANCH  12  13
ENDBRANCH  11  12
ENDBRANCH   4  11
TORSDOF 5
ENDMDL
MODEL 5
REMARK VINA RESULT:    -5.327      2.079      2.815
REMARK INTER + INTRA:          -7.146
REMARK INTER:                  -6.859
REMARK INTRA:                  -0.287
REMARK UNBOUND:                -0.418
REMARK  Name = 
REMARK  5 active torsions:
REMARK  status: ('A' for Active; 'I' for Inactive)
REMARK    1  A    between atoms: N_1  and  C_2
REMARK    2  A    between atoms: C_2  and  C_3
REMARK    3  A    between atoms: C_6  and  S_7
REMARK    4  A    between atoms: S_7  and  C_8
REMARK    5  A    between atoms: C_8  and  C_9
REMARK                            x       y       z     vdW  Elec       q    Type
REMARK                         _______ _______ _______ _____ _____    ______ ____
ROOT
ATOM      1  C   UNL     1      47.524   4.755  15.456  0.00  0.00    +0.000 A 
ATOM      2  C   UNL     1      48.022   5.989  15.032  0.00  0.00    +0.000 A 
ATOM      3  C   UNL     1      47.613   6.520  13.809  0.00  0.00    +0.000 A 
ATOM      4  C   UNL     1      46.700   5.809  13.041  0.00  0.00    +0.000 A 
ATOM      5  N   UNL     1      46.207   4.610  13.424  0.00  0.00    +0.000 NA
ATOM      6  C   UNL     1      46.629   4.113  14.609  0.00  0.00    +0.000 A 
ENDROOT
BRANCH   1   7
ATOM      7  C   UNL     1      47.940   4.136  16.761  0.00  0.00    +0.000 C 
BRANCH   7   8
ATOM      8  N   UNL     1      46.864   4.181  17.744  0.00  0.00    +0.000 NA
ATOM      9  H   UNL     1      46.158   3.489  17.500  0.00  0.00    +0.000 HD
ATOM     10  H   UNL     1      46.402   5.088  17.695  0.00  0.00    +0.000 HD
ENDBRANCH   7   8
ENDBRANCH   1   7
BRANCH   4  11
ATOM     11  S   UNL     1      46.176   6.465  11.465  0.00  0.00    +0.000 S 
BRANCH  11  12
ATOM     12  C   UNL     1      44.781   5.347  11.115  0.00  0.00    +0.000 C 
BRANCH  12  13
ATOM     13  C   UNL     1      45.100   4.363  10.014  0.00  0.00    +0.000 A 
ATOM     14  C   UNL     1      44.765   3.009  10.156  0.00  0.00    +0.000 A 
ATOM     15  C   UNL     1      45.029   2.099   9.131  0.00  0.00    +0.000 A 
ATOM     16  C   UNL     1      45.638   2.531   7.955  0.00  0.00    +0.000 A 
ATOM     17  C   UNL     1      45.989   3.872   7.805  0.00  0.00    +0.000 A 
ATOM     18  C   UNL     1      45.726   4.784   8.828  0.00  0.00    +0.000 A 
ENDBRANCH  12  13
ENDBRANCH  11  12
ENDBRANCH   4  11
TORSDOF 5
ENDMDL
MODEL 6
REMARK VINA RESULT:    -5.005      2.094      3.203
REMARK INTER + INTRA:          -6.739
REMARK INTER:                  -6.372
REMARK INTRA:                  -0.367
REMARK UNBOUND:                -0.418
REMARK  Name = 
REMARK  5 active torsions:
REMARK  status: ('A' for Active; 'I' for Inactive)
REMARK    1  A    between atoms: N_1  and  C_2
REMARK    2  A    between atoms: C_2  and  C_3
REMARK    3  A    between atoms: C_6  and  S_7
REMARK    4  A    between atoms: S_7  and  C_8
REMARK    5  A    between atoms: C_8  and  C_9
REMARK                            x       y       z     vdW  Elec       q    Type
REMARK                         _______ _______ _______ _____ _____    ______ ____
ROOT
ATOM      1  C   UNL     1      49.448   7.999  12.872  0.00  0.00    +0.000 A 
ATOM      2  C   UNL     1      48.528   7.860  11.831  0.00  0.00    +0.000 A 
ATOM      3  C   UNL     1      47.504   6.917  11.930  0.00  0.00    +0.000 A 
ATOM      4  C   UNL     1      47.415   6.142  13.079  0.00  0.00    +0.000 A 
ATOM      5  N   UNL     1      48.296   6.251  14.099  0.00  0.00    +0.000 NA
ATOM      6  C   UNL     1      49.285   7.165  13.971  0.00  0.00    +0.000 A 
ENDROOT
BRANCH   1   7
ATOM      7  C   UNL     1      50.574   8.993  12.810  0.00  0.00    +0.000 C 
BRANCH   7   8
ATOM      8  N   UNL     1      51.173   9.044  11.482  0.00  0.00    +0.000 NA
ATOM      9  H   UNL     1      50.728   8.348  10.887  0.00  0.00    +0.000 HD
ATOM     10  H   UNL     1      52.155   8.777  11.546  0.00  0.00    +0.000 HD
ENDBRANCH   7   8
ENDBRANCH   1   7
BRANCH   4  11
ATOM     11  S   UNL     1      46.122   4.920  13.218  0.00  0.00    +0.000 S 
BRANCH  11  12
ATOM     12  C   UNL     1      44.997   5.513  11.915  0.00  0.00    +0.000 C 
BRANCH  12  13
ATOM     13  C   UNL     1      45.012   4.619  10.697  0.00  0.00    +0.000 A 
ATOM     14  C   UNL     1      44.464   3.329  10.759  0.00  0.00    +0.000 A 
ATOM     15  C   UNL     1      44.446   2.508   9.630  0.00  0.00    +0.000 A 
ATOM     16  C   UNL     1      44.983   2.964   8.428  0.00  0.00    +0.000 A 
ATOM     17  C   UNL     1      45.544   4.238   8.356  0.00  0.00    +0.000 A 
ATOM     18  C   UNL     1      45.562   5.062   9.483  0.00  0.00    +0.000 A 
ENDBRANCH  12  13
ENDBRANCH  11  12
ENDBRANCH   4  11
TORSDOF 5
ENDMDL
MODEL 7
REMARK VINA RESULT:    -4.826      3.503      6.479
REMARK INTER + INTRA:          -6.514
REMARK INTER:                  -6.225
REMARK INTRA:                  -0.288
REMARK UNBOUND:                -0.418
REMARK  Name = 
REMARK  5 active torsions:
REMARK  status: ('A' for Active; 'I' for Inactive)
REMARK    1  A    between atoms: N_1  and  C_2
REMARK    2  A    between atoms: C_2  and  C_3
REMARK    3  A    between atoms: C_6  and  S_7
REMARK    4  A    between atoms: S_7  and  C_8
REMARK    5  A    between atoms: C_8  and  C_9
REMARK                            x       y       z     vdW  Elec       q    Type
REMARK                         _______ _______ _______ _____ _____    ______ ____
ROOT
ATOM      1  C   UNL     1      44.874   4.071  11.399  0.00  0.00    +0.000 A 
ATOM      2  C   UNL     1      45.390   3.738  12.653  0.00  0.00    +0.000 A 
ATOM      3  C   UNL     1      46.284   4.600  13.289  0.00  0.00    +0.000 A 
ATOM      4  C   UNL     1      46.631   5.789  12.658  0.00  0.00    +0.000 A 
ATOM      5  N   UNL     1      46.152   6.133  11.442  0.00  0.00    +0.000 NA
ATOM      6  C   UNL     1      45.296   5.272  10.844  0.00  0.00    +0.000 A 
ENDROOT
BRANCH   1   7
ATOM      7  C   UNL     1      43.916   3.172  10.670  0.00  0.00    +0.000 C 
BRANCH   7   8
ATOM      8  N   UNL     1      43.111   2.381  11.593  0.00  0.00    +0.000 NA
ATOM      9  H   UNL     1      42.215   2.168  11.160  0.00  0.00    +0.000 HD
ATOM     10  H   UNL     1      42.901   2.941  12.419  0.00  0.00    +0.000 HD
ENDBRANCH   7   8
ENDBRANCH   1   7
BRANCH   4  11
ATOM     11  S   UNL     1      47.785   6.898  13.448  0.00  0.00    +0.000 S 
BRANCH  11  12
ATOM     12  C   UNL     1      47.696   8.306  12.296  0.00  0.00    +0.000 C 
BRANCH  12  13
ATOM     13  C   UNL     1      49.055   8.697  11.765  0.00  0.00    +0.000 A 
ATOM     14  C   UNL     1      50.044   7.722  11.566  0.00  0.00    +0.000 A 
ATOM     15  C   UNL     1      51.293   8.070  11.047  0.00  0.00    +0.000 A 
ATOM     16  C   UNL     1      51.570   9.397  10.729  0.00  0.00    +0.000 A 
ATOM     17  C   UNL     1      50.601  10.379  10.935  0.00  0.00    +0.000 A 
ATOM     18  C   UNL     1      49.352  10.034  11.453  0.00  0.00    +0.000 A 
ENDBRANCH  12  13
ENDBRANCH  11  12
ENDBRANCH   4  11
TORSDOF 5
ENDMDL
MODEL 8
REMARK VINA RESULT:    -4.661      3.424      7.578
REMARK INTER + INTRA:          -6.305
REMARK INTER:                  -6.063
REMARK INTRA:                  -0.242
REMARK UNBOUND:                -0.418
REMARK  Name = 
REMARK  5 active torsions:
REMARK  status: ('A' for Active; 'I' for Inactive)
REMARK    1  A    between atoms: N_1  and  C_2
REMARK    2  A    between atoms: C_2  and  C_3
REMARK    3  A    between atoms: C_6  and  S_7
REMARK    4  A    between atoms: S_7  and  C_8
REMARK    5  A    between atoms: C_8  and  C_9
REMARK                            x       y       z     vdW  Elec       q    Type
REMARK                         _______ _______ _______ _____ _____    ______ ____
ROOT
ATOM      1  C   UNL     1      44.928   4.506  10.546  0.00  0.00    +0.000 A 
ATOM      2  C   UNL     1      44.941   3.626  11.630  0.00  0.00    +0.000 A 
ATOM      3  C   UNL     1      45.656   3.952  12.782  0.00  0.00    +0.000 A 
ATOM      4  C   UNL     1      46.335   5.164  12.829  0.00  0.00    +0.000 A 
ATOM      5  N   UNL     1      46.346   6.031  11.792  0.00  0.00    +0.000 NA
ATOM      6  C   UNL     1      45.652   5.684  10.684  0.00  0.00    +0.000 A 
ENDROOT
BRANCH   1   7
ATOM      7  C   UNL     1      44.180   4.198   9.280  0.00  0.00    +0.000 C 
BRANCH   7   8
ATOM      8  N   UNL     1      45.015   4.390   8.101  0.00  0.00    +0.000 NA
ATOM      9  H   UNL     1      45.596   5.216   8.233  0.00  0.00    +0.000 HD
ATOM     10  H   UNL     1      44.420   4.587   7.297  0.00  0.00    +0.000 HD
ENDBRANCH   7   8
ENDBRANCH   1   7
BRANCH   4  11
ATOM     11  S   UNL     1      47.270   5.592  14.288  0.00  0.00    +0.000 S 
BRANCH  11  12
ATOM     12  C   UNL     1      47.205   4.002  15.173  0.00  0.00    +0.000 C 
BRANCH  12  13
ATOM     13  C   UNL     1      47.888   4.069  16.519  0.00  0.00    +0.000 A 
ATOM     14  C   UNL     1      48.735   5.142  16.830  0.00  0.00    +0.000 A 
ATOM     15  C   UNL     1      49.347   5.227  18.082  0.00  0.00    +0.000 A 
ATOM     16  C   UNL     1      49.125   4.236  19.035  0.00  0.00    +0.000 A 
ATOM     17  C   UNL     1      48.296   3.156  18.734  0.00  0.00    +0.000 A 
ATOM     18  C   UNL     1      47.683   3.069  17.484  0.00  0.00    +0.000 A 
ENDBRANCH  12  13
ENDBRANCH  11  12
ENDBRANCH   4  11
TORSDOF 5
ENDMDL
MODEL 9
REMARK VINA RESULT:    -4.634      4.577      7.942
REMARK INTER + INTRA:          -6.270
REMARK INTER:                  -5.909
REMARK INTRA:                  -0.361
REMARK UNBOUND:                -0.418
REMARK  Name = 
REMARK  5 active torsions:
REMARK  status: ('A' for Active; 'I' for Inactive)
REMARK    1  A    between atoms: N_1  and  C_2
REMARK    2  A    between atoms: C_2  and  C_3
REMARK    3  A    between atoms: C_6  and  S_7
REMARK    4  A    between atoms: S_7  and  C_8
REMARK    5  A    between atoms: C_8  and  C_9
REMARK                            x       y       z     vdW  Elec       q    Type
REMARK                         _______ _______ _______ _____ _____    ______ ____
ROOT
ATOM      1  C   UNL     1      46.930   5.955  13.150  0.00  0.00    +0.000 A 
ATOM      2  C   UNL     1      47.878   6.374  14.086  0.00  0.00    +0.000 A 
ATOM      3  C   UNL     1      48.084   5.631  15.248  0.00  0.00    +0.000 A 
ATOM      4  C   UNL     1      47.341   4.472  15.443  0.00  0.00    +0.000 A 
ATOM      5  N   UNL     1      46.413   4.047  14.558  0.00  0.00    +0.000 NA
ATOM      6  C   UNL     1      46.227   4.793  13.445  0.00  0.00    +0.000 A 
ENDROOT
BRANCH   1   7
ATOM      7  C   UNL     1      46.666   6.724  11.887  0.00  0.00    +0.000 C 
BRANCH   7   8
ATOM      8  N   UNL     1      45.963   5.913  10.900  0.00  0.00    +0.000 NA
ATOM      9  H   UNL     1      44.992   5.803  11.186  0.00  0.00    +0.000 HD
ATOM     10  H   UNL     1      46.364   4.976  10.890  0.00  0.00    +0.000 HD
ENDBRANCH   7   8
ENDBRANCH   1   7
BRANCH   4  11
ATOM     11  S   UNL     1      47.578   3.517  16.932  0.00  0.00    +0.000 S 
BRANCH  11  12
ATOM     12  C   UNL     1      49.008   4.396  17.638  0.00  0.00    +0.000 C 
BRANCH  12  13
ATOM     13  C   UNL     1      50.246   3.532  17.679  0.00  0.00    +0.000 A 
ATOM     14  C   UNL     1      51.460   4.057  18.145  0.00  0.00    +0.000 A 
ATOM     15  C   UNL     1      52.602   3.257  18.215  0.00  0.00    +0.000 A 
ATOM     16  C   UNL     1      52.546   1.925  17.812  0.00  0.00    +0.000 A 
ATOM     17  C   UNL     1      51.349   1.393  17.333  0.00  0.00    +0.000 A 
ATOM     18  C   UNL     1      50.205   2.191  17.263  0.00  0.00    +0.000 A 
ENDBRANCH  12  13
ENDBRANCH  11  12
ENDBRANCH   4  11
TORSDOF 5
ENDMDL
