MODEL 1
REMARK VINA RESULT:    -8.841      0.000      0.000
REMARK INTER + INTRA:         -11.680
REMARK INTER:                 -10.908
REMARK INTRA:                  -0.772
REMARK UNBOUND:                -0.772
REMARK  Name = 
REMARK  4 active torsions:
REMARK  status: ('A' for Active; 'I' for Inactive)
REMARK    1  A    between atoms: C_2  and  C_4
REMARK    2  A    between atoms: N_8  and  C_9
REMARK    3  A    between atoms: C_9  and  C_10
REMARK    4  A    between atoms: C_14  and  C_15
REMARK                            x       y       z     vdW  Elec       q    Type
REMARK                         _______ _______ _______ _____ _____    ______ ____
ROOT
ATOM      1  C   UNL     1      46.389   2.252   7.689  0.00  0.00    +0.000 A 
ATOM      2  C   UNL     1      45.647   1.772   8.760  0.00  0.00    +0.000 A 
ATOM      3  C   UNL     1      44.770   2.633   9.416  0.00  0.00    +0.000 A 
ATOM      4  C   UNL     1      44.660   3.959   9.010  0.00  0.00    +0.000 A 
ATOM      5  N   UNL     1      43.760   4.839   9.577  0.00  0.00    +0.000 N 
ATOM      6  N   UNL     1      45.378   4.437   7.976  0.00  0.00    +0.000 NA
ATOM      7  C   UNL     1      46.237   3.587   7.344  0.00  0.00    +0.000 A 
ATOM      8  H   UNL     1      43.905   5.766   9.192  0.00  0.00    +0.000 HD
ENDROOT
BRANCH   1  10
ATOM      9  N   UNL     1      48.381   2.009   6.331  0.00  0.00    +0.000 N 
ATOM     10  C   UNL     1      47.326   1.392   6.940  0.00  0.00    +0.000 C 
ATOM     11  O   UNL     1      47.168   0.179   6.876  0.00  0.00    +0.000 OA
ATOM     12  H   UNL     1      49.057   1.407   5.877  0.00  0.00    +0.000 HD
ATOM     13  H   UNL     1      48.669   2.950   6.556  0.00  0.00    +0.000 HD
ENDBRANCH   1  10
BRANCH   5  14
ATOM     14  C   UNL     1      43.392   4.767  10.975  0.00  0.00    +0.000 C 
BRANCH  14  15
ATOM     15  C   UNL     1      44.500   5.156  11.924  0.00  0.00    +0.000 A 
ATOM     16  C   UNL     1      45.030   4.233  12.831  0.00  0.00    +0.000 A 
ATOM     17  C   UNL     1      46.165   4.545  13.573  0.00  0.00    +0.000 A 
ATOM     18  C   UNL     1      46.801   5.778  13.400  0.00  0.00    +0.000 A 
ATOM     19  C   UNL     1      46.302   6.738  12.503  0.00  0.00    +0.000 A 
ATOM     20  C   UNL     1      45.122   6.413  11.802  0.00  0.00    +0.000 A 
BRANCH  19  21
ATOM     21  C   UNL     1      47.023   8.003  12.248  0.00  0.00    +0.000 A 
ATOM     22  N   UNL     1      48.337   7.933  11.949  0.00  0.00    +0.000 NA
ATOM     23  C   UNL     1      48.947   9.090  11.633  0.00  0.00    +0.000 A 
ATOM     24  C   UNL     1      48.304  10.304  11.608  0.00  0.00    +0.000 A 
ATOM     25  C   UNL     1      46.971  10.274  11.929  0.00  0.00    +0.000 A 
ATOM     26  N   UNL     1      46.306   9.146  12.249  0.00  0.00    +0.000 NA
ENDBRANCH  19  21
ENDBRANCH  14  15
ENDBRANCH   5  14
TORSDOF 4
ENDMDL
MODEL 2
REMARK VINA RESULT:    -8.767      2.376      4.006
REMARK INTER + INTRA:         -11.590
REMARK INTER:                 -10.915
REMARK INTRA:                  -0.674
REMARK UNBOUND:                -0.772
REMARK  Name = 
REMARK  4 active torsions:
REMARK  status: ('A' for Active; 'I' for Inactive)
REMARK    1  A    between atoms: C_2  and  C_4
REMARK    2  A    between atoms: N_8  and  C_9
REMARK    3  A    between atoms: C_9  and  C_10
REMARK    4  A    between atoms: C_14  and  C_15
REMARK                            x       y       z     vdW  Elec       q    Type
REMARK                         _______ _______ _______ _____ _____    ______ ____
ROOT
ATOM      1  C   UNL     1      46.478   2.320   7.573  0.00  0.00    +0.000 A 
ATOM      2  C   UNL     1      45.929   1.847   8.757  0.00  0.00    +0.000 A 
ATOM      3  C   UNL     1      45.207   2.723   9.565  0.00  0.00    +0.000 A 
ATOM      4  C   UNL     1      45.060   4.055   9.193  0.00  0.00    +0.000 A 
ATOM      5  N   UNL     1      44.299   4.951   9.917  0.00  0.00    +0.000 N 
ATOM      6  N   UNL     1      45.592   4.526   8.049  0.00  0.00    +0.000 NA
ATOM      7  C   UNL     1      46.301   3.662   7.268  0.00  0.00    +0.000 A 
ATOM      8  H   UNL     1      44.397   5.878   9.518  0.00  0.00    +0.000 HD
ENDROOT
BRANCH   1  10
ATOM      9  N   UNL     1      48.284   2.014   5.986  0.00  0.00    +0.000 N 
ATOM     10  C   UNL     1      47.243   1.445   6.662  0.00  0.00    +0.000 C 
ATOM     11  O   UNL     1      46.960   0.261   6.528  0.00  0.00    +0.000 OA
ATOM     12  H   UNL     1      48.846   1.393   5.416  0.00  0.00    +0.000 HD
ATOM     13  H   UNL     1      48.685   2.902   6.246  0.00  0.00    +0.000 HD
ENDBRANCH   1  10
BRANCH   5  14
ATOM     14  C   UNL     1      44.187   4.874  11.358  0.00  0.00    +0.000 C 
BRANCH  14  15
ATOM     15  C   UNL     1      45.429   5.312  12.097  0.00  0.00    +0.000 A 
ATOM     16  C   UNL     1      46.027   6.549  11.835  0.00  0.00    +0.000 A 
ATOM     17  C   UNL     1      47.058   7.020  12.640  0.00  0.00    +0.000 A 
ATOM     18  C   UNL     1      47.492   6.268  13.736  0.00  0.00    +0.000 A 
ATOM     19  C   UNL     1      46.925   5.018  14.037  0.00  0.00    +0.000 A 
ATOM     20  C   UNL     1      45.915   4.545  13.173  0.00  0.00    +0.000 A 
BRANCH  19  21
ATOM     21  C   UNL     1      47.315   4.265  15.247  0.00  0.00    +0.000 A 
ATOM     22  N   UNL     1      47.043   4.815  16.449  0.00  0.00    +0.000 NA
ATOM     23  C   UNL     1      47.326   4.069  17.533  0.00  0.00    +0.000 A 
ATOM     24  C   UNL     1      47.867   2.807  17.464  0.00  0.00    +0.000 A 
ATOM     25  C   UNL     1      48.111   2.336  16.200  0.00  0.00    +0.000 A 
ATOM     26  N   UNL     1      47.844   3.035  15.079  0.00  0.00    +0.000 NA
ENDBRANCH  19  21
ENDBRANCH  14  15
ENDBRANCH   5  14
TORSDOF 4
ENDMDL
MODEL 3
REMARK VINA RESULT:    -7.718      1.924      2.453
REMARK INTER + INTRA:         -10.294
REMARK INTER:                  -9.647
REMARK INTRA:                  -0.647
REMARK UNBOUND:                -0.772
REMARK  Name = 
REMARK  4 active torsions:
REMARK  status: ('A' for Active; 'I' for Inactive)
REMARK    1  A    between atoms: C_2  and  C_4
REMARK    2  A    between atoms: N_8  and  C_9
REMARK    3  A    between atoms: C_9  and  C_10
REMARK    4  A    between atoms: C_14  and  C_15
REMARK                            x       y       z     vdW  Elec       q    Type
REMARK                         _______ _______ _______ _____ _____    ______ ____
ROOT
ATOM      1  C   UNL     1      46.710   2.545   7.197  0.00  0.00    +0.000 A 
ATOM      2  C   UNL     1      46.412   3.804   7.701  0.00  0.00    +0.000 A 
ATOM      3  C   UNL     1      45.635   3.904   8.853  0.00  0.00    +0.000 A 
ATOM      4  C   UNL     1      45.153   2.757   9.472  0.00  0.00    +0.000 A 
ATOM      5  N   UNL     1      44.438   2.792  10.653  0.00  0.00    +0.000 N 
ATOM      6  N   UNL     1      45.433   1.530   8.990  0.00  0.00    +0.000 NA
ATOM      7  C   UNL     1      46.189   1.443   7.860  0.00  0.00    +0.000 A 
ATOM      8  H   UNL     1      44.115   1.858  10.881  0.00  0.00    +0.000 HD
ENDROOT
BRANCH   1  10
ATOM      9  N   UNL     1      47.354   3.254   4.971  0.00  0.00    +0.000 N 
ATOM     10  C   UNL     1      47.539   2.363   5.989  0.00  0.00    +0.000 C 
ATOM     11  O   UNL     1      48.360   1.457   5.908  0.00  0.00    +0.000 OA
ATOM     12  H   UNL     1      47.973   3.166   4.174  0.00  0.00    +0.000 HD
ATOM     13  H   UNL     1      46.871   4.132   5.093  0.00  0.00    +0.000 HD
ENDBRANCH   1  10
BRANCH   5  14
ATOM     14  C   UNL     1      43.545   3.883  10.977  0.00  0.00    +0.000 C 
BRANCH  14  15
ATOM     15  C   UNL     1      44.201   5.009  11.741  0.00  0.00    +0.000 A 
ATOM     16  C   UNL     1      45.208   4.755  12.677  0.00  0.00    +0.000 A 
ATOM     17  C   UNL     1      45.928   5.803  13.242  0.00  0.00    +0.000 A 
ATOM     18  C   UNL     1      45.666   7.121  12.859  0.00  0.00    +0.000 A 
ATOM     19  C   UNL     1      44.661   7.426  11.924  0.00  0.00    +0.000 A 
ATOM     20  C   UNL     1      43.915   6.346  11.407  0.00  0.00    +0.000 A 
BRANCH  19  21
ATOM     21  C   UNL     1      44.444   8.807  11.447  0.00  0.00    +0.000 A 
ATOM     22  N   UNL     1      45.383   9.732  11.740  0.00  0.00    +0.000 NA
ATOM     23  C   UNL     1      45.206  10.959  11.217  0.00  0.00    +0.000 A 
ATOM     24  C   UNL     1      44.137  11.298  10.423  0.00  0.00    +0.000 A 
ATOM     25  C   UNL     1      43.234  10.292  10.184  0.00  0.00    +0.000 A 
ATOM     26  N   UNL     1      43.362   9.044  10.676  0.00  0.00    +0.000 NA
ENDBRANCH  19  21
ENDBRANCH  14  15
ENDBRANCH   5  14
TORSDOF 4
ENDMDL
MODEL 4
REMARK VINA RESULT:    -7.693      2.314      3.372
REMARK INTER + INTRA:         -10.264
REMARK INTER:                  -9.821
REMARK INTRA:                  -0.443
REMARK UNBOUND:                -0.772
REMARK  Name = 
REMARK  4 active torsions:
REMARK  status: ('A' for Active; 'I' for Inactive)
REMARK    1  A    between atoms: C_2  and  C_4
REMARK    2  A    between atoms: N_8  and  C_9
REMARK    3  A    between atoms: C_9  and  C_10
REMARK    4  A    between atoms: C_14  and  C_15
REMARK                            x       y       z     vdW  Elec       q    Type
REMARK                         _______ _______ _______ _____ _____    ______ ____
ROOT
ATOM      1  C   UNL     1      46.697   2.381   7.160  0.00  0.00    +0.000 A 
ATOM      2  C   UNL     1      46.436   3.593   7.784  0.00  0.00    +0.000 A 
ATOM      3  C   UNL     1      45.655   3.607   8.938  0.00  0.00    +0.000 A 
ATOM      4  C   UNL     1      45.132   2.421   9.440  0.00  0.00    +0.000 A 
ATOM      5  N   UNL     1      44.411   2.363  10.616  0.00  0.00    +0.000 N 
ATOM      6  N   UNL     1      45.375   1.238   8.841  0.00  0.00    +0.000 NA
ATOM      7  C   UNL     1      46.136   1.237   7.710  0.00  0.00    +0.000 A 
ATOM      8  H   UNL     1      44.057   1.422  10.750  0.00  0.00    +0.000 HD
ENDROOT
BRANCH   1  10
ATOM      9  N   UNL     1      47.255   3.178   4.941  0.00  0.00    +0.000 N 
ATOM     10  C   UNL     1      47.527   2.291   5.942  0.00  0.00    +0.000 C 
ATOM     11  O   UNL     1      48.424   1.463   5.841  0.00  0.00    +0.000 OA
ATOM     12  H   UNL     1      47.872   3.156   4.137  0.00  0.00    +0.000 HD
ATOM     13  H   UNL     1      46.698   4.008   5.081  0.00  0.00    +0.000 HD
ENDBRANCH   1  10
BRANCH   5  14
ATOM     14  C   UNL     1      43.552   3.447  11.042  0.00  0.00    +0.000 C 
BRANCH  14  15
ATOM     15  C   UNL     1      44.295   4.646  11.581  0.00  0.00    +0.000 A 
ATOM     16  C   UNL     1      43.888   5.947  11.268  0.00  0.00    +0.000 A 
ATOM     17  C   UNL     1      44.464   7.040  11.908  0.00  0.00    +0.000 A 
ATOM     18  C   UNL     1      45.440   6.845  12.890  0.00  0.00    +0.000 A 
ATOM     19  C   UNL     1      45.883   5.556  13.235  0.00  0.00    +0.000 A 
ATOM     20  C   UNL     1      45.316   4.471  12.533  0.00  0.00    +0.000 A 
BRANCH  19  21
ATOM     21  C   UNL     1      46.845   5.340  14.335  0.00  0.00    +0.000 A 
ATOM     22  N   UNL     1      47.777   6.291  14.556  0.00  0.00    +0.000 NA
ATOM     23  C   UNL     1      48.582   6.113  15.620  0.00  0.00    +0.000 A 
ATOM     24  C   UNL     1      48.496   5.031  16.463  0.00  0.00    +0.000 A 
ATOM     25  C   UNL     1      47.520   4.117  16.155  0.00  0.00    +0.000 A 
ATOM     26  N   UNL     1      46.682   4.245  15.107  0.00  0.00    +0.000 NA
ENDBRANCH  19  21
ENDBRANCH  14  15
ENDBRANCH   5  14
TORSDOF 4
ENDMDL
MODEL 5
REMARK VINA RESULT:    -7.199      2.744      6.809
REMARK INTER + INTRA:          -9.654
REMARK INTER:                  -8.893
REMARK INTRA:                  -0.761
REMARK UNBOUND:                -0.772
REMARK  Name = 
REMARK  4 active torsions:
REMARK  status: ('A' for Active; 'I' for Inactive)
REMARK    1  A    between atoms: C_2  and  C_4
REMARK    2  A    between atoms: N_8  and  C_9
REMARK    3  A    between atoms: C_9  and  C_10
REMARK    4  A    between atoms: C_14  and  C_15
REMARK                            x       y       z     vdW  Elec       q    Type
REMARK                         _______ _______ _______ _____ _____    ______ ____
ROOT
ATOM      1  C   UNL     1      49.114   7.604  12.791  0.00  0.00    +0.000 A 
ATOM      2  C   UNL     1      48.346   7.905  11.674  0.00  0.00    +0.000 A 
ATOM      3  C   UNL     1      46.975   7.663  11.710  0.00  0.00    +0.000 A 
ATOM      4  C   UNL     1      46.393   7.109  12.845  0.00  0.00    +0.000 A 
ATOM      5  N   UNL     1      45.032   6.911  12.964  0.00  0.00    +0.000 N 
ATOM      6  N   UNL     1      47.129   6.809  13.933  0.00  0.00    +0.000 NA
ATOM      7  C   UNL     1      48.470   7.046  13.886  0.00  0.00    +0.000 A 
ATOM      8  H   UNL     1      44.836   6.423  13.831  0.00  0.00    +0.000 HD
ENDROOT
BRANCH   1  10
ATOM      9  N   UNL     1      51.190   7.708  14.036  0.00  0.00    +0.000 N 
ATOM     10  C   UNL     1      50.569   7.847  12.828  0.00  0.00    +0.000 C 
ATOM     11  O   UNL     1      51.192   8.151  11.817  0.00  0.00    +0.000 OA
ATOM     12  H   UNL     1      52.198   7.809  14.042  0.00  0.00    +0.000 HD
ATOM     13  H   UNL     1      50.763   7.238  14.820  0.00  0.00    +0.000 HD
ENDBRANCH   1  10
BRANCH   5  14
ATOM     14  C   UNL     1      44.204   6.572  11.827  0.00  0.00    +0.000 C 
BRANCH  14  15
ATOM     15  C   UNL     1      44.239   5.109  11.454  0.00  0.00    +0.000 A 
ATOM     16  C   UNL     1      43.382   4.188  12.065  0.00  0.00    +0.000 A 
ATOM     17  C   UNL     1      43.295   2.883  11.591  0.00  0.00    +0.000 A 
ATOM     18  C   UNL     1      44.048   2.486  10.483  0.00  0.00    +0.000 A 
ATOM     19  C   UNL     1      44.926   3.375   9.838  0.00  0.00    +0.000 A 
ATOM     20  C   UNL     1      45.029   4.677  10.372  0.00  0.00    +0.000 A 
BRANCH  19  21
ATOM     21  C   UNL     1      45.652   2.989   8.611  0.00  0.00    +0.000 A 
ATOM     22  N   UNL     1      45.935   3.955   7.713  0.00  0.00    +0.000 NA
ATOM     23  C   UNL     1      46.675   3.594   6.649  0.00  0.00    +0.000 A 
ATOM     24  C   UNL     1      47.138   2.315   6.447  0.00  0.00    +0.000 A 
ATOM     25  C   UNL     1      46.796   1.402   7.412  0.00  0.00    +0.000 A 
ATOM     26  N   UNL     1      46.062   1.708   8.500  0.00  0.00    +0.000 NA
ENDBRANCH  19  21
ENDBRANCH  14  15
ENDBRANCH   5  14
TORSDOF 4
ENDMDL
MODEL 6
REMARK VINA RESULT:    -7.123      4.444      7.890
REMARK INTER + INTRA:          -9.561
REMARK INTER:                  -9.163
REMARK INTRA:                  -0.398
REMARK UNBOUND:                -0.772
REMARK  Name = 
REMARK  4 active torsions:
REMARK  status: ('A' for Active; 'I' for Inactive)
REMARK    1  A    between atoms: C_2  and  C_4
REMARK    2  A    between atoms: N_8  and  C_9
REMARK    3  A    between atoms: C_9  and  C_10
REMARK    4  A    between atoms: C_14  and  C_15
REMARK                            x       y       z     vdW  Elec       q    Type
REMARK                         _______ _______ _______ _____ _____    ______ ____
ROOT
ATOM      1  C   UNL     1      49.309   4.164  17.384  0.00  0.00    +0.000 A 
ATOM      2  C   UNL     1      48.951   5.415  16.900  0.00  0.00    +0.000 A 
ATOM      3  C   UNL     1      47.912   5.511  15.976  0.00  0.00    +0.000 A 
ATOM      4  C   UNL     1      47.262   4.364  15.535  0.00  0.00    +0.000 A 
ATOM      5  N   UNL     1      46.183   4.403  14.675  0.00  0.00    +0.000 N 
ATOM      6  N   UNL     1      47.604   3.144  15.995  0.00  0.00    +0.000 NA
ATOM      7  C   UNL     1      48.624   3.061  16.895  0.00  0.00    +0.000 A 
ATOM      8  H   UNL     1      45.919   3.457  14.420  0.00  0.00    +0.000 HD
ENDROOT
BRANCH   1  10
ATOM      9  N   UNL     1      51.282   2.981  18.147  0.00  0.00    +0.000 N 
ATOM     10  C   UNL     1      50.390   3.990  18.374  0.00  0.00    +0.000 C 
ATOM     11  O   UNL     1      50.485   4.723  19.351  0.00  0.00    +0.000 OA
ATOM     12  H   UNL     1      52.059   2.910  18.792  0.00  0.00    +0.000 HD
ATOM     13  H   UNL     1      51.373   2.523  17.252  0.00  0.00    +0.000 HD
ENDBRANCH   1  10
BRANCH   5  14
ATOM     14  C   UNL     1      46.060   5.410  13.643  0.00  0.00    +0.000 C 
BRANCH  14  15
ATOM     15  C   UNL     1      45.123   5.031  12.521  0.00  0.00    +0.000 A 
ATOM     16  C   UNL     1      43.816   5.527  12.474  0.00  0.00    +0.000 A 
ATOM     17  C   UNL     1      43.022   5.319  11.351  0.00  0.00    +0.000 A 
ATOM     18  C   UNL     1      43.533   4.631  10.247  0.00  0.00    +0.000 A 
ATOM     19  C   UNL     1      44.840   4.112  10.249  0.00  0.00    +0.000 A 
ATOM     20  C   UNL     1      45.603   4.296  11.422  0.00  0.00    +0.000 A 
BRANCH  19  21
ATOM     21  C   UNL     1      45.416   3.468   9.051  0.00  0.00    +0.000 A 
ATOM     22  N   UNL     1      45.796   4.261   8.027  0.00  0.00    +0.000 NA
ATOM     23  C   UNL     1      46.400   3.658   6.987  0.00  0.00    +0.000 A 
ATOM     24  C   UNL     1      46.635   2.305   6.928  0.00  0.00    +0.000 A 
ATOM     25  C   UNL     1      46.210   1.582   8.013  0.00  0.00    +0.000 A 
ATOM     26  N   UNL     1      45.605   2.132   9.085  0.00  0.00    +0.000 NA
ENDBRANCH  19  21
ENDBRANCH  14  15
ENDBRANCH   5  14
TORSDOF 4
ENDMDL
MODEL 7
REMARK VINA RESULT:    -7.055      3.138      7.234
REMARK INTER + INTRA:          -9.477
REMARK INTER:                  -9.106
REMARK INTRA:                  -0.371
REMARK UNBOUND:                -0.772
REMARK  Name = 
REMARK  4 active torsions:
REMARK  status: ('A' for Active; 'I' for Inactive)
REMARK    1  A    between atoms: C_2  and  C_4
REMARK    2  A    between atoms: N_8  and  C_9
REMARK    3  A    between atoms: C_9  and  C_10
REMARK    4  A    between atoms: C_14  and  C_15
REMARK                            x       y       z     vdW  Elec       q    Type
REMARK                         _______ _______ _______ _____ _____    ______ ____
ROOT
ATOM      1  C   UNL     1      48.078   5.790  15.348  0.00  0.00    +0.000 A 
ATOM      2  C   UNL     1      47.119   4.945  14.807  0.00  0.00    +0.000 A 
ATOM      3  C   UNL     1      46.463   5.326  13.638  0.00  0.00    +0.000 A 
ATOM      4  C   UNL     1      46.756   6.547  13.040  0.00  0.00    +0.000 A 
ATOM      5  N   UNL     1      46.189   6.947  11.847  0.00  0.00    +0.000 N 
ATOM      6  N   UNL     1      47.682   7.377  13.559  0.00  0.00    +0.000 NA
ATOM      7  C   UNL     1      48.315   6.996  14.705  0.00  0.00    +0.000 A 
ATOM      8  H   UNL     1      46.476   7.897  11.637  0.00  0.00    +0.000 HD
ENDROOT
BRANCH   1  10
ATOM      9  N   UNL     1      48.097   5.320  17.726  0.00  0.00    +0.000 N 
ATOM     10  C   UNL     1      48.822   5.443  16.576  0.00  0.00    +0.000 C 
ATOM     11  O   UNL     1      50.034   5.266  16.559  0.00  0.00    +0.000 OA
ATOM     12  H   UNL     1      48.602   5.016  18.549  0.00  0.00    +0.000 HD
ATOM     13  H   UNL     1      47.092   5.226  17.731  0.00  0.00    +0.000 HD
ENDBRANCH   1  10
BRANCH   5  14
ATOM     14  C   UNL     1      44.838   6.581  11.478  0.00  0.00    +0.000 C 
BRANCH  14  15
ATOM     15  C   UNL     1      44.681   5.135  11.071  0.00  0.00    +0.000 A 
ATOM     16  C   UNL     1      43.691   4.329  11.641  0.00  0.00    +0.000 A 
ATOM     17  C   UNL     1      43.437   3.058  11.135  0.00  0.00    +0.000 A 
ATOM     18  C   UNL     1      44.157   2.584  10.034  0.00  0.00    +0.000 A 
ATOM     19  C   UNL     1      45.163   3.358   9.430  0.00  0.00    +0.000 A 
ATOM     20  C   UNL     1      45.431   4.622   9.997  0.00  0.00    +0.000 A 
BRANCH  19  21
ATOM     21  C   UNL     1      45.860   2.900   8.210  0.00  0.00    +0.000 A 
ATOM     22  N   UNL     1      46.037   3.790   7.211  0.00  0.00    +0.000 NA
ATOM     23  C   UNL     1      46.753   3.375   6.150  0.00  0.00    +0.000 A 
ATOM     24  C   UNL     1      47.292   2.115   6.047  0.00  0.00    +0.000 A 
ATOM     25  C   UNL     1      47.056   1.280   7.110  0.00  0.00    +0.000 A 
ATOM     26  N   UNL     1      46.351   1.643   8.200  0.00  0.00    +0.000 NA
ENDBRANCH  19  21
ENDBRANCH  14  15
ENDBRANCH   5  14
TORSDOF 4
ENDMDL
MODEL 8
REMARK VINA RESULT:    -7.023      1.834      2.857
REMARK INTER + INTRA:          -9.438
REMARK INTER:                  -8.909
REMARK INTRA:                  -0.529
REMARK UNBOUND:                -0.772
REMARK  Name = 
REMARK  4 active torsions:
REMARK  status: ('A' for Active; 'I' for Inactive)
REMARK    1  A    between atoms: C_2  and  C_4
REMARK    2  A    between atoms: N_8  and  C_9
REMARK    3  A    between atoms: C_9  and  C_10
REMARK    4  A    between atoms: C_14  and  C_15
REMARK                            x       y       z     vdW  Elec       q    Type
REMARK                         _______ _______ _______ _____ _____    ______ ____
ROOT
ATOM      1  C   UNL     1      46.448   2.694   7.525  0.00  0.00    +0.000 A 
ATOM      2  C   UNL     1      46.327   4.051   7.793  0.00  0.00    +0.000 A 
ATOM      3  C   UNL     1      45.576   4.459   8.893  0.00  0.00    +0.000 A 
ATOM      4  C   UNL     1      44.944   3.516   9.695  0.00  0.00    +0.000 A 
ATOM      5  N   UNL     1      44.245   3.856  10.836  0.00  0.00    +0.000 N 
ATOM      6  N   UNL     1      45.052   2.197   9.443  0.00  0.00    +0.000 NA
ATOM      7  C   UNL     1      45.784   1.808   8.361  0.00  0.00    +0.000 A 
ATOM      8  H   UNL     1      43.798   3.030  11.218  0.00  0.00    +0.000 HD
ENDROOT
BRANCH   1  10
ATOM      9  N   UNL     1      47.231   2.941   5.245  0.00  0.00    +0.000 N 
ATOM     10  C   UNL     1      47.240   2.190   6.385  0.00  0.00    +0.000 C 
ATOM     11  O   UNL     1      47.882   1.150   6.464  0.00  0.00    +0.000 OA
ATOM     12  H   UNL     1      47.829   2.626   4.490  0.00  0.00    +0.000 HD
ATOM     13  H   UNL     1      46.916   3.899   5.223  0.00  0.00    +0.000 HD
ENDBRANCH   1  10
BRANCH   5  14
ATOM     14  C   UNL     1      43.511   5.099  10.944  0.00  0.00    +0.000 C 
BRANCH  14  15
ATOM     15  C   UNL     1      44.354   6.277  11.370  0.00  0.00    +0.000 A 
ATOM     16  C   UNL     1      43.956   7.588  11.092  0.00  0.00    +0.000 A 
ATOM     17  C   UNL     1      44.643   8.666  11.641  0.00  0.00    +0.000 A 
ATOM     18  C   UNL     1      45.725   8.447  12.498  0.00  0.00    +0.000 A 
ATOM     19  C   UNL     1      46.164   7.147  12.804  0.00  0.00    +0.000 A 
ATOM     20  C   UNL     1      45.479   6.076  12.193  0.00  0.00    +0.000 A 
BRANCH  19  21
ATOM     21  C   UNL     1      47.246   6.908  13.782  0.00  0.00    +0.000 A 
ATOM     22  N   UNL     1      48.116   7.912  14.019  0.00  0.00    +0.000 NA
ATOM     23  C   UNL     1      49.036   7.701  14.978  0.00  0.00    +0.000 A 
ATOM     24  C   UNL     1      49.122   6.535  15.702  0.00  0.00    +0.000 A 
ATOM     25  C   UNL     1      48.197   5.573  15.387  0.00  0.00    +0.000 A 
ATOM     26  N   UNL     1      47.250   5.730  14.440  0.00  0.00    +0.000 NA
ENDBRANCH  19  21
ENDBRANCH  14  15
ENDBRANCH   5  14
TORSDOF 4
ENDMDL
MODEL 9
REMARK VINA RESULT:    -6.396      5.152      8.059
REMARK INTER + INTRA:          -8.664
REMARK INTER:                  -8.068
REMARK INTRA:                  -0.596
REMARK UNBOUND:                -0.772
REMARK  Name = 
REMARK  4 active torsions:
REMARK  status: ('A' for Active; 'I' for Inactive)
REMARK    1  A    between atoms: C_2  and  C_4
REMARK    2  A    between atoms: N_8  and  C_9
REMARK    3  A    between atoms: C_9  and  C_10
REMARK    4  A    between atoms: C_14  and  C_15
REMARK                            x       y       z     vdW  Elec       q    Type
REMARK                         _______ _______ _______ _____ _____    ______ ____
ROOT
ATOM      1  C   UNL     1      51.121   2.598  17.470  0.00  0.00    +0.000 A 
ATOM      2  C   UNL     1      51.416   3.953  17.516  0.00  0.00    +0.000 A 
ATOM      3  C   UNL     1      50.449   4.871  17.111  0.00  0.00    +0.000 A 
ATOM      4  C   UNL     1      49.216   4.427  16.650  0.00  0.00    +0.000 A 
ATOM      5  N   UNL     1      48.196   5.289  16.300  0.00  0.00    +0.000 N 
ATOM      6  N   UNL     1      48.919   3.113  16.597  0.00  0.00    +0.000 NA
ATOM      7  C   UNL     1      49.874   2.224  16.991  0.00  0.00    +0.000 A 
ATOM      8  H   UNL     1      47.422   4.759  15.915  0.00  0.00    +0.000 HD
ENDROOT
BRANCH   1  10
ATOM      9  N   UNL     1      51.610   0.309  18.101  0.00  0.00    +0.000 N 
ATOM     10  C   UNL     1      52.092   1.571  17.897  0.00  0.00    +0.000 C 
ATOM     11  O   UNL     1      53.277   1.839  18.052  0.00  0.00    +0.000 OA
ATOM     12  H   UNL     1      52.292  -0.405  18.327  0.00  0.00    +0.000 HD
ATOM     13  H   UNL     1      50.710   0.006  17.760  0.00  0.00    +0.000 HD
ENDBRANCH   1  10
BRANCH   5  14
ATOM     14  C   UNL     1      48.455   6.584  15.707  0.00  0.00    +0.000 C 
BRANCH  14  15
ATOM     15  C   UNL     1      47.947   6.726  14.292  0.00  0.00    +0.000 A 
ATOM     16  C   UNL     1      48.621   7.521  13.360  0.00  0.00    +0.000 A 
ATOM     17  C   UNL     1      48.251   7.504  12.019  0.00  0.00    +0.000 A 
ATOM     18  C   UNL     1      47.214   6.672  11.587  0.00  0.00    +0.000 A 
ATOM     19  C   UNL     1      46.505   5.858  12.488  0.00  0.00    +0.000 A 
ATOM     20  C   UNL     1      46.871   5.934  13.848  0.00  0.00    +0.000 A 
BRANCH  19  21
ATOM     21  C   UNL     1      45.473   4.909  12.022  0.00  0.00    +0.000 A 
ATOM     22  N   UNL     1      45.007   3.999  12.903  0.00  0.00    +0.000 NA
ATOM     23  C   UNL     1      44.004   3.207  12.481  0.00  0.00    +0.000 A 
ATOM     24  C   UNL     1      43.455   3.285  11.224  0.00  0.00    +0.000 A 
ATOM     25  C   UNL     1      43.997   4.237  10.399  0.00  0.00    +0.000 A 
ATOM     26  N   UNL     1      44.998   5.061  10.768  0.00  0.00    +0.000 NA
ENDBRANCH  19  21
ENDBRANCH  14  15
ENDBRANCH   5  14
TORSDOF 4
ENDMDL
