MODEL 1
REMARK VINA RESULT:    -7.947      0.000      0.000
REMARK INTER + INTRA:         -11.725
REMARK INTER:                 -10.735
REMARK INTRA:                  -0.990
REMARK UNBOUND:                -0.990
REMARK  Name = 
REMARK  7 active torsions:
REMARK  status: ('A' for Active; 'I' for Inactive)
REMARK    1  A    between atoms: C_1  and  C_2
REMARK    2  A    between atoms: C_2  and  C_3
REMARK    3  A    between atoms: C_2  and  C_15
REMARK    4  A    between atoms: C_3  and  N_4
REMARK    5  A    between atoms: N_4  and  C_5
REMARK    6  A    between atoms: C_8  and  C_9
REMARK    7  A    between atoms: C_19  and  C_20
REMARK                            x       y       z     vdW  Elec       q    Type
REMARK                         _______ _______ _______ _____ _____    ______ ____
ROOT
ATOM      1  N   UNL     1      43.771   3.158  10.608  0.00  0.00    +0.000 N 
ATOM      2  H   UNL     1      43.126   3.930  10.448  0.00  0.00    +0.000 HD
ENDROOT
BRANCH   1   3
ATOM      3  C   UNL     1      44.690   3.033   9.557  0.00  0.00    +0.000 A 
ATOM      4  C   UNL     1      45.026   4.153   8.782  0.00  0.00    +0.000 A 
ATOM      5  C   UNL     1      45.911   4.045   7.699  0.00  0.00    +0.000 A 
ATOM      6  C   UNL     1      46.452   2.801   7.352  0.00  0.00    +0.000 A 
ATOM      7  C   UNL     1      46.076   1.684   8.091  0.00  0.00    +0.000 A 
ATOM      8  F   UNL     1      46.541   0.459   7.798  0.00  0.00    +0.000 F 
ATOM      9  C   UNL     1      45.199   1.794   9.160  0.00  0.00    +0.000 A 
BRANCH   6  10
ATOM     10  C   UNL     1      47.394   2.709   6.207  0.00  0.00    +0.000 C 
ATOM     11  N   UNL     1      48.699   2.404   6.478  0.00  0.00    +0.000 N 
ATOM     12  O   UNL     1      47.023   2.901   5.059  0.00  0.00    +0.000 OA
ATOM     13  H   UNL     1      49.041   2.228   7.414  0.00  0.00    +0.000 HD
ATOM     14  H   UNL     1      49.347   2.330   5.706  0.00  0.00    +0.000 HD
ENDBRANCH   6  10
ENDBRANCH   1   3
BRANCH   1  15
ATOM     15  C   UNL     1      44.328   3.191  11.960  0.00  0.00    +0.000 C 
BRANCH  15  17
ATOM     16  C   UNL     1      43.002   5.362  12.314  0.00  0.00    +0.000 C 
ATOM     17  C   UNL     1      44.287   4.607  12.439  0.00  0.00    +0.000 C 
BRANCH  17  18
ATOM     18  C   UNL     1      45.558   5.337  12.534  0.00  0.00    +0.000 A 
ATOM     19  C   UNL     1      45.966   6.213  11.521  0.00  0.00    +0.000 A 
ATOM     20  C   UNL     1      47.135   6.961  11.670  0.00  0.00    +0.000 A 
ATOM     21  C   UNL     1      47.896   6.843  12.834  0.00  0.00    +0.000 A 
ATOM     22  C   UNL     1      47.499   5.961  13.838  0.00  0.00    +0.000 A 
ATOM     23  C   UNL     1      46.339   5.204  13.683  0.00  0.00    +0.000 A 
BRANCH  22  24
ATOM     24  C   UNL     1      48.256   5.843  15.048  0.00  0.00    +0.000 C 
ATOM     25  N   UNL     1      48.890   5.757  16.015  0.00  0.00    +0.000 NA
ENDBRANCH  22  24
ENDBRANCH  17  18
ENDBRANCH  15  17
ENDBRANCH   1  15
TORSDOF 6
ENDMDL
MODEL 2
REMARK VINA RESULT:    -7.891      1.838      2.201
REMARK INTER + INTRA:         -11.649
REMARK INTER:                 -10.856
REMARK INTRA:                  -0.793
REMARK UNBOUND:                -0.990
REMARK  Name = 
REMARK  7 active torsions:
REMARK  status: ('A' for Active; 'I' for Inactive)
REMARK    1  A    between atoms: C_1  and  C_2
REMARK    2  A    between atoms: C_2  and  C_3
REMARK    3  A    between atoms: C_2  and  C_15
REMARK    4  A    between atoms: C_3  and  N_4
REMARK    5  A    between atoms: N_4  and  C_5
REMARK    6  A    between atoms: C_8  and  C_9
REMARK    7  A    between atoms: C_19  and  C_20
REMARK                            x       y       z     vdW  Elec       q    Type
REMARK                         _______ _______ _______ _____ _____    ______ ____
ROOT
ATOM      1  N   UNL     1      43.883   4.946   9.976  0.00  0.00    +0.000 N 
ATOM      2  H   UNL     1      44.011   5.937   9.778  0.00  0.00    +0.000 HD
ENDROOT
BRANCH   1   3
ATOM      3  C   UNL     1      44.776   4.156   9.239  0.00  0.00    +0.000 A 
ATOM      4  C   UNL     1      45.707   4.764   8.383  0.00  0.00    +0.000 A 
ATOM      5  C   UNL     1      46.583   3.994   7.604  0.00  0.00    +0.000 A 
ATOM      6  C   UNL     1      46.519   2.595   7.643  0.00  0.00    +0.000 A 
ATOM      7  C   UNL     1      45.560   1.998   8.454  0.00  0.00    +0.000 A 
ATOM      8  F   UNL     1      45.431   0.663   8.522  0.00  0.00    +0.000 F 
ATOM      9  C   UNL     1      44.694   2.762   9.222  0.00  0.00    +0.000 A 
BRANCH   6  10
ATOM     10  C   UNL     1      47.462   1.799   6.816  0.00  0.00    +0.000 C 
ATOM     11  N   UNL     1      48.614   2.405   6.399  0.00  0.00    +0.000 N 
ATOM     12  O   UNL     1      47.220   0.641   6.512  0.00  0.00    +0.000 OA
ATOM     13  H   UNL     1      48.853   3.359   6.640  0.00  0.00    +0.000 HD
ATOM     14  H   UNL     1      49.266   1.869   5.844  0.00  0.00    +0.000 HD
ENDBRANCH   6  10
ENDBRANCH   1   3
BRANCH   1  15
ATOM     15  C   UNL     1      43.818   4.686  11.414  0.00  0.00    +0.000 C 
BRANCH  15  17
ATOM     16  C   UNL     1      45.755   3.761  12.826  0.00  0.00    +0.000 C 
ATOM     17  C   UNL     1      45.195   4.856  11.974  0.00  0.00    +0.000 C 
BRANCH  17  18
ATOM     18  C   UNL     1      45.722   6.221  12.097  0.00  0.00    +0.000 A 
ATOM     19  C   UNL     1      44.935   7.257  12.614  0.00  0.00    +0.000 A 
ATOM     20  C   UNL     1      45.482   8.527  12.803  0.00  0.00    +0.000 A 
ATOM     21  C   UNL     1      46.820   8.765  12.482  0.00  0.00    +0.000 A 
ATOM     22  C   UNL     1      47.603   7.739  11.955  0.00  0.00    +0.000 A 
ATOM     23  C   UNL     1      47.051   6.474  11.754  0.00  0.00    +0.000 A 
BRANCH  22  24
ATOM     24  C   UNL     1      48.982   7.960  11.642  0.00  0.00    +0.000 C 
ATOM     25  N   UNL     1      50.093   8.146  11.364  0.00  0.00    +0.000 NA
ENDBRANCH  22  24
ENDBRANCH  17  18
ENDBRANCH  15  17
ENDBRANCH   1  15
TORSDOF 6
ENDMDL
MODEL 3
REMARK VINA RESULT:    -7.810      1.657      2.076
REMARK INTER + INTRA:         -11.539
REMARK INTER:                 -10.702
REMARK INTRA:                  -0.837
REMARK UNBOUND:                -0.990
REMARK  Name = 
REMARK  7 active torsions:
REMARK  status: ('A' for Active; 'I' for Inactive)
REMARK    1  A    between atoms: C_1  and  C_2
REMARK    2  A    between atoms: C_2  and  C_3
REMARK    3  A    between atoms: C_2  and  C_15
REMARK    4  A    between atoms: C_3  and  N_4
REMARK    5  A    between atoms: N_4  and  C_5
REMARK    6  A    between atoms: C_8  and  C_9
REMARK    7  A    between atoms: C_19  and  C_20
REMARK                            x       y       z     vdW  Elec       q    Type
REMARK                         _______ _______ _______ _____ _____    ______ ____
ROOT
ATOM      1  N   UNL     1      43.781   3.136  10.640  0.00  0.00    +0.000 N 
ATOM      2  H   UNL     1      43.073   3.841  10.441  0.00  0.00    +0.000 HD
ENDROOT
BRANCH   1   3
ATOM      3  C   UNL     1      44.696   3.018   9.584  0.00  0.00    +0.000 A 
ATOM      4  C   UNL     1      45.049   4.148   8.832  0.00  0.00    +0.000 A 
ATOM      5  C   UNL     1      45.930   4.049   7.745  0.00  0.00    +0.000 A 
ATOM      6  C   UNL     1      46.449   2.803   7.369  0.00  0.00    +0.000 A 
ATOM      7  C   UNL     1      46.056   1.677   8.086  0.00  0.00    +0.000 A 
ATOM      8  F   UNL     1      46.500   0.451   7.766  0.00  0.00    +0.000 F 
ATOM      9  C   UNL     1      45.183   1.779   9.160  0.00  0.00    +0.000 A 
BRANCH   6  10
ATOM     10  C   UNL     1      47.387   2.720   6.221  0.00  0.00    +0.000 C 
ATOM     11  N   UNL     1      48.700   2.449   6.488  0.00  0.00    +0.000 N 
ATOM     12  O   UNL     1      47.005   2.890   5.073  0.00  0.00    +0.000 OA
ATOM     13  H   UNL     1      49.051   2.292   7.425  0.00  0.00    +0.000 HD
ATOM     14  H   UNL     1      49.345   2.381   5.713  0.00  0.00    +0.000 HD
ENDBRANCH   6  10
ENDBRANCH   1   3
BRANCH   1  15
ATOM     15  C   UNL     1      44.348   3.302  11.977  0.00  0.00    +0.000 C 
BRANCH  15  17
ATOM     16  C   UNL     1      42.639   5.214  12.115  0.00  0.00    +0.000 C 
ATOM     17  C   UNL     1      43.989   4.671  12.462  0.00  0.00    +0.000 C 
BRANCH  17  18
ATOM     18  C   UNL     1      45.084   5.591  12.795  0.00  0.00    +0.000 A 
ATOM     19  C   UNL     1      46.274   5.123  13.367  0.00  0.00    +0.000 A 
ATOM     20  C   UNL     1      47.334   6.001  13.597  0.00  0.00    +0.000 A 
ATOM     21  C   UNL     1      47.214   7.348  13.250  0.00  0.00    +0.000 A 
ATOM     22  C   UNL     1      46.026   7.819  12.692  0.00  0.00    +0.000 A 
ATOM     23  C   UNL     1      44.962   6.944  12.476  0.00  0.00    +0.000 A 
BRANCH  22  24
ATOM     24  C   UNL     1      45.893   9.192  12.309  0.00  0.00    +0.000 C 
ATOM     25  N   UNL     1      45.802  10.311  12.019  0.00  0.00    +0.000 NA
ENDBRANCH  22  24
ENDBRANCH  17  18
ENDBRANCH  15  17
ENDBRANCH   1  15
TORSDOF 6
ENDMDL
MODEL 4
REMARK VINA RESULT:    -7.796      1.690      2.093
REMARK INTER + INTRA:         -11.521
REMARK INTER:                 -10.922
REMARK INTRA:                  -0.599
REMARK UNBOUND:                -0.990
REMARK  Name = 
REMARK  7 active torsions:
REMARK  status: ('A' for Active; 'I' for Inactive)
REMARK    1  A    between atoms: C_1  and  C_2
REMARK    2  A    between atoms: C_2  and  C_3
REMARK    3  A    between atoms: C_2  and  C_15
REMARK    4  A    between atoms: C_3  and  N_4
REMARK    5  A    between atoms: N_4  and  C_5
REMARK    6  A    between atoms: C_8  and  C_9
REMARK    7  A    between atoms: C_19  and  C_20
REMARK                            x       y       z     vdW  Elec       q    Type
REMARK                         _______ _______ _______ _____ _____    ______ ____
ROOT
ATOM      1  N   UNL     1      43.705   4.974   9.801  0.00  0.00    +0.000 N 
ATOM      2  H   UNL     1      43.885   5.905   9.426  0.00  0.00    +0.000 HD
ENDROOT
BRANCH   1   3
ATOM      3  C   UNL     1      44.502   4.008   9.173  0.00  0.00    +0.000 A 
ATOM      4  C   UNL     1      44.404   2.662   9.555  0.00  0.00    +0.000 A 
ATOM      5  C   UNL     1      45.220   1.681   8.970  0.00  0.00    +0.000 A 
ATOM      6  C   UNL     1      46.177   2.040   8.012  0.00  0.00    +0.000 A 
ATOM      7  C   UNL     1      46.306   3.383   7.674  0.00  0.00    +0.000 A 
ATOM      8  F   UNL     1      47.217   3.797   6.779  0.00  0.00    +0.000 F 
ATOM      9  C   UNL     1      45.498   4.350   8.255  0.00  0.00    +0.000 A 
BRANCH   6  10
ATOM     10  C   UNL     1      47.026   0.987   7.399  0.00  0.00    +0.000 C 
ATOM     11  N   UNL     1      46.731  -0.317   7.685  0.00  0.00    +0.000 N 
ATOM     12  O   UNL     1      47.961   1.269   6.665  0.00  0.00    +0.000 OA
ATOM     13  H   UNL     1      45.958  -0.589   8.281  0.00  0.00    +0.000 HD
ATOM     14  H   UNL     1      47.296  -1.042   7.266  0.00  0.00    +0.000 HD
ENDBRANCH   6  10
ENDBRANCH   1   3
BRANCH   1  15
ATOM     15  C   UNL     1      43.708   4.971  11.263  0.00  0.00    +0.000 C 
BRANCH  15  17
ATOM     16  C   UNL     1      44.038   7.511  11.082  0.00  0.00    +0.000 C 
ATOM     17  C   UNL     1      44.405   6.212  11.724  0.00  0.00    +0.000 C 
BRANCH  17  18
ATOM     18  C   UNL     1      45.711   6.063  12.380  0.00  0.00    +0.000 A 
ATOM     19  C   UNL     1      46.817   6.817  11.970  0.00  0.00    +0.000 A 
ATOM     20  C   UNL     1      48.025   6.723  12.663  0.00  0.00    +0.000 A 
ATOM     21  C   UNL     1      48.131   5.880  13.771  0.00  0.00    +0.000 A 
ATOM     22  C   UNL     1      47.036   5.119  14.173  0.00  0.00    +0.000 A 
ATOM     23  C   UNL     1      45.832   5.203  13.472  0.00  0.00    +0.000 A 
BRANCH  22  24
ATOM     24  C   UNL     1      47.120   4.267  15.321  0.00  0.00    +0.000 C 
ATOM     25  N   UNL     1      47.183   3.597  16.265  0.00  0.00    +0.000 NA
ENDBRANCH  22  24
ENDBRANCH  17  18
ENDBRANCH  15  17
ENDBRANCH   1  15
TORSDOF 6
ENDMDL
MODEL 5
REMARK VINA RESULT:    -6.991      3.348      6.527
REMARK INTER + INTRA:         -10.433
REMARK INTER:                  -9.513
REMARK INTRA:                  -0.921
REMARK UNBOUND:                -0.990
REMARK  Name = 
REMARK  7 active torsions:
REMARK  status: ('A' for Active; 'I' for Inactive)
REMARK    1  A    between atoms: C_1  and  C_2
REMARK    2  A    between atoms: C_2  and  C_3
REMARK    3  A    between atoms: C_2  and  C_15
REMARK    4  A    between atoms: C_3  and  N_4
REMARK    5  A    between atoms: N_4  and  C_5
REMARK    6  A    between atoms: C_8  and  C_9
REMARK    7  A    between atoms: C_19  and  C_20
REMARK                            x       y       z     vdW  Elec       q    Type
REMARK                         _______ _______ _______ _____ _____    ______ ____
ROOT
ATOM      1  N   UNL     1      44.766   4.902  12.545  0.00  0.00    +0.000 N 
ATOM      2  H   UNL     1      44.981   3.932  12.771  0.00  0.00    +0.000 HD
ENDROOT
BRANCH   1   3
ATOM      3  C   UNL     1      45.911   5.707  12.602  0.00  0.00    +0.000 A 
ATOM      4  C   UNL     1      46.256   6.516  11.508  0.00  0.00    +0.000 A 
ATOM      5  C   UNL     1      47.420   7.299  11.524  0.00  0.00    +0.000 A 
ATOM      6  C   UNL     1      48.281   7.260  12.628  0.00  0.00    +0.000 A 
ATOM      7  C   UNL     1      47.962   6.417  13.689  0.00  0.00    +0.000 A 
ATOM      8  F   UNL     1      48.755   6.316  14.768  0.00  0.00    +0.000 F 
ATOM      9  C   UNL     1      46.811   5.643  13.668  0.00  0.00    +0.000 A 
BRANCH   6  10
ATOM     10  C   UNL     1      49.504   8.102  12.630  0.00  0.00    +0.000 C 
ATOM     11  N   UNL     1      50.712   7.473  12.524  0.00  0.00    +0.000 N 
ATOM     12  O   UNL     1      49.439   9.318  12.726  0.00  0.00    +0.000 OA
ATOM     13  H   UNL     1      50.805   6.468  12.432  0.00  0.00    +0.000 HD
ATOM     14  H   UNL     1      51.550   8.037  12.514  0.00  0.00    +0.000 HD
ENDBRANCH   6  10
ENDBRANCH   1   3
BRANCH   1  15
ATOM     15  C   UNL     1      43.956   5.007  11.332  0.00  0.00    +0.000 C 
BRANCH  15  17
ATOM     16  C   UNL     1      43.456   2.491  11.475  0.00  0.00    +0.000 C 
ATOM     17  C   UNL     1      43.934   3.662  10.676  0.00  0.00    +0.000 C 
BRANCH  17  18
ATOM     18  C   UNL     1      44.811   3.449   9.518  0.00  0.00    +0.000 A 
ATOM     19  C   UNL     1      45.334   4.530   8.797  0.00  0.00    +0.000 A 
ATOM     20  C   UNL     1      46.234   4.307   7.753  0.00  0.00    +0.000 A 
ATOM     21  C   UNL     1      46.619   3.005   7.430  0.00  0.00    +0.000 A 
ATOM     22  C   UNL     1      46.090   1.927   8.137  0.00  0.00    +0.000 A 
ATOM     23  C   UNL     1      45.181   2.149   9.171  0.00  0.00    +0.000 A 
BRANCH  22  24
ATOM     24  C   UNL     1      46.492   0.586   7.834  0.00  0.00    +0.000 C 
ATOM     25  N   UNL     1      46.794  -0.508   7.595  0.00  0.00    +0.000 NA
ENDBRANCH  22  24
ENDBRANCH  17  18
ENDBRANCH  15  17
ENDBRANCH   1  15
TORSDOF 6
ENDMDL
MODEL 6
REMARK VINA RESULT:    -6.354      3.802      7.461
REMARK INTER + INTRA:          -9.573
REMARK INTER:                  -8.955
REMARK INTRA:                  -0.618
REMARK UNBOUND:                -0.990
REMARK  Name = 
REMARK  7 active torsions:
REMARK  status: ('A' for Active; 'I' for Inactive)
REMARK    1  A    between atoms: C_1  and  C_2
REMARK    2  A    between atoms: C_2  and  C_3
REMARK    3  A    between atoms: C_2  and  C_15
REMARK    4  A    between atoms: C_3  and  N_4
REMARK    5  A    between atoms: N_4  and  C_5
REMARK    6  A    between atoms: C_8  and  C_9
REMARK    7  A    between atoms: C_19  and  C_20
REMARK                            x       y       z     vdW  Elec       q    Type
REMARK                         _______ _______ _______ _____ _____    ______ ____
ROOT
ATOM      1  N   UNL     1      46.102   4.019  12.633  0.00  0.00    +0.000 N 
ATOM      2  H   UNL     1      46.705   3.833  11.833  0.00  0.00    +0.000 HD
ENDROOT
BRANCH   1   3
ATOM      3  C   UNL     1      46.791   4.701  13.645  0.00  0.00    +0.000 A 
ATOM      4  C   UNL     1      47.449   5.906  13.357  0.00  0.00    +0.000 A 
ATOM      5  C   UNL     1      48.180   6.586  14.343  0.00  0.00    +0.000 A 
ATOM      6  C   UNL     1      48.294   6.051  15.632  0.00  0.00    +0.000 A 
ATOM      7  C   UNL     1      47.683   4.829  15.898  0.00  0.00    +0.000 A 
ATOM      8  F   UNL     1      47.771   4.250  17.107  0.00  0.00    +0.000 F 
ATOM      9  C   UNL     1      46.963   4.159  14.921  0.00  0.00    +0.000 A 
BRANCH   6  10
ATOM     10  C   UNL     1      49.065   6.790  16.663  0.00  0.00    +0.000 C 
ATOM     11  N   UNL     1      48.463   7.858  17.267  0.00  0.00    +0.000 N 
ATOM     12  O   UNL     1      50.202   6.462  16.965  0.00  0.00    +0.000 OA
ATOM     13  H   UNL     1      47.519   8.153  17.050  0.00  0.00    +0.000 HD
ATOM     14  H   UNL     1      48.975   8.363  17.977  0.00  0.00    +0.000 HD
ENDBRANCH   6  10
ENDBRANCH   1   3
BRANCH   1  15
ATOM     15  C   UNL     1      44.819   4.588  12.222  0.00  0.00    +0.000 C 
BRANCH  15  17
ATOM     16  C   UNL     1      43.285   2.593  11.713  0.00  0.00    +0.000 C 
ATOM     17  C   UNL     1      44.206   3.662  11.219  0.00  0.00    +0.000 C 
BRANCH  17  18
ATOM     18  C   UNL     1      44.883   3.506   9.926  0.00  0.00    +0.000 A 
ATOM     19  C   UNL     1      45.221   4.619   9.146  0.00  0.00    +0.000 A 
ATOM     20  C   UNL     1      45.939   4.453   7.961  0.00  0.00    +0.000 A 
ATOM     21  C   UNL     1      46.329   3.175   7.554  0.00  0.00    +0.000 A 
ATOM     22  C   UNL     1      45.983   2.065   8.321  0.00  0.00    +0.000 A 
ATOM     23  C   UNL     1      45.253   2.230   9.498  0.00  0.00    +0.000 A 
BRANCH  22  24
ATOM     24  C   UNL     1      46.394   0.750   7.930  0.00  0.00    +0.000 C 
ATOM     25  N   UNL     1      46.746  -0.305   7.600  0.00  0.00    +0.000 NA
ENDBRANCH  22  24
ENDBRANCH  17  18
ENDBRANCH  15  17
ENDBRANCH   1  15
TORSDOF 6
ENDMDL
MODEL 7
REMARK VINA RESULT:    -6.120      3.711      7.326
REMARK INTER + INTRA:          -9.257
REMARK INTER:                  -8.751
REMARK INTRA:                  -0.506
REMARK UNBOUND:                -0.990
REMARK  Name = 
REMARK  7 active torsions:
REMARK  status: ('A' for Active; 'I' for Inactive)
REMARK    1  A    between atoms: C_1  and  C_2
REMARK    2  A    between atoms: C_2  and  C_3
REMARK    3  A    between atoms: C_2  and  C_15
REMARK    4  A    between atoms: C_3  and  N_4
REMARK    5  A    between atoms: N_4  and  C_5
REMARK    6  A    between atoms: C_8  and  C_9
REMARK    7  A    between atoms: C_19  and  C_20
REMARK                            x       y       z     vdW  Elec       q    Type
REMARK                         _______ _______ _______ _____ _____    ______ ____
ROOT
ATOM      1  N   UNL     1      46.254   5.904  11.487  0.00  0.00    +0.000 N 
ATOM      2  H   UNL     1      46.936   6.263  10.819  0.00  0.00    +0.000 HD
ENDROOT
BRANCH   1   3
ATOM      3  C   UNL     1      46.825   5.722  12.754  0.00  0.00    +0.000 A 
ATOM      4  C   UNL     1      46.434   4.635  13.550  0.00  0.00    +0.000 A 
ATOM      5  C   UNL     1      46.959   4.454  14.838  0.00  0.00    +0.000 A 
ATOM      6  C   UNL     1      47.866   5.382  15.366  0.00  0.00    +0.000 A 
ATOM      7  C   UNL     1      48.212   6.486  14.593  0.00  0.00    +0.000 A 
ATOM      8  F   UNL     1      49.059   7.423  15.048  0.00  0.00    +0.000 F 
ATOM      9  C   UNL     1      47.688   6.662  13.321  0.00  0.00    +0.000 A 
BRANCH   6  10
ATOM     10  C   UNL     1      48.418   5.168  16.728  0.00  0.00    +0.000 C 
ATOM     11  N   UNL     1      47.832   5.838  17.766  0.00  0.00    +0.000 N 
ATOM     12  O   UNL     1      49.366   4.422  16.922  0.00  0.00    +0.000 OA
ATOM     13  H   UNL     1      47.039   6.456  17.646  0.00  0.00    +0.000 HD
ATOM     14  H   UNL     1      48.194   5.693  18.698  0.00  0.00    +0.000 HD
ENDBRANCH   6  10
ENDBRANCH   1   3
BRANCH   1  15
ATOM     15  C   UNL     1      45.003   6.660  11.439  0.00  0.00    +0.000 C 
BRANCH  15  17
ATOM     16  C   UNL     1      42.584   5.816  11.618  0.00  0.00    +0.000 C 
ATOM     17  C   UNL     1      43.926   5.736  10.963  0.00  0.00    +0.000 C 
BRANCH  17  18
ATOM     18  C   UNL     1      44.333   4.505  10.274  0.00  0.00    +0.000 A 
ATOM     19  C   UNL     1      43.957   3.246  10.759  0.00  0.00    +0.000 A 
ATOM     20  C   UNL     1      44.280   2.094  10.042  0.00  0.00    +0.000 A 
ATOM     21  C   UNL     1      44.975   2.194   8.835  0.00  0.00    +0.000 A 
ATOM     22  C   UNL     1      45.362   3.444   8.356  0.00  0.00    +0.000 A 
ATOM     23  C   UNL     1      45.050   4.595   9.080  0.00  0.00    +0.000 A 
BRANCH  22  24
ATOM     24  C   UNL     1      46.054   3.567   7.109  0.00  0.00    +0.000 C 
ATOM     25  N   UNL     1      46.638   3.670   6.112  0.00  0.00    +0.000 NA
ENDBRANCH  22  24
ENDBRANCH  17  18
ENDBRANCH  15  17
ENDBRANCH   1  15
TORSDOF 6
ENDMDL
MODEL 8
REMARK VINA RESULT:    -6.030      4.277      7.855
REMARK INTER + INTRA:          -9.135
REMARK INTER:                  -8.208
REMARK INTRA:                  -0.927
REMARK UNBOUND:                -0.990
REMARK  Name = 
REMARK  7 active torsions:
REMARK  status: ('A' for Active; 'I' for Inactive)
REMARK    1  A    between atoms: C_1  and  C_2
REMARK    2  A    between atoms: C_2  and  C_3
REMARK    3  A    between atoms: C_2  and  C_15
REMARK    4  A    between atoms: C_3  and  N_4
REMARK    5  A    between atoms: N_4  and  C_5
REMARK    6  A    between atoms: C_8  and  C_9
REMARK    7  A    between atoms: C_19  and  C_20
REMARK                            x       y       z     vdW  Elec       q    Type
REMARK                         _______ _______ _______ _____ _____    ______ ____
ROOT
ATOM      1  N   UNL     1      47.391   6.982  13.936  0.00  0.00    +0.000 N 
ATOM      2  H   UNL     1      46.516   7.428  14.212  0.00  0.00    +0.000 HD
ENDROOT
BRANCH   1   3
ATOM      3  C   UNL     1      47.811   6.047  14.892  0.00  0.00    +0.000 A 
ATOM      4  C   UNL     1      47.190   4.792  14.966  0.00  0.00    +0.000 A 
ATOM      5  C   UNL     1      47.564   3.854  15.940  0.00  0.00    +0.000 A 
ATOM      6  C   UNL     1      48.551   4.172  16.883  0.00  0.00    +0.000 A 
ATOM      7  C   UNL     1      49.128   5.437  16.837  0.00  0.00    +0.000 A 
ATOM      8  F   UNL     1      50.064   5.814  17.723  0.00  0.00    +0.000 F 
ATOM      9  C   UNL     1      48.754   6.362  15.873  0.00  0.00    +0.000 A 
BRANCH   6  10
ATOM     10  C   UNL     1      48.939   3.163  17.900  0.00  0.00    +0.000 C 
ATOM     11  N   UNL     1      48.290   3.188  19.103  0.00  0.00    +0.000 N 
ATOM     12  O   UNL     1      49.812   2.338  17.678  0.00  0.00    +0.000 OA
ATOM     13  H   UNL     1      47.555   3.850  19.319  0.00  0.00    +0.000 HD
ATOM     14  H   UNL     1      48.540   2.500  19.800  0.00  0.00    +0.000 HD
ENDBRANCH   6  10
ENDBRANCH   1   3
BRANCH   1  15
ATOM     15  C   UNL     1      47.348   6.522  12.549  0.00  0.00    +0.000 C 
BRANCH  15  17
ATOM     16  C   UNL     1      45.328   8.046  12.110  0.00  0.00    +0.000 C 
ATOM     17  C   UNL     1      45.946   6.685  12.053  0.00  0.00    +0.000 C 
BRANCH  17  18
ATOM     18  C   UNL     1      45.090   5.493  12.011  0.00  0.00    +0.000 A 
ATOM     19  C   UNL     1      44.065   5.305  12.947  0.00  0.00    +0.000 A 
ATOM     20  C   UNL     1      43.208   4.209  12.837  0.00  0.00    +0.000 A 
ATOM     21  C   UNL     1      43.367   3.300  11.789  0.00  0.00    +0.000 A 
ATOM     22  C   UNL     1      44.394   3.478  10.864  0.00  0.00    +0.000 A 
ATOM     23  C   UNL     1      45.259   4.566  10.982  0.00  0.00    +0.000 A 
BRANCH  22  24
ATOM     24  C   UNL     1      44.558   2.569   9.770  0.00  0.00    +0.000 C 
ATOM     25  N   UNL     1      44.708   1.820   8.897  0.00  0.00    +0.000 NA
ENDBRANCH  22  24
ENDBRANCH  17  18
ENDBRANCH  15  17
ENDBRANCH   1  15
TORSDOF 6
ENDMDL
MODEL 9
REMARK VINA RESULT:    -5.965      3.352      5.526
REMARK INTER + INTRA:          -9.047
REMARK INTER:                  -8.217
REMARK INTRA:                  -0.830
REMARK UNBOUND:                -0.990
REMARK  Name = 
REMARK  7 active torsions:
REMARK  status: ('A' for Active; 'I' for Inactive)
REMARK    1  A    between atoms: C_1  and  C_2
REMARK    2  A    between atoms: C_2  and  C_3
REMARK    3  A    between atoms: C_2  and  C_15
REMARK    4  A    between atoms: C_3  and  N_4
REMARK    5  A    between atoms: N_4  and  C_5
REMARK    6  A    between atoms: C_8  and  C_9
REMARK    7  A    between atoms: C_19  and  C_20
REMARK                            x       y       z     vdW  Elec       q    Type
REMARK                         _______ _______ _______ _____ _____    ______ ____
ROOT
ATOM      1  N   UNL     1      46.949   7.520  13.591  0.00  0.00    +0.000 N 
ATOM      2  H   UNL     1      46.745   8.459  13.249  0.00  0.00    +0.000 HD
ENDROOT
BRANCH   1   3
ATOM      3  C   UNL     1      46.228   6.550  12.881  0.00  0.00    +0.000 A 
ATOM      4  C   UNL     1      45.218   6.940  11.989  0.00  0.00    +0.000 A 
ATOM      5  C   UNL     1      44.455   5.987  11.297  0.00  0.00    +0.000 A 
ATOM      6  C   UNL     1      44.669   4.619  11.515  0.00  0.00    +0.000 A 
ATOM      7  C   UNL     1      45.636   4.238  12.439  0.00  0.00    +0.000 A 
ATOM      8  F   UNL     1      45.877   2.945  12.710  0.00  0.00    +0.000 F 
ATOM      9  C   UNL     1      46.387   5.183  13.122  0.00  0.00    +0.000 A 
BRANCH   6  10
ATOM     10  C   UNL     1      43.856   3.626  10.767  0.00  0.00    +0.000 C 
ATOM     11  N   UNL     1      44.086   3.494   9.426  0.00  0.00    +0.000 N 
ATOM     12  O   UNL     1      43.006   2.949  11.325  0.00  0.00    +0.000 OA
ATOM     13  H   UNL     1      44.789   4.030   8.932  0.00  0.00    +0.000 HD
ATOM     14  H   UNL     1      43.545   2.815   8.909  0.00  0.00    +0.000 HD
ENDBRANCH   6  10
ENDBRANCH   1   3
BRANCH   1  15
ATOM     15  C   UNL     1      48.387   7.294  13.725  0.00  0.00    +0.000 C 
BRANCH  15  17
ATOM     16  C   UNL     1      49.197   8.921  15.540  0.00  0.00    +0.000 C 
ATOM     17  C   UNL     1      48.760   7.544  15.152  0.00  0.00    +0.000 C 
BRANCH  17  18
ATOM     18  C   UNL     1      49.162   6.392  15.969  0.00  0.00    +0.000 A 
ATOM     19  C   UNL     1      50.448   6.305  16.517  0.00  0.00    +0.000 A 
ATOM     20  C   UNL     1      50.780   5.245  17.360  0.00  0.00    +0.000 A 
ATOM     21  C   UNL     1      49.828   4.270  17.666  0.00  0.00    +0.000 A 
ATOM     22  C   UNL     1      48.552   4.347  17.113  0.00  0.00    +0.000 A 
ATOM     23  C   UNL     1      48.224   5.400  16.259  0.00  0.00    +0.000 A 
BRANCH  22  24
ATOM     24  C   UNL     1      47.556   3.369  17.434  0.00  0.00    +0.000 C 
ATOM     25  N   UNL     1      46.734   2.588  17.677  0.00  0.00    +0.000 NA
ENDBRANCH  22  24
ENDBRANCH  17  18
ENDBRANCH  15  17
ENDBRANCH   1  15
TORSDOF 6
ENDMDL
