MODEL 1
REMARK VINA RESULT:    -7.803      0.000      0.000
REMARK INTER + INTRA:          -9.934
REMARK INTER:                  -9.628
REMARK INTRA:                  -0.306
REMARK UNBOUND:                -0.306
REMARK  Name = 
REMARK  7 active torsions:
REMARK  status: ('A' for Active; 'I' for Inactive)
REMARK    1  A    between atoms: C_1  and  C_2
REMARK    2  A    between atoms: C_2  and  C_3
REMARK    3  A    between atoms: N_7  and  C_8
REMARK    4  A    between atoms: C_8  and  C_9
REMARK    5  A    between atoms: C_8  and  C_10
REMARK    6  A    between atoms: C_13  and  C_14
REMARK    7  A    between atoms: N_16  and  C_17
REMARK                            x       y       z     vdW  Elec       q    Type
REMARK                         _______ _______ _______ _____ _____    ______ ____
ROOT
ATOM      1  C   UNL     1      44.109   4.860  11.014  0.00  0.00    +0.000 C 
ATOM      2  C   UNL     1      42.972   5.852  11.291  0.00  0.00    +0.000 C 
ENDROOT
BRANCH   1   7
ATOM      3  C   UNL     1      46.453   2.092   7.572  0.00  0.00    +0.000 A 
ATOM      4  C   UNL     1      46.582   3.391   7.109  0.00  0.00    +0.000 A 
ATOM      5  C   UNL     1      46.008   4.429   7.845  0.00  0.00    +0.000 A 
ATOM      6  C   UNL     1      45.323   4.150   9.019  0.00  0.00    +0.000 A 
ATOM      7  N   UNL     1      44.850   5.221   9.797  0.00  0.00    +0.000 N 
ATOM      8  N   UNL     1      45.224   2.871   9.435  0.00  0.00    +0.000 NA
ATOM      9  N   UNL     1      45.780   1.835   8.709  0.00  0.00    +0.000 NA
ATOM     10  H   UNL     1      44.346   5.897   9.230  0.00  0.00    +0.000 HD
BRANCH   3  12
ATOM     11  C   UNL     1      46.705  -0.388   7.493  0.00  0.00    +0.000 C 
ATOM     12  C   UNL     1      47.123   0.940   6.877  0.00  0.00    +0.000 C 
ENDBRANCH   3  12
ENDBRANCH   1   7
BRANCH   1  13
ATOM     13  C   UNL     1      45.078   4.797  12.194  0.00  0.00    +0.000 A 
ATOM     14  C   UNL     1      45.533   3.558  12.653  0.00  0.00    +0.000 A 
ATOM     15  N   UNL     1      46.338   3.410  13.739  0.00  0.00    +0.000 NA
ATOM     16  C   UNL     1      46.691   4.577  14.348  0.00  0.00    +0.000 A 
ATOM     17  C   UNL     1      46.282   5.815  13.880  0.00  0.00    +0.000 A 
ATOM     18  N   UNL     1      45.479   5.953  12.794  0.00  0.00    +0.000 NA
BRANCH  16  19
ATOM     19  C   UNL     1      47.527   4.502  15.580  0.00  0.00    +0.000 C 
ATOM     20  O   UNL     1      48.334   5.391  15.843  0.00  0.00    +0.000 OA
ATOM     21  N   UNL     1      47.313   3.395  16.373  0.00  0.00    +0.000 N 
ATOM     22  C   UNL     1      48.016   3.177  17.612  0.00  0.00    +0.000 C 
ATOM     23  H   UNL     1      46.617   2.728  16.054  0.00  0.00    +0.000 HD
ENDBRANCH  16  19
ENDBRANCH   1  13
TORSDOF 4
ENDMDL
MODEL 2
REMARK VINA RESULT:    -7.789      1.412      1.771
REMARK INTER + INTRA:          -9.917
REMARK INTER:                  -9.501
REMARK INTRA:                  -0.416
REMARK UNBOUND:                -0.306
REMARK  Name = 
REMARK  7 active torsions:
REMARK  status: ('A' for Active; 'I' for Inactive)
REMARK    1  A    between atoms: C_1  and  C_2
REMARK    2  A    between atoms: C_2  and  C_3
REMARK    3  A    between atoms: N_7  and  C_8
REMARK    4  A    between atoms: C_8  and  C_9
REMARK    5  A    between atoms: C_8  and  C_10
REMARK    6  A    between atoms: C_13  and  C_14
REMARK    7  A    between atoms: N_16  and  C_17
REMARK                            x       y       z     vdW  Elec       q    Type
REMARK                         _______ _______ _______ _____ _____    ______ ____
ROOT
ATOM      1  C   UNL     1      43.531   4.727  11.420  0.00  0.00    +0.000 C 
ATOM      2  C   UNL     1      42.265   5.488  11.833  0.00  0.00    +0.000 C 
ENDROOT
BRANCH   1   7
ATOM      3  C   UNL     1      46.066   2.087   8.013  0.00  0.00    +0.000 A 
ATOM      4  C   UNL     1      45.674   3.230   7.336  0.00  0.00    +0.000 A 
ATOM      5  C   UNL     1      44.916   4.188   8.011  0.00  0.00    +0.000 A 
ATOM      6  C   UNL     1      44.566   3.985   9.339  0.00  0.00    +0.000 A 
ATOM      7  N   UNL     1      43.898   5.013  10.026  0.00  0.00    +0.000 N 
ATOM      8  N   UNL     1      44.971   2.859   9.961  0.00  0.00    +0.000 NA
ATOM      9  N   UNL     1      45.714   1.900   9.299  0.00  0.00    +0.000 NA
ATOM     10  H   UNL     1      43.110   5.366   9.490  0.00  0.00    +0.000 HD
BRANCH   3  12
ATOM     11  C   UNL     1      47.825   1.690   6.292  0.00  0.00    +0.000 C 
ATOM     12  C   UNL     1      46.958   1.062   7.373  0.00  0.00    +0.000 C 
ENDBRANCH   3  12
ENDBRANCH   1   7
BRANCH   1  13
ATOM     13  C   UNL     1      44.704   5.083  12.333  0.00  0.00    +0.000 A 
ATOM     14  C   UNL     1      45.281   6.353  12.259  0.00  0.00    +0.000 A 
ATOM     15  N   UNL     1      46.369   6.727  12.984  0.00  0.00    +0.000 NA
ATOM     16  C   UNL     1      46.856   5.762  13.816  0.00  0.00    +0.000 A 
ATOM     17  C   UNL     1      46.270   4.512  13.930  0.00  0.00    +0.000 A 
ATOM     18  N   UNL     1      45.182   4.149  13.204  0.00  0.00    +0.000 NA
BRANCH  16  19
ATOM     19  C   UNL     1      48.083   6.069  14.605  0.00  0.00    +0.000 C 
ATOM     20  O   UNL     1      49.085   6.516  14.054  0.00  0.00    +0.000 OA
ATOM     21  N   UNL     1      47.991   5.825  15.960  0.00  0.00    +0.000 N 
ATOM     22  C   UNL     1      49.073   6.089  16.873  0.00  0.00    +0.000 C 
ATOM     23  H   UNL     1      47.108   5.457  16.302  0.00  0.00    +0.000 HD
ENDBRANCH  16  19
ENDBRANCH   1  13
TORSDOF 4
ENDMDL
MODEL 3
REMARK VINA RESULT:    -6.639      3.333      6.133
REMARK INTER + INTRA:          -8.497
REMARK INTER:                  -7.987
REMARK INTRA:                  -0.510
REMARK UNBOUND:                -0.306
REMARK  Name = 
REMARK  7 active torsions:
REMARK  status: ('A' for Active; 'I' for Inactive)
REMARK    1  A    between atoms: C_1  and  C_2
REMARK    2  A    between atoms: C_2  and  C_3
REMARK    3  A    between atoms: N_7  and  C_8
REMARK    4  A    between atoms: C_8  and  C_9
REMARK    5  A    between atoms: C_8  and  C_10
REMARK    6  A    between atoms: C_13  and  C_14
REMARK    7  A    between atoms: N_16  and  C_17
REMARK                            x       y       z     vdW  Elec       q    Type
REMARK                         _______ _______ _______ _____ _____    ______ ____
ROOT
ATOM      1  C   UNL     1      47.666   4.209  16.700  0.00  0.00    +0.000 C 
ATOM      2  C   UNL     1      47.151   4.807  18.016  0.00  0.00    +0.000 C 
ENDROOT
BRANCH   1   7
ATOM      3  C   UNL     1      45.588   4.657  12.175  0.00  0.00    +0.000 A 
ATOM      4  C   UNL     1      46.334   5.814  12.323  0.00  0.00    +0.000 A 
ATOM      5  C   UNL     1      47.040   6.015  13.510  0.00  0.00    +0.000 A 
ATOM      6  C   UNL     1      46.985   5.062  14.518  0.00  0.00    +0.000 A 
ATOM      7  N   UNL     1      47.790   5.237  15.657  0.00  0.00    +0.000 N 
ATOM      8  N   UNL     1      46.248   3.949  14.331  0.00  0.00    +0.000 NA
ATOM      9  N   UNL     1      45.538   3.745  13.163  0.00  0.00    +0.000 NA
ATOM     10  H   UNL     1      47.700   6.175  16.035  0.00  0.00    +0.000 HD
BRANCH   3  12
ATOM     11  C   UNL     1      43.952   3.143  11.057  0.00  0.00    +0.000 C 
ATOM     12  C   UNL     1      44.879   4.338  10.889  0.00  0.00    +0.000 C 
ENDBRANCH   3  12
ENDBRANCH   1   7
BRANCH   1  13
ATOM     13  C   UNL     1      49.020   3.530  16.902  0.00  0.00    +0.000 A 
ATOM     14  C   UNL     1      49.163   2.169  16.624  0.00  0.00    +0.000 A 
ATOM     15  N   UNL     1      50.311   1.474  16.843  0.00  0.00    +0.000 NA
ATOM     16  C   UNL     1      51.338   2.217  17.346  0.00  0.00    +0.000 A 
ATOM     17  C   UNL     1      51.224   3.576  17.588  0.00  0.00    +0.000 A 
ATOM     18  N   UNL     1      50.074   4.261  17.365  0.00  0.00    +0.000 NA
BRANCH  16  19
ATOM     19  C   UNL     1      52.616   1.522  17.668  0.00  0.00    +0.000 C 
ATOM     20  O   UNL     1      53.689   2.115  17.581  0.00  0.00    +0.000 OA
ATOM     21  N   UNL     1      52.491   0.208  18.068  0.00  0.00    +0.000 N 
ATOM     22  C   UNL     1      53.621  -0.604  18.442  0.00  0.00    +0.000 C 
ATOM     23  H   UNL     1      51.550  -0.174  18.105  0.00  0.00    +0.000 HD
ENDBRANCH  16  19
ENDBRANCH   1  13
TORSDOF 4
ENDMDL
MODEL 4
REMARK VINA RESULT:    -6.572      1.926      2.667
REMARK INTER + INTRA:          -8.415
REMARK INTER:                  -9.125
REMARK INTRA:                   0.710
REMARK UNBOUND:                -0.306
REMARK  Name = 
REMARK  7 active torsions:
REMARK  status: ('A' for Active; 'I' for Inactive)
REMARK    1  A    between atoms: C_1  and  C_2
REMARK    2  A    between atoms: C_2  and  C_3
REMARK    3  A    between atoms: N_7  and  C_8
REMARK    4  A    between atoms: C_8  and  C_9
REMARK    5  A    between atoms: C_8  and  C_10
REMARK    6  A    between atoms: C_13  and  C_14
REMARK    7  A    between atoms: N_16  and  C_17
REMARK                            x       y       z     vdW  Elec       q    Type
REMARK                         _______ _______ _______ _____ _____    ______ ____
ROOT
ATOM      1  C   UNL     1      43.488   4.789  12.229  0.00  0.00    +0.000 C 
ATOM      2  C   UNL     1      42.827   5.825  11.310  0.00  0.00    +0.000 C 
ENDROOT
BRANCH   1   7
ATOM      3  C   UNL     1      45.785   3.486   7.982  0.00  0.00    +0.000 A 
ATOM      4  C   UNL     1      45.321   2.288   8.501  0.00  0.00    +0.000 A 
ATOM      5  C   UNL     1      44.637   2.299   9.717  0.00  0.00    +0.000 A 
ATOM      6  C   UNL     1      44.431   3.498  10.386  0.00  0.00    +0.000 A 
ATOM      7  N   UNL     1      43.645   3.495  11.551  0.00  0.00    +0.000 N 
ATOM      8  N   UNL     1      44.897   4.641   9.845  0.00  0.00    +0.000 NA
ATOM      9  N   UNL     1      45.585   4.640   8.646  0.00  0.00    +0.000 NA
ATOM     10  H   UNL     1      43.936   2.762  12.193  0.00  0.00    +0.000 HD
BRANCH   3  12
ATOM     11  C   UNL     1      47.632   2.603   6.560  0.00  0.00    +0.000 C 
ATOM     12  C   UNL     1      46.448   3.556   6.636  0.00  0.00    +0.000 C 
ENDBRANCH   3  12
ENDBRANCH   1   7
BRANCH   1  13
ATOM     13  C   UNL     1      44.855   5.278  12.707  0.00  0.00    +0.000 A 
ATOM     14  C   UNL     1      45.702   4.406  13.396  0.00  0.00    +0.000 A 
ATOM     15  N   UNL     1      46.902   4.780  13.915  0.00  0.00    +0.000 NA
ATOM     16  C   UNL     1      47.235   6.084  13.697  0.00  0.00    +0.000 A 
ATOM     17  C   UNL     1      46.424   6.949  12.980  0.00  0.00    +0.000 A 
ATOM     18  N   UNL     1      45.228   6.566  12.464  0.00  0.00    +0.000 NA
BRANCH  16  19
ATOM     19  C   UNL     1      48.508   6.592  14.282  0.00  0.00    +0.000 C 
ATOM     20  O   UNL     1      48.906   6.177  15.367  0.00  0.00    +0.000 OA
ATOM     21  N   UNL     1      49.178   7.526  13.519  0.00  0.00    +0.000 N 
ATOM     22  C   UNL     1      50.436   8.102  13.922  0.00  0.00    +0.000 C 
ATOM     23  H   UNL     1      48.751   7.790  12.636  0.00  0.00    +0.000 HD
ENDBRANCH  16  19
ENDBRANCH   1  13
TORSDOF 4
ENDMDL
MODEL 5
REMARK VINA RESULT:    -6.213      2.880      7.066
REMARK INTER + INTRA:          -7.972
REMARK INTER:                  -7.549
REMARK INTRA:                  -0.423
REMARK UNBOUND:                -0.306
REMARK  Name = 
REMARK  7 active torsions:
REMARK  status: ('A' for Active; 'I' for Inactive)
REMARK    1  A    between atoms: C_1  and  C_2
REMARK    2  A    between atoms: C_2  and  C_3
REMARK    3  A    between atoms: N_7  and  C_8
REMARK    4  A    between atoms: C_8  and  C_9
REMARK    5  A    between atoms: C_8  and  C_10
REMARK    6  A    between atoms: C_13  and  C_14
REMARK    7  A    between atoms: N_16  and  C_17
REMARK                            x       y       z     vdW  Elec       q    Type
REMARK                         _______ _______ _______ _____ _____    ______ ____
ROOT
ATOM      1  C   UNL     1      44.246   5.139  11.401  0.00  0.00    +0.000 C 
ATOM      2  C   UNL     1      42.751   4.827  11.548  0.00  0.00    +0.000 C 
ENDROOT
BRANCH   1   7
ATOM      3  C   UNL     1      48.399   7.049  13.428  0.00  0.00    +0.000 A 
ATOM      4  C   UNL     1      47.984   6.092  14.339  0.00  0.00    +0.000 A 
ATOM      5  C   UNL     1      46.817   5.372  14.077  0.00  0.00    +0.000 A 
ATOM      6  C   UNL     1      46.094   5.621  12.919  0.00  0.00    +0.000 A 
ATOM      7  N   UNL     1      44.986   4.808  12.626  0.00  0.00    +0.000 N 
ATOM      8  N   UNL     1      46.535   6.560  12.057  0.00  0.00    +0.000 NA
ATOM      9  N   UNL     1      47.684   7.285  12.311  0.00  0.00    +0.000 NA
ATOM     10  H   UNL     1      44.370   4.717  13.430  0.00  0.00    +0.000 HD
BRANCH   3  12
ATOM     11  C   UNL     1      50.376   7.400  14.905  0.00  0.00    +0.000 C 
ATOM     12  C   UNL     1      49.692   7.794  13.604  0.00  0.00    +0.000 C 
ENDBRANCH   3  12
ENDBRANCH   1   7
BRANCH   1  13
ATOM     13  C   UNL     1      44.850   4.373  10.224  0.00  0.00    +0.000 A 
ATOM     14  C   UNL     1      44.814   2.977  10.213  0.00  0.00    +0.000 A 
ATOM     15  N   UNL     1      45.389   2.219   9.241  0.00  0.00    +0.000 NA
ATOM     16  C   UNL     1      45.999   2.931   8.252  0.00  0.00    +0.000 A 
ATOM     17  C   UNL     1      46.008   4.316   8.228  0.00  0.00    +0.000 A 
ATOM     18  N   UNL     1      45.429   5.064   9.202  0.00  0.00    +0.000 NA
BRANCH  16  19
ATOM     19  C   UNL     1      46.705   2.178   7.176  0.00  0.00    +0.000 C 
ATOM     20  O   UNL     1      46.861   0.963   7.264  0.00  0.00    +0.000 OA
ATOM     21  N   UNL     1      47.140   2.937   6.110  0.00  0.00    +0.000 N 
ATOM     22  C   UNL     1      47.817   2.367   4.973  0.00  0.00    +0.000 C 
ATOM     23  H   UNL     1      46.950   3.934   6.148  0.00  0.00    +0.000 HD
ENDBRANCH  16  19
ENDBRANCH   1  13
TORSDOF 4
ENDMDL
MODEL 6
REMARK VINA RESULT:    -6.184      2.940      8.115
REMARK INTER + INTRA:          -7.935
REMARK INTER:                  -7.471
REMARK INTRA:                  -0.464
REMARK UNBOUND:                -0.306
REMARK  Name = 
REMARK  7 active torsions:
REMARK  status: ('A' for Active; 'I' for Inactive)
REMARK    1  A    between atoms: C_1  and  C_2
REMARK    2  A    between atoms: C_2  and  C_3
REMARK    3  A    between atoms: N_7  and  C_8
REMARK    4  A    between atoms: C_8  and  C_9
REMARK    5  A    between atoms: C_8  and  C_10
REMARK    6  A    between atoms: C_13  and  C_14
REMARK    7  A    between atoms: N_16  and  C_17
REMARK                            x       y       z     vdW  Elec       q    Type
REMARK                         _______ _______ _______ _____ _____    ______ ____
ROOT
ATOM      1  C   UNL     1      47.968   6.062  14.549  0.00  0.00    +0.000 C 
ATOM      2  C   UNL     1      47.919   7.579  14.325  0.00  0.00    +0.000 C 
ENDROOT
BRANCH   1   7
ATOM      3  C   UNL     1      50.887   4.807  18.410  0.00  0.00    +0.000 A 
ATOM      4  C   UNL     1      49.609   4.835  18.944  0.00  0.00    +0.000 A 
ATOM      5  C   UNL     1      48.539   5.177  18.116  0.00  0.00    +0.000 A 
ATOM      6  C   UNL     1      48.766   5.482  16.781  0.00  0.00    +0.000 A 
ATOM      7  N   UNL     1      47.661   5.716  15.944  0.00  0.00    +0.000 N 
ATOM      8  N   UNL     1      50.025   5.441  16.302  0.00  0.00    +0.000 NA
ATOM      9  N   UNL     1      51.093   5.113  17.116  0.00  0.00    +0.000 NA
ATOM     10  H   UNL     1      47.010   6.373  16.365  0.00  0.00    +0.000 HD
BRANCH   3  12
ATOM     11  C   UNL     1      52.759   3.168  18.574  0.00  0.00    +0.000 C 
ATOM     12  C   UNL     1      52.069   4.360  19.223  0.00  0.00    +0.000 C 
ENDBRANCH   3  12
ENDBRANCH   1   7
BRANCH   1  13
ATOM     13  C   UNL     1      46.988   5.342  13.624  0.00  0.00    +0.000 A 
ATOM     14  C   UNL     1      46.706   3.989  13.829  0.00  0.00    +0.000 A 
ATOM     15  N   UNL     1      45.902   3.257  13.011  0.00  0.00    +0.000 NA
ATOM     16  C   UNL     1      45.367   3.954  11.968  0.00  0.00    +0.000 A 
ATOM     17  C   UNL     1      45.605   5.305  11.776  0.00  0.00    +0.000 A 
ATOM     18  N   UNL     1      46.407   6.028  12.599  0.00  0.00    +0.000 NA
BRANCH  16  19
ATOM     19  C   UNL     1      44.519   3.215  10.991  0.00  0.00    +0.000 C 
ATOM     20  O   UNL     1      43.293   3.256  11.071  0.00  0.00    +0.000 OA
ATOM     21  N   UNL     1      45.206   2.518  10.020  0.00  0.00    +0.000 N 
ATOM     22  C   UNL     1      44.543   1.770   8.982  0.00  0.00    +0.000 C 
ATOM     23  H   UNL     1      46.220   2.561  10.054  0.00  0.00    +0.000 HD
ENDBRANCH  16  19
ENDBRANCH   1  13
TORSDOF 4
ENDMDL
MODEL 7
REMARK VINA RESULT:    -5.588      3.485      8.448
REMARK INTER + INTRA:          -7.200
REMARK INTER:                  -6.716
REMARK INTRA:                  -0.485
REMARK UNBOUND:                -0.306
REMARK  Name = 
REMARK  7 active torsions:
REMARK  status: ('A' for Active; 'I' for Inactive)
REMARK    1  A    between atoms: C_1  and  C_2
REMARK    2  A    between atoms: C_2  and  C_3
REMARK    3  A    between atoms: N_7  and  C_8
REMARK    4  A    between atoms: C_8  and  C_9
REMARK    5  A    between atoms: C_8  and  C_10
REMARK    6  A    between atoms: C_13  and  C_14
REMARK    7  A    between atoms: N_16  and  C_17
REMARK                            x       y       z     vdW  Elec       q    Type
REMARK                         _______ _______ _______ _____ _____    ______ ____
ROOT
ATOM      1  C   UNL     1      48.542   4.508  17.017  0.00  0.00    +0.000 C 
ATOM      2  C   UNL     1      47.620   4.807  18.206  0.00  0.00    +0.000 C 
ENDROOT
BRANCH   1   7
ATOM      3  C   UNL     1      52.957   2.320  17.868  0.00  0.00    +0.000 A 
ATOM      4  C   UNL     1      52.088   1.263  17.653  0.00  0.00    +0.000 A 
ATOM      5  C   UNL     1      50.743   1.535  17.401  0.00  0.00    +0.000 A 
ATOM      6  C   UNL     1      50.296   2.849  17.369  0.00  0.00    +0.000 A 
ATOM      7  N   UNL     1      48.962   3.100  17.005  0.00  0.00    +0.000 N 
ATOM      8  N   UNL     1      51.176   3.848  17.581  0.00  0.00    +0.000 NA
ATOM      9  N   UNL     1      52.508   3.589  17.841  0.00  0.00    +0.000 NA
ATOM     10  H   UNL     1      48.319   2.507  17.521  0.00  0.00    +0.000 HD
BRANCH   3  12
ATOM     11  C   UNL     1      54.718   0.682  18.525  0.00  0.00    +0.000 C 
ATOM     12  C   UNL     1      54.431   2.101  18.055  0.00  0.00    +0.000 C 
ENDBRANCH   3  12
ENDBRANCH   1   7
BRANCH   1  13
ATOM     13  C   UNL     1      47.851   4.840  15.695  0.00  0.00    +0.000 A 
ATOM     14  C   UNL     1      46.801   4.038  15.240  0.00  0.00    +0.000 A 
ATOM     15  N   UNL     1      46.181   4.221  14.044  0.00  0.00    +0.000 NA
ATOM     16  C   UNL     1      46.652   5.272  13.314  0.00  0.00    +0.000 A 
ATOM     17  C   UNL     1      47.664   6.100  13.770  0.00  0.00    +0.000 A 
ATOM     18  N   UNL     1      48.276   5.911  14.967  0.00  0.00    +0.000 NA
BRANCH  16  19
ATOM     19  C   UNL     1      46.066   5.510  11.964  0.00  0.00    +0.000 C 
ATOM     20  O   UNL     1      46.464   6.437  11.265  0.00  0.00    +0.000 OA
ATOM     21  N   UNL     1      45.081   4.623  11.582  0.00  0.00    +0.000 N 
ATOM     22  C   UNL     1      44.426   4.691  10.301  0.00  0.00    +0.000 C 
ATOM     23  H   UNL     1      44.837   3.893  12.245  0.00  0.00    +0.000 HD
ENDBRANCH  16  19
ENDBRANCH   1  13
TORSDOF 4
ENDMDL
MODEL 8
REMARK VINA RESULT:    -5.482      3.585      6.138
REMARK INTER + INTRA:          -7.070
REMARK INTER:                  -6.612
REMARK INTRA:                  -0.457
REMARK UNBOUND:                -0.306
REMARK  Name = 
REMARK  7 active torsions:
REMARK  status: ('A' for Active; 'I' for Inactive)
REMARK    1  A    between atoms: C_1  and  C_2
REMARK    2  A    between atoms: C_2  and  C_3
REMARK    3  A    between atoms: N_7  and  C_8
REMARK    4  A    between atoms: C_8  and  C_9
REMARK    5  A    between atoms: C_8  and  C_10
REMARK    6  A    between atoms: C_13  and  C_14
REMARK    7  A    between atoms: N_16  and  C_17
REMARK                            x       y       z     vdW  Elec       q    Type
REMARK                         _______ _______ _______ _____ _____    ______ ____
ROOT
ATOM      1  C   UNL     1      47.917   4.340  16.348  0.00  0.00    +0.000 C 
ATOM      2  C   UNL     1      46.961   4.297  17.546  0.00  0.00    +0.000 C 
ENDROOT
BRANCH   1   7
ATOM      3  C   UNL     1      45.427   3.974  12.027  0.00  0.00    +0.000 A 
ATOM      4  C   UNL     1      45.628   5.335  12.190  0.00  0.00    +0.000 A 
ATOM      5  C   UNL     1      46.292   5.786  13.332  0.00  0.00    +0.000 A 
ATOM      6  C   UNL     1      46.738   4.876  14.280  0.00  0.00    +0.000 A 
ATOM      7  N   UNL     1      47.499   5.348  15.364  0.00  0.00    +0.000 N 
ATOM      8  N   UNL     1      46.523   3.560  14.080  0.00  0.00    +0.000 NA
ATOM      9  N   UNL     1      45.859   3.103  12.958  0.00  0.00    +0.000 NA
ATOM     10  H   UNL     1      47.058   6.150  15.805  0.00  0.00    +0.000 HD
BRANCH   3  12
ATOM     11  C   UNL     1      44.951   4.382   9.614  0.00  0.00    +0.000 C 
ATOM     12  C   UNL     1      44.801   3.416  10.780  0.00  0.00    +0.000 C 
ENDBRANCH   3  12
ENDBRANCH   1   7
BRANCH   1  13
ATOM     13  C   UNL     1      49.346   4.639  16.800  0.00  0.00    +0.000 A 
ATOM     14  C   UNL     1      49.842   5.942  16.716  0.00  0.00    +0.000 A 
ATOM     15  N   UNL     1      51.121   6.281  17.030  0.00  0.00    +0.000 NA
ATOM     16  C   UNL     1      51.895   5.242  17.457  0.00  0.00    +0.000 A 
ATOM     17  C   UNL     1      51.406   3.952  17.584  0.00  0.00    +0.000 A 
ATOM     18  N   UNL     1      50.126   3.625  17.270  0.00  0.00    +0.000 NA
BRANCH  16  19
ATOM     19  C   UNL     1      53.327   5.514  17.769  0.00  0.00    +0.000 C 
ATOM     20  O   UNL     1      53.661   6.571  18.299  0.00  0.00    +0.000 OA
ATOM     21  N   UNL     1      54.207   4.508  17.431  0.00  0.00    +0.000 N 
ATOM     22  C   UNL     1      55.623   4.594  17.685  0.00  0.00    +0.000 C 
ATOM     23  H   UNL     1      53.813   3.677  17.000  0.00  0.00    +0.000 HD
ENDBRANCH  16  19
ENDBRANCH   1  13
TORSDOF 4
ENDMDL
MODEL 9
REMARK VINA RESULT:    -5.424      3.797      7.735
REMARK INTER + INTRA:          -6.998
REMARK INTER:                  -6.525
REMARK INTRA:                  -0.473
REMARK UNBOUND:                -0.306
REMARK  Name = 
REMARK  7 active torsions:
REMARK  status: ('A' for Active; 'I' for Inactive)
REMARK    1  A    between atoms: C_1  and  C_2
REMARK    2  A    between atoms: C_2  and  C_3
REMARK    3  A    between atoms: N_7  and  C_8
REMARK    4  A    between atoms: C_8  and  C_9
REMARK    5  A    between atoms: C_8  and  C_10
REMARK    6  A    between atoms: C_13  and  C_14
REMARK    7  A    between atoms: N_16  and  C_17
REMARK                            x       y       z     vdW  Elec       q    Type
REMARK                         _______ _______ _______ _____ _____    ______ ____
ROOT
ATOM      1  C   UNL     1      47.293   7.331  13.348  0.00  0.00    +0.000 C 
ATOM      2  C   UNL     1      46.410   8.585  13.366  0.00  0.00    +0.000 C 
ENDROOT
BRANCH   1   7
ATOM      3  C   UNL     1      51.630   7.457  15.833  0.00  0.00    +0.000 A 
ATOM      4  C   UNL     1      50.722   6.967  16.757  0.00  0.00    +0.000 A 
ATOM      5  C   UNL     1      49.386   6.824  16.380  0.00  0.00    +0.000 A 
ATOM      6  C   UNL     1      48.987   7.172  15.096  0.00  0.00    +0.000 A 
ATOM      7  N   UNL     1      47.661   6.916  14.709  0.00  0.00    +0.000 N 
ATOM      8  N   UNL     1      49.905   7.642  14.228  0.00  0.00    +0.000 NA
ATOM      9  N   UNL     1      51.229   7.797  14.594  0.00  0.00    +0.000 NA
ATOM     10  H   UNL     1      47.000   7.254  15.402  0.00  0.00    +0.000 HD
BRANCH   3  12
ATOM     11  C   UNL     1      53.728   6.166  16.221  0.00  0.00    +0.000 C 
ATOM     12  C   UNL     1      53.097   7.549  16.145  0.00  0.00    +0.000 C 
ENDBRANCH   3  12
ENDBRANCH   1   7
BRANCH   1  13
ATOM     13  C   UNL     1      46.586   6.176  12.641  0.00  0.00    +0.000 A 
ATOM     14  C   UNL     1      46.222   6.301  11.298  0.00  0.00    +0.000 A 
ATOM     15  N   UNL     1      45.529   5.350  10.616  0.00  0.00    +0.000 NA
ATOM     16  C   UNL     1      45.224   4.238  11.344  0.00  0.00    +0.000 A 
ATOM     17  C   UNL     1      45.613   4.082  12.664  0.00  0.00    +0.000 A 
ATOM     18  N   UNL     1      46.306   5.037  13.336  0.00  0.00    +0.000 NA
BRANCH  16  19
ATOM     19  C   UNL     1      44.416   3.170  10.689  0.00  0.00    +0.000 C 
ATOM     20  O   UNL     1      43.258   2.958  11.042  0.00  0.00    +0.000 OA
ATOM     21  N   UNL     1      45.056   2.476   9.684  0.00  0.00    +0.000 N 
ATOM     22  C   UNL     1      44.414   1.429   8.930  0.00  0.00    +0.000 C 
ATOM     23  H   UNL     1      46.014   2.743   9.479  0.00  0.00    +0.000 HD
ENDBRANCH  16  19
ENDBRANCH   1  13
TORSDOF 4
ENDMDL
