MODEL 1
REMARK VINA RESULT:    -8.034      0.000      0.000
REMARK INTER + INTRA:         -10.551
REMARK INTER:                  -9.912
REMARK INTRA:                  -0.639
REMARK UNBOUND:                -0.639
REMARK  Name = 
REMARK  5 active torsions:
REMARK  status: ('A' for Active; 'I' for Inactive)
REMARK    1  A    between atoms: C_1  and  C_2
REMARK    2  A    between atoms: C_2  and  O_3
REMARK    3  A    between atoms: C_2  and  C_13
REMARK    4  A    between atoms: O_3  and  C_4
REMARK    5  A    between atoms: C_7  and  C_8
REMARK                            x       y       z     vdW  Elec       q    Type
REMARK                         _______ _______ _______ _____ _____    ______ ____
ROOT
ATOM      1  C   UNL     1      44.491   3.458   9.332  0.00  0.00    +0.000 A 
ATOM      2  C   UNL     1      45.068   4.310   8.390  0.00  0.00    +0.000 A 
ATOM      3  C   UNL     1      46.059   3.841   7.521  0.00  0.00    +0.000 A 
ATOM      4  C   UNL     1      46.471   2.506   7.568  0.00  0.00    +0.000 A 
ATOM      5  C   UNL     1      45.815   1.622   8.431  0.00  0.00    +0.000 A 
ATOM      6  C   UNL     1      44.834   2.101   9.309  0.00  0.00    +0.000 A 
ENDROOT
BRANCH   4   7
ATOM      7  C   UNL     1      47.619   2.098   6.716  0.00  0.00    +0.000 C 
ATOM      8  N   UNL     1      47.857   2.838   5.591  0.00  0.00    +0.000 N 
ATOM      9  O   UNL     1      48.287   1.102   6.961  0.00  0.00    +0.000 OA
ATOM     10  H   UNL     1      47.185   3.497   5.225  0.00  0.00    +0.000 HD
ATOM     11  H   UNL     1      48.531   2.455   4.942  0.00  0.00    +0.000 HD
ENDBRANCH   4   7
BRANCH   1  12
ATOM     12  O   UNL     1      43.602   3.812  10.311  0.00  0.00    +0.000 OA
BRANCH  12  14
ATOM     13  C   UNL     1      42.689   5.196  12.037  0.00  0.00    +0.000 C 
ATOM     14  C   UNL     1      43.784   5.072  10.982  0.00  0.00    +0.000 C 
BRANCH  14  15
ATOM     15  C   UNL     1      45.216   5.171  11.589  0.00  0.00    +0.000 C 
ATOM     16  C   UNL     1      45.218   4.710  13.062  0.00  0.00    +0.000 C 
ATOM     17  C   UNL     1      46.600   4.813  13.708  0.00  0.00    +0.000 C 
ATOM     18  C   UNL     1      47.176   6.216  13.571  0.00  0.00    +0.000 C 
ATOM     19  C   UNL     1      47.231   6.636  12.109  0.00  0.00    +0.000 C 
ATOM     20  C   UNL     1      45.853   6.565  11.453  0.00  0.00    +0.000 C 
ENDBRANCH  14  15
ENDBRANCH  12  14
ENDBRANCH   1  12
TORSDOF 4
ENDMDL
MODEL 2
REMARK VINA RESULT:    -7.247      1.026      1.599
REMARK INTER + INTRA:          -9.580
REMARK INTER:                  -9.341
REMARK INTRA:                  -0.239
REMARK UNBOUND:                -0.639
REMARK  Name = 
REMARK  5 active torsions:
REMARK  status: ('A' for Active; 'I' for Inactive)
REMARK    1  A    between atoms: C_1  and  C_2
REMARK    2  A    between atoms: C_2  and  O_3
REMARK    3  A    between atoms: C_2  and  C_13
REMARK    4  A    between atoms: O_3  and  C_4
REMARK    5  A    between atoms: C_7  and  C_8
REMARK                            x       y       z     vdW  Elec       q    Type
REMARK                         _______ _______ _______ _____ _____    ______ ____
ROOT
ATOM      1  C   UNL     1      44.627   3.825   9.507  0.00  0.00    +0.000 A 
ATOM      2  C   UNL     1      45.399   4.519   8.574  0.00  0.00    +0.000 A 
ATOM      3  C   UNL     1      46.270   3.833   7.721  0.00  0.00    +0.000 A 
ATOM      4  C   UNL     1      46.365   2.439   7.776  0.00  0.00    +0.000 A 
ATOM      5  C   UNL     1      45.510   1.732   8.628  0.00  0.00    +0.000 A 
ATOM      6  C   UNL     1      44.651   2.426   9.490  0.00  0.00    +0.000 A 
ENDROOT
BRANCH   4   7
ATOM      7  C   UNL     1      47.403   1.775   6.943  0.00  0.00    +0.000 C 
ATOM      8  N   UNL     1      48.455   2.542   6.528  0.00  0.00    +0.000 N 
ATOM      9  O   UNL     1      47.296   0.611   6.579  0.00  0.00    +0.000 OA
ATOM     10  H   UNL     1      48.448   3.550   6.590  0.00  0.00    +0.000 HD
ATOM     11  H   UNL     1      49.061   2.127   5.833  0.00  0.00    +0.000 HD
ENDBRANCH   4   7
BRANCH   1  12
ATOM     12  O   UNL     1      43.828   4.378  10.471  0.00  0.00    +0.000 OA
BRANCH  12  14
ATOM     13  C   UNL     1      45.268   3.674  12.248  0.00  0.00    +0.000 C 
ATOM     14  C   UNL     1      44.436   4.827  11.695  0.00  0.00    +0.000 C 
BRANCH  14  15
ATOM     15  C   UNL     1      45.280   6.114  11.452  0.00  0.00    +0.000 C 
ATOM     16  C   UNL     1      46.689   5.966  12.064  0.00  0.00    +0.000 C 
ATOM     17  C   UNL     1      47.548   7.217  11.870  0.00  0.00    +0.000 C 
ATOM     18  C   UNL     1      46.847   8.461  12.400  0.00  0.00    +0.000 C 
ATOM     19  C   UNL     1      45.485   8.634  11.742  0.00  0.00    +0.000 C 
ATOM     20  C   UNL     1      44.603   7.403  11.947  0.00  0.00    +0.000 C 
ENDBRANCH  14  15
ENDBRANCH  12  14
ENDBRANCH   1  12
TORSDOF 4
ENDMDL
MODEL 3
REMARK VINA RESULT:    -6.462      3.732      6.401
REMARK INTER + INTRA:          -8.612
REMARK INTER:                  -7.917
REMARK INTRA:                  -0.695
REMARK UNBOUND:                -0.639
REMARK  Name = 
REMARK  5 active torsions:
REMARK  status: ('A' for Active; 'I' for Inactive)
REMARK    1  A    between atoms: C_1  and  C_2
REMARK    2  A    between atoms: C_2  and  O_3
REMARK    3  A    between atoms: C_2  and  C_13
REMARK    4  A    between atoms: O_3  and  C_4
REMARK    5  A    between atoms: C_7  and  C_8
REMARK                            x       y       z     vdW  Elec       q    Type
REMARK                         _______ _______ _______ _____ _____    ______ ____
ROOT
ATOM      1  C   UNL     1      46.298   5.692  12.535  0.00  0.00    +0.000 A 
ATOM      2  C   UNL     1      47.307   6.538  12.995  0.00  0.00    +0.000 A 
ATOM      3  C   UNL     1      47.932   6.297  14.222  0.00  0.00    +0.000 A 
ATOM      4  C   UNL     1      47.571   5.191  14.998  0.00  0.00    +0.000 A 
ATOM      5  C   UNL     1      46.642   4.278  14.488  0.00  0.00    +0.000 A 
ATOM      6  C   UNL     1      46.009   4.533  13.266  0.00  0.00    +0.000 A 
ENDROOT
BRANCH   4   7
ATOM      7  C   UNL     1      48.171   5.060  16.352  0.00  0.00    +0.000 C 
ATOM      8  N   UNL     1      47.320   5.109  17.420  0.00  0.00    +0.000 N 
ATOM      9  O   UNL     1      49.381   4.981  16.520  0.00  0.00    +0.000 OA
ATOM     10  H   UNL     1      46.364   5.425  17.337  0.00  0.00    +0.000 HD
ATOM     11  H   UNL     1      47.753   5.184  18.331  0.00  0.00    +0.000 HD
ENDBRANCH   4   7
BRANCH   1  12
ATOM     12  O   UNL     1      45.530   5.876  11.417  0.00  0.00    +0.000 OA
BRANCH  12  14
ATOM     13  C   UNL     1      43.144   5.967  11.249  0.00  0.00    +0.000 C 
ATOM     14  C   UNL     1      44.364   5.052  11.239  0.00  0.00    +0.000 C 
BRANCH  14  15
ATOM     15  C   UNL     1      44.475   4.215   9.930  0.00  0.00    +0.000 C 
ATOM     16  C   UNL     1      44.625   2.713  10.253  0.00  0.00    +0.000 C 
ATOM     17  C   UNL     1      44.762   1.852   8.996  0.00  0.00    +0.000 C 
ATOM     18  C   UNL     1      45.901   2.338   8.109  0.00  0.00    +0.000 C 
ATOM     19  C   UNL     1      45.709   3.804   7.741  0.00  0.00    +0.000 C 
ATOM     20  C   UNL     1      45.596   4.684   8.986  0.00  0.00    +0.000 C 
ENDBRANCH  14  15
ENDBRANCH  12  14
ENDBRANCH   1  12
TORSDOF 4
ENDMDL
MODEL 4
REMARK VINA RESULT:    -6.227      3.317      6.117
REMARK INTER + INTRA:          -8.322
REMARK INTER:                  -7.728
REMARK INTRA:                  -0.594
REMARK UNBOUND:                -0.639
REMARK  Name = 
REMARK  5 active torsions:
REMARK  status: ('A' for Active; 'I' for Inactive)
REMARK    1  A    between atoms: C_1  and  C_2
REMARK    2  A    between atoms: C_2  and  O_3
REMARK    3  A    between atoms: C_2  and  C_13
REMARK    4  A    between atoms: O_3  and  C_4
REMARK    5  A    between atoms: C_7  and  C_8
REMARK                            x       y       z     vdW  Elec       q    Type
REMARK                         _______ _______ _______ _____ _____    ______ ____
ROOT
ATOM      1  C   UNL     1      46.155   6.285  11.855  0.00  0.00    +0.000 A 
ATOM      2  C   UNL     1      47.199   7.197  11.698  0.00  0.00    +0.000 A 
ATOM      3  C   UNL     1      48.191   7.316  12.676  0.00  0.00    +0.000 A 
ATOM      4  C   UNL     1      48.165   6.507  13.817  0.00  0.00    +0.000 A 
ATOM      5  C   UNL     1      47.185   5.514  13.923  0.00  0.00    +0.000 A 
ATOM      6  C   UNL     1      46.186   5.410  12.948  0.00  0.00    +0.000 A 
ENDROOT
BRANCH   4   7
ATOM      7  C   UNL     1      49.166   6.770  14.885  0.00  0.00    +0.000 C 
ATOM      8  N   UNL     1      50.344   7.352  14.507  0.00  0.00    +0.000 N 
ATOM      9  O   UNL     1      48.985   6.421  16.044  0.00  0.00    +0.000 OA
ATOM     10  H   UNL     1      50.630   7.418  13.540  0.00  0.00    +0.000 HD
ATOM     11  H   UNL     1      51.073   7.374  15.207  0.00  0.00    +0.000 HD
ENDBRANCH   4   7
BRANCH   1  12
ATOM     12  O   UNL     1      45.065   6.149  11.037  0.00  0.00    +0.000 OA
BRANCH  12  14
ATOM     13  C   UNL     1      42.849   5.294  11.333  0.00  0.00    +0.000 C 
ATOM     14  C   UNL     1      44.310   4.926  11.095  0.00  0.00    +0.000 C 
BRANCH  14  15
ATOM     15  C   UNL     1      44.514   4.090   9.796  0.00  0.00    +0.000 C 
ATOM     16  C   UNL     1      44.767   2.606  10.135  0.00  0.00    +0.000 C 
ATOM     17  C   UNL     1      44.997   1.749   8.889  0.00  0.00    +0.000 C 
ATOM     18  C   UNL     1      46.117   2.313   8.025  0.00  0.00    +0.000 C 
ATOM     19  C   UNL     1      45.826   3.758   7.640  0.00  0.00    +0.000 C 
ATOM     20  C   UNL     1      45.619   4.635   8.874  0.00  0.00    +0.000 C 
ENDBRANCH  14  15
ENDBRANCH  12  14
ENDBRANCH   1  12
TORSDOF 4
ENDMDL
MODEL 5
REMARK VINA RESULT:    -5.667      2.819      4.577
REMARK INTER + INTRA:          -7.631
REMARK INTER:                  -6.992
REMARK INTRA:                  -0.639
REMARK UNBOUND:                -0.639
REMARK  Name = 
REMARK  5 active torsions:
REMARK  status: ('A' for Active; 'I' for Inactive)
REMARK    1  A    between atoms: C_1  and  C_2
REMARK    2  A    between atoms: C_2  and  O_3
REMARK    3  A    between atoms: C_2  and  C_13
REMARK    4  A    between atoms: O_3  and  C_4
REMARK    5  A    between atoms: C_7  and  C_8
REMARK                            x       y       z     vdW  Elec       q    Type
REMARK                         _______ _______ _______ _____ _____    ______ ____
ROOT
ATOM      1  C   UNL     1      45.718   5.322  12.517  0.00  0.00    +0.000 A 
ATOM      2  C   UNL     1      45.724   5.856  11.229  0.00  0.00    +0.000 A 
ATOM      3  C   UNL     1      45.322   5.080  10.136  0.00  0.00    +0.000 A 
ATOM      4  C   UNL     1      44.888   3.764  10.322  0.00  0.00    +0.000 A 
ATOM      5  C   UNL     1      44.771   3.263  11.623  0.00  0.00    +0.000 A 
ATOM      6  C   UNL     1      45.189   4.040  12.710  0.00  0.00    +0.000 A 
ENDROOT
BRANCH   4   7
ATOM      7  C   UNL     1      44.603   2.944   9.114  0.00  0.00    +0.000 C 
ATOM      8  N   UNL     1      44.217   3.609   7.984  0.00  0.00    +0.000 N 
ATOM      9  O   UNL     1      44.639   1.721   9.137  0.00  0.00    +0.000 OA
ATOM     10  H   UNL     1      43.932   4.578   7.997  0.00  0.00    +0.000 HD
ATOM     11  H   UNL     1      43.871   3.036   7.227  0.00  0.00    +0.000 HD
ENDBRANCH   4   7
BRANCH   1  12
ATOM     12  O   UNL     1      46.191   5.928  13.650  0.00  0.00    +0.000 OA
BRANCH  12  14
ATOM     13  C   UNL     1      48.401   6.809  13.912  0.00  0.00    +0.000 C 
ATOM     14  C   UNL     1      47.509   5.587  14.114  0.00  0.00    +0.000 C 
BRANCH  14  15
ATOM     15  C   UNL     1      47.467   5.113  15.597  0.00  0.00    +0.000 C 
ATOM     16  C   UNL     1      48.633   5.727  16.401  0.00  0.00    +0.000 C 
ATOM     17  C   UNL     1      48.646   5.270  17.860  0.00  0.00    +0.000 C 
ATOM     18  C   UNL     1      48.645   3.751  17.968  0.00  0.00    +0.000 C 
ATOM     19  C   UNL     1      47.454   3.158  17.227  0.00  0.00    +0.000 C 
ATOM     20  C   UNL     1      47.438   3.583  15.759  0.00  0.00    +0.000 C 
ENDBRANCH  14  15
ENDBRANCH  12  14
ENDBRANCH   1  12
TORSDOF 4
ENDMDL
MODEL 6
REMARK VINA RESULT:    -5.581      3.221      5.267
REMARK INTER + INTRA:          -7.525
REMARK INTER:                  -6.883
REMARK INTRA:                  -0.642
REMARK UNBOUND:                -0.639
REMARK  Name = 
REMARK  5 active torsions:
REMARK  status: ('A' for Active; 'I' for Inactive)
REMARK    1  A    between atoms: C_1  and  C_2
REMARK    2  A    between atoms: C_2  and  O_3
REMARK    3  A    between atoms: C_2  and  C_13
REMARK    4  A    between atoms: O_3  and  C_4
REMARK    5  A    between atoms: C_7  and  C_8
REMARK                            x       y       z     vdW  Elec       q    Type
REMARK                         _______ _______ _______ _____ _____    ______ ____
ROOT
ATOM      1  C   UNL     1      45.865   6.278  12.628  0.00  0.00    +0.000 A 
ATOM      2  C   UNL     1      45.673   5.135  13.406  0.00  0.00    +0.000 A 
ATOM      3  C   UNL     1      45.098   3.987  12.852  0.00  0.00    +0.000 A 
ATOM      4  C   UNL     1      44.725   3.959  11.505  0.00  0.00    +0.000 A 
ATOM      5  C   UNL     1      45.020   5.061  10.694  0.00  0.00    +0.000 A 
ATOM      6  C   UNL     1      45.583   6.212  11.258  0.00  0.00    +0.000 A 
ENDROOT
BRANCH   4   7
ATOM      7  C   UNL     1      43.996   2.763  11.005  0.00  0.00    +0.000 C 
ATOM      8  N   UNL     1      44.464   2.179   9.860  0.00  0.00    +0.000 N 
ATOM      9  O   UNL     1      42.978   2.351  11.545  0.00  0.00    +0.000 OA
ATOM     10  H   UNL     1      45.133   2.634   9.255  0.00  0.00    +0.000 HD
ATOM     11  H   UNL     1      43.869   1.475   9.445  0.00  0.00    +0.000 HD
ENDBRANCH   4   7
BRANCH   1  12
ATOM     12  O   UNL     1      46.306   7.496  13.070  0.00  0.00    +0.000 OA
BRANCH  12  14
ATOM     13  C   UNL     1      45.857   9.717  12.300  0.00  0.00    +0.000 C 
ATOM     14  C   UNL     1      46.716   8.473  12.097  0.00  0.00    +0.000 C 
BRANCH  14  15
ATOM     15  C   UNL     1      48.241   8.769  12.221  0.00  0.00    +0.000 C 
ATOM     16  C   UNL     1      48.566  10.187  11.705  0.00  0.00    +0.000 C 
ATOM     17  C   UNL     1      50.058  10.514  11.786  0.00  0.00    +0.000 C 
ATOM     18  C   UNL     1      50.898   9.464  11.071  0.00  0.00    +0.000 C 
ATOM     19  C   UNL     1      50.618   8.077  11.632  0.00  0.00    +0.000 C 
ATOM     20  C   UNL     1      49.135   7.721  11.536  0.00  0.00    +0.000 C 
ENDBRANCH  14  15
ENDBRANCH  12  14
ENDBRANCH   1  12
TORSDOF 4
ENDMDL
MODEL 7
REMARK VINA RESULT:    -5.517      4.529      7.236
REMARK INTER + INTRA:          -7.446
REMARK INTER:                  -6.826
REMARK INTRA:                  -0.620
REMARK UNBOUND:                -0.639
REMARK  Name = 
REMARK  5 active torsions:
REMARK  status: ('A' for Active; 'I' for Inactive)
REMARK    1  A    between atoms: C_1  and  C_2
REMARK    2  A    between atoms: C_2  and  O_3
REMARK    3  A    between atoms: C_2  and  C_13
REMARK    4  A    between atoms: O_3  and  C_4
REMARK    5  A    between atoms: C_7  and  C_8
REMARK                            x       y       z     vdW  Elec       q    Type
REMARK                         _______ _______ _______ _____ _____    ______ ____
ROOT
ATOM      1  C   UNL     1      47.317   5.567  14.003  0.00  0.00    +0.000 A 
ATOM      2  C   UNL     1      48.245   6.342  14.700  0.00  0.00    +0.000 A 
ATOM      3  C   UNL     1      48.601   6.014  16.012  0.00  0.00    +0.000 A 
ATOM      4  C   UNL     1      48.049   4.892  16.638  0.00  0.00    +0.000 A 
ATOM      5  C   UNL     1      47.207   4.049  15.905  0.00  0.00    +0.000 A 
ATOM      6  C   UNL     1      46.843   4.391  14.597  0.00  0.00    +0.000 A 
ENDROOT
BRANCH   4   7
ATOM      7  C   UNL     1      48.359   4.670  18.076  0.00  0.00    +0.000 C 
ATOM      8  N   UNL     1      47.407   5.041  18.985  0.00  0.00    +0.000 N 
ATOM      9  O   UNL     1      49.443   4.239  18.447  0.00  0.00    +0.000 OA
ATOM     10  H   UNL     1      46.621   5.626  18.738  0.00  0.00    +0.000 HD
ATOM     11  H   UNL     1      47.694   5.037  19.954  0.00  0.00    +0.000 HD
ENDBRANCH   4   7
BRANCH   1  12
ATOM     12  O   UNL     1      46.798   5.840  12.766  0.00  0.00    +0.000 OA
BRANCH  12  14
ATOM     13  C   UNL     1      45.252   7.638  12.436  0.00  0.00    +0.000 C 
ATOM     14  C   UNL     1      45.394   6.135  12.659  0.00  0.00    +0.000 C 
BRANCH  14  15
ATOM     15  C   UNL     1      44.738   5.295  11.522  0.00  0.00    +0.000 C 
ATOM     16  C   UNL     1      44.431   3.863  12.010  0.00  0.00    +0.000 C 
ATOM     17  C   UNL     1      43.807   2.992  10.918  0.00  0.00    +0.000 C 
ATOM     18  C   UNL     1      44.668   2.971   9.662  0.00  0.00    +0.000 C 
ATOM     19  C   UNL     1      44.912   4.385   9.152  0.00  0.00    +0.000 C 
ATOM     20  C   UNL     1      45.559   5.264  10.221  0.00  0.00    +0.000 C 
ENDBRANCH  14  15
ENDBRANCH  12  14
ENDBRANCH   1  12
TORSDOF 4
ENDMDL
MODEL 8
REMARK VINA RESULT:    -5.428      4.036      6.045
REMARK INTER + INTRA:          -7.336
REMARK INTER:                  -6.567
REMARK INTRA:                  -0.769
REMARK UNBOUND:                -0.639
REMARK  Name = 
REMARK  5 active torsions:
REMARK  status: ('A' for Active; 'I' for Inactive)
REMARK    1  A    between atoms: C_1  and  C_2
REMARK    2  A    between atoms: C_2  and  O_3
REMARK    3  A    between atoms: C_2  and  C_13
REMARK    4  A    between atoms: O_3  and  C_4
REMARK    5  A    between atoms: C_7  and  C_8
REMARK                            x       y       z     vdW  Elec       q    Type
REMARK                         _______ _______ _______ _____ _____    ______ ____
ROOT
ATOM      1  C   UNL     1      47.139   5.764  12.917  0.00  0.00    +0.000 A 
ATOM      2  C   UNL     1      46.327   4.853  13.593  0.00  0.00    +0.000 A 
ATOM      3  C   UNL     1      45.034   4.577  13.136  0.00  0.00    +0.000 A 
ATOM      4  C   UNL     1      44.543   5.194  11.981  0.00  0.00    +0.000 A 
ATOM      5  C   UNL     1      45.393   6.019  11.237  0.00  0.00    +0.000 A 
ATOM      6  C   UNL     1      46.681   6.302  11.708  0.00  0.00    +0.000 A 
ENDROOT
BRANCH   4   7
ATOM      7  C   UNL     1      43.118   4.968  11.619  0.00  0.00    +0.000 C 
ATOM      8  N   UNL     1      42.262   6.024  11.763  0.00  0.00    +0.000 N 
ATOM      9  O   UNL     1      42.704   3.870  11.272  0.00  0.00    +0.000 OA
ATOM     10  H   UNL     1      42.510   6.855  12.280  0.00  0.00    +0.000 HD
ATOM     11  H   UNL     1      41.277   5.813  11.672  0.00  0.00    +0.000 HD
ENDBRANCH   4   7
BRANCH   1  12
ATOM     12  O   UNL     1      48.370   6.208  13.318  0.00  0.00    +0.000 OA
BRANCH  12  14
ATOM     13  C   UNL     1      49.333   6.938  15.384  0.00  0.00    +0.000 C 
ATOM     14  C   UNL     1      48.437   7.332  14.213  0.00  0.00    +0.000 C 
BRANCH  14  15
ATOM     15  C   UNL     1      48.948   8.601  13.468  0.00  0.00    +0.000 C 
ATOM     16  C   UNL     1      47.776   9.553  13.143  0.00  0.00    +0.000 C 
ATOM     17  C   UNL     1      48.227  10.804  12.389  0.00  0.00    +0.000 C 
ATOM     18  C   UNL     1      49.006  10.445  11.130  0.00  0.00    +0.000 C 
ATOM     19  C   UNL     1      50.199   9.560  11.469  0.00  0.00    +0.000 C 
ATOM     20  C   UNL     1      49.765   8.291  12.201  0.00  0.00    +0.000 C 
ENDBRANCH  14  15
ENDBRANCH  12  14
ENDBRANCH   1  12
TORSDOF 4
ENDMDL
MODEL 9
REMARK VINA RESULT:    -5.372      3.813      6.187
REMARK INTER + INTRA:          -7.267
REMARK INTER:                  -6.750
REMARK INTRA:                  -0.517
REMARK UNBOUND:                -0.639
REMARK  Name = 
REMARK  5 active torsions:
REMARK  status: ('A' for Active; 'I' for Inactive)
REMARK    1  A    between atoms: C_1  and  C_2
REMARK    2  A    between atoms: C_2  and  O_3
REMARK    3  A    between atoms: C_2  and  C_13
REMARK    4  A    between atoms: O_3  and  C_4
REMARK    5  A    between atoms: C_7  and  C_8
REMARK                            x       y       z     vdW  Elec       q    Type
REMARK                         _______ _______ _______ _____ _____    ______ ____
ROOT
ATOM      1  C   UNL     1      46.944   4.657  13.914  0.00  0.00    +0.000 A 
ATOM      2  C   UNL     1      46.414   3.529  13.289  0.00  0.00    +0.000 A 
ATOM      3  C   UNL     1      45.350   3.649  12.389  0.00  0.00    +0.000 A 
ATOM      4  C   UNL     1      44.815   4.905  12.086  0.00  0.00    +0.000 A 
ATOM      5  C   UNL     1      45.417   6.048  12.623  0.00  0.00    +0.000 A 
ATOM      6  C   UNL     1      46.473   5.920  13.534  0.00  0.00    +0.000 A 
ENDROOT
BRANCH   4   7
ATOM      7  C   UNL     1      43.600   4.961  11.230  0.00  0.00    +0.000 C 
ATOM      8  N   UNL     1      43.781   4.837   9.881  0.00  0.00    +0.000 N 
ATOM      9  O   UNL     1      42.489   5.178  11.694  0.00  0.00    +0.000 OA
ATOM     10  H   UNL     1      44.690   4.914   9.447  0.00  0.00    +0.000 HD
ATOM     11  H   UNL     1      42.975   5.040   9.304  0.00  0.00    +0.000 HD
ENDBRANCH   4   7
BRANCH   1  12
ATOM     12  O   UNL     1      47.900   4.668  14.894  0.00  0.00    +0.000 OA
BRANCH  12  14
ATOM     13  C   UNL     1      48.056   2.752  16.319  0.00  0.00    +0.000 C 
ATOM     14  C   UNL     1      47.550   4.186  16.203  0.00  0.00    +0.000 C 
BRANCH  14  15
ATOM     15  C   UNL     1      48.131   5.118  17.308  0.00  0.00    +0.000 C 
ATOM     16  C   UNL     1      47.094   5.350  18.428  0.00  0.00    +0.000 C 
ATOM     17  C   UNL     1      47.613   6.280  19.526  0.00  0.00    +0.000 C 
ATOM     18  C   UNL     1      48.103   7.602  18.950  0.00  0.00    +0.000 C 
ATOM     19  C   UNL     1      49.173   7.366  17.892  0.00  0.00    +0.000 C 
ATOM     20  C   UNL     1      48.665   6.458  16.773  0.00  0.00    +0.000 C 
ENDBRANCH  14  15
ENDBRANCH  12  14
ENDBRANCH   1  12
TORSDOF 4
ENDMDL
