MODEL 1
REMARK VINA RESULT:    -7.004      0.000      0.000
REMARK INTER + INTRA:         -10.887
REMARK INTER:                  -9.460
REMARK INTRA:                  -1.427
REMARK UNBOUND:                -1.427
REMARK  Name = 
REMARK  7 active torsions:
REMARK  status: ('A' for Active; 'I' for Inactive)
REMARK    1  A    between atoms: C_1  and  C_2
REMARK    2  A    between atoms: C_2  and  N_3
REMARK    3  A    between atoms: C_2  and  C_16
REMARK    4  A    between atoms: C_4  and  C_6
REMARK    5  A    between atoms: C_19  and  C_20
REMARK    6  A    between atoms: C_20  and  N_21
REMARK    7  A    between atoms: C_22  and  C_24
REMARK                            x       y       z     vdW  Elec       q    Type
REMARK                         _______ _______ _______ _____ _____    ______ ____
ROOT
ATOM      1  C   UNL     1      47.514   3.072  17.763  0.00  0.00    +0.000 C 
ATOM      2  C   UNL     1      48.395   4.281  17.424  0.00  0.00    +0.000 C 
ENDROOT
BRANCH   2   3
ATOM      3  C   UNL     1      48.005   4.857  16.068  0.00  0.00    +0.000 A 
ATOM      4  C   UNL     1      48.545   6.072  15.624  0.00  0.00    +0.000 A 
ATOM      5  C   UNL     1      48.218   6.580  14.361  0.00  0.00    +0.000 A 
ATOM      6  C   UNL     1      47.339   5.888  13.516  0.00  0.00    +0.000 A 
ATOM      7  C   UNL     1      46.800   4.673  13.956  0.00  0.00    +0.000 A 
ATOM      8  C   UNL     1      47.124   4.168  15.217  0.00  0.00    +0.000 A 
BRANCH   6   9
ATOM      9  C   UNL     1      47.004   6.419  12.147  0.00  0.00    +0.000 C 
BRANCH   9  10
ATOM     10  N   UNL     1      45.891   5.707  11.558  0.00  0.00    +0.000 N 
ATOM     11  C   UNL     1      44.672   6.327  11.389  0.00  0.00    +0.000 C 
ATOM     12  O   UNL     1      44.477   7.498  11.700  0.00  0.00    +0.000 OA
ATOM     13  H   UNL     1      46.067   4.797  11.155  0.00  0.00    +0.000 HD
BRANCH  11  14
ATOM     14  C   UNL     1      43.603   5.442  10.760  0.00  0.00    +0.000 C 
ATOM     15  C   UNL     1      42.646   4.849  11.773  0.00  0.00    +0.000 C 
ATOM     16  C   UNL     1      43.370   3.598  12.224  0.00  0.00    +0.000 C 
ATOM     17  O   UNL     1      44.111   3.129  11.090  0.00  0.00    +0.000 OA
ATOM     18  C   UNL     1      44.221   4.201  10.139  0.00  0.00    +0.000 C 
ENDBRANCH  11  14
ENDBRANCH   9  10
ENDBRANCH   6   9
ENDBRANCH   2   3
BRANCH   2  19
ATOM     19  N   UNL     1      49.815   3.958  17.410  0.00  0.00    +0.000 N 
ATOM     20  C   UNL     1      50.654   4.202  18.466  0.00  0.00    +0.000 C 
ATOM     21  O   UNL     1      50.265   4.668  19.531  0.00  0.00    +0.000 OA
ATOM     22  H   UNL     1      50.235   3.870  16.488  0.00  0.00    +0.000 HD
BRANCH  20  23
ATOM     23  C   UNL     1      52.056   3.807  18.283  0.00  0.00    +0.000 A 
ATOM     24  C   UNL     1      53.064   4.734  18.513  0.00  0.00    +0.000 A 
ATOM     25  S   UNL     1      54.632   4.111  18.267  0.00  0.00    +0.000 S 
ATOM     26  C   UNL     1      54.016   2.595  17.805  0.00  0.00    +0.000 A 
ATOM     27  N   UNL     1      54.849   1.589  17.421  0.00  0.00    +0.000 NA
ATOM     28  C   UNL     1      54.247   0.503  17.066  0.00  0.00    +0.000 A 
ATOM     29  N   UNL     1      52.886   0.328  17.074  0.00  0.00    +0.000 N 
ATOM     30  C   UNL     1      52.010   1.298  17.492  0.00  0.00    +0.000 A 
ATOM     31  O   UNL     1      50.803   1.089  17.557  0.00  0.00    +0.000 OA
ATOM     32  C   UNL     1      52.635   2.551  17.871  0.00  0.00    +0.000 A 
ATOM     33  H   UNL     1      52.482  -0.554  16.799  0.00  0.00    +0.000 HD
ENDBRANCH  20  23
ENDBRANCH   2  19
TORSDOF 6
ENDMDL
MODEL 2
REMARK VINA RESULT:    -6.957      3.579      5.014
REMARK INTER + INTRA:         -10.824
REMARK INTER:                  -9.607
REMARK INTRA:                  -1.217
REMARK UNBOUND:                -1.427
REMARK  Name = 
REMARK  7 active torsions:
REMARK  status: ('A' for Active; 'I' for Inactive)
REMARK    1  A    between atoms: C_1  and  C_2
REMARK    2  A    between atoms: C_2  and  N_3
REMARK    3  A    between atoms: C_2  and  C_16
REMARK    4  A    between atoms: C_4  and  C_6
REMARK    5  A    between atoms: C_19  and  C_20
REMARK    6  A    between atoms: C_20  and  N_21
REMARK    7  A    between atoms: C_22  and  C_24
REMARK                            x       y       z     vdW  Elec       q    Type
REMARK                         _______ _______ _______ _____ _____    ______ ____
ROOT
ATOM      1  C   UNL     1      49.157   8.087  13.126  0.00  0.00    +0.000 C 
ATOM      2  C   UNL     1      48.563   6.821  13.757  0.00  0.00    +0.000 C 
ENDROOT
BRANCH   2   3
ATOM      3  C   UNL     1      47.265   6.438  13.056  0.00  0.00    +0.000 A 
ATOM      4  C   UNL     1      46.957   6.951  11.789  0.00  0.00    +0.000 A 
ATOM      5  C   UNL     1      45.784   6.567  11.128  0.00  0.00    +0.000 A 
ATOM      6  C   UNL     1      44.889   5.667  11.723  0.00  0.00    +0.000 A 
ATOM      7  C   UNL     1      45.194   5.151  12.988  0.00  0.00    +0.000 A 
ATOM      8  C   UNL     1      46.364   5.537  13.648  0.00  0.00    +0.000 A 
BRANCH   6   9
ATOM      9  C   UNL     1      43.638   5.232  11.005  0.00  0.00    +0.000 C 
BRANCH   9  10
ATOM     10  N   UNL     1      43.945   4.489   9.803  0.00  0.00    +0.000 N 
ATOM     11  C   UNL     1      44.181   3.132   9.858  0.00  0.00    +0.000 C 
ATOM     12  O   UNL     1      44.121   2.493  10.903  0.00  0.00    +0.000 OA
ATOM     13  H   UNL     1      43.851   4.961   8.914  0.00  0.00    +0.000 HD
BRANCH  11  14
ATOM     14  C   UNL     1      44.495   2.498   8.508  0.00  0.00    +0.000 C 
ATOM     15  C   UNL     1      45.889   1.912   8.433  0.00  0.00    +0.000 C 
ATOM     16  C   UNL     1      46.732   3.103   8.032  0.00  0.00    +0.000 C 
ATOM     17  O   UNL     1      45.901   3.925   7.203  0.00  0.00    +0.000 OA
ATOM     18  C   UNL     1      44.530   3.546   7.409  0.00  0.00    +0.000 C 
ENDBRANCH  11  14
ENDBRANCH   9  10
ENDBRANCH   6   9
ENDBRANCH   2   3
BRANCH   2  19
ATOM     19  N   UNL     1      48.304   6.968  15.182  0.00  0.00    +0.000 N 
ATOM     20  C   UNL     1      49.198   6.598  16.154  0.00  0.00    +0.000 C 
ATOM     21  O   UNL     1      50.313   6.156  15.898  0.00  0.00    +0.000 OA
ATOM     22  H   UNL     1      47.324   7.028  15.446  0.00  0.00    +0.000 HD
BRANCH  20  23
ATOM     23  C   UNL     1      48.777   6.824  17.541  0.00  0.00    +0.000 A 
ATOM     24  C   UNL     1      48.439   8.105  17.955  0.00  0.00    +0.000 A 
ATOM     25  S   UNL     1      47.962   8.191  19.589  0.00  0.00    +0.000 S 
ATOM     26  C   UNL     1      48.232   6.527  19.812  0.00  0.00    +0.000 A 
ATOM     27  N   UNL     1      48.045   5.945  21.028  0.00  0.00    +0.000 NA
ATOM     28  C   UNL     1      48.317   4.683  21.063  0.00  0.00    +0.000 A 
ATOM     29  N   UNL     1      48.745   3.947  19.987  0.00  0.00    +0.000 N 
ATOM     30  C   UNL     1      48.906   4.481  18.733  0.00  0.00    +0.000 A 
ATOM     31  O   UNL     1      49.220   3.784  17.774  0.00  0.00    +0.000 OA
ATOM     32  C   UNL     1      48.645   5.906  18.648  0.00  0.00    +0.000 A 
ATOM     33  H   UNL     1      48.923   2.958  20.080  0.00  0.00    +0.000 HD
ENDBRANCH  20  23
ENDBRANCH   2  19
TORSDOF 6
ENDMDL
MODEL 3
REMARK VINA RESULT:    -6.824      4.199      6.080
REMARK INTER + INTRA:         -10.644
REMARK INTER:                  -9.257
REMARK INTRA:                  -1.387
REMARK UNBOUND:                -1.427
REMARK  Name = 
REMARK  7 active torsions:
REMARK  status: ('A' for Active; 'I' for Inactive)
REMARK    1  A    between atoms: C_1  and  C_2
REMARK    2  A    between atoms: C_2  and  N_3
REMARK    3  A    between atoms: C_2  and  C_16
REMARK    4  A    between atoms: C_4  and  C_6
REMARK    5  A    between atoms: C_19  and  C_20
REMARK    6  A    between atoms: C_20  and  N_21
REMARK    7  A    between atoms: C_22  and  C_24
REMARK                            x       y       z     vdW  Elec       q    Type
REMARK                         _______ _______ _______ _____ _____    ______ ____
ROOT
ATOM      1  C   UNL     1      49.304   7.779  13.358  0.00  0.00    +0.000 C 
ATOM      2  C   UNL     1      48.601   6.576  14.001  0.00  0.00    +0.000 C 
ENDROOT
BRANCH   2   3
ATOM      3  C   UNL     1      47.344   6.216  13.218  0.00  0.00    +0.000 A 
ATOM      4  C   UNL     1      46.354   5.403  13.787  0.00  0.00    +0.000 A 
ATOM      5  C   UNL     1      45.181   5.106  13.083  0.00  0.00    +0.000 A 
ATOM      6  C   UNL     1      44.974   5.610  11.791  0.00  0.00    +0.000 A 
ATOM      7  C   UNL     1      45.960   6.424  11.220  0.00  0.00    +0.000 A 
ATOM      8  C   UNL     1      47.132   6.717  11.923  0.00  0.00    +0.000 A 
BRANCH   6   9
ATOM      9  C   UNL     1      43.703   5.313  11.040  0.00  0.00    +0.000 C 
BRANCH   9  10
ATOM     10  N   UNL     1      43.963   4.558   9.833  0.00  0.00    +0.000 N 
ATOM     11  C   UNL     1      44.206   3.203   9.892  0.00  0.00    +0.000 C 
ATOM     12  O   UNL     1      44.193   2.575  10.946  0.00  0.00    +0.000 OA
ATOM     13  H   UNL     1      43.829   5.020   8.944  0.00  0.00    +0.000 HD
BRANCH  11  14
ATOM     14  C   UNL     1      44.465   2.555   8.537  0.00  0.00    +0.000 C 
ATOM     15  C   UNL     1      45.818   1.879   8.447  0.00  0.00    +0.000 C 
ATOM     16  C   UNL     1      46.733   3.014   8.043  0.00  0.00    +0.000 C 
ATOM     17  O   UNL     1      45.951   3.893   7.225  0.00  0.00    +0.000 OA
ATOM     18  C   UNL     1      44.559   3.604   7.442  0.00  0.00    +0.000 C 
ENDBRANCH  11  14
ENDBRANCH   9  10
ENDBRANCH   6   9
ENDBRANCH   2   3
BRANCH   2  19
ATOM     19  N   UNL     1      48.240   6.811  15.392  0.00  0.00    +0.000 N 
ATOM     20  C   UNL     1      49.003   6.391  16.451  0.00  0.00    +0.000 C 
ATOM     21  O   UNL     1      50.082   5.824  16.310  0.00  0.00    +0.000 OA
ATOM     22  H   UNL     1      47.253   6.983  15.566  0.00  0.00    +0.000 HD
BRANCH  20  23
ATOM     23  C   UNL     1      48.493   6.718  17.787  0.00  0.00    +0.000 A 
ATOM     24  C   UNL     1      48.324   5.707  18.723  0.00  0.00    +0.000 A 
ATOM     25  S   UNL     1      47.735   6.258  20.225  0.00  0.00    +0.000 S 
ATOM     26  C   UNL     1      47.647   7.861  19.663  0.00  0.00    +0.000 A 
ATOM     27  N   UNL     1      47.174   8.856  20.462  0.00  0.00    +0.000 NA
ATOM     28  C   UNL     1      47.132  10.018  19.899  0.00  0.00    +0.000 A 
ATOM     29  N   UNL     1      47.533  10.276  18.612  0.00  0.00    +0.000 N 
ATOM     30  C   UNL     1      48.054   9.313  17.785  0.00  0.00    +0.000 A 
ATOM     31  O   UNL     1      48.472   9.587  16.665  0.00  0.00    +0.000 OA
ATOM     32  C   UNL     1      48.093   7.981  18.360  0.00  0.00    +0.000 A 
ATOM     33  H   UNL     1      47.488  11.212  18.239  0.00  0.00    +0.000 HD
ENDBRANCH  20  23
ENDBRANCH   2  19
TORSDOF 6
ENDMDL
MODEL 4
REMARK VINA RESULT:    -6.779      3.692      8.799
REMARK INTER + INTRA:         -10.583
REMARK INTER:                  -9.240
REMARK INTRA:                  -1.343
REMARK UNBOUND:                -1.427
REMARK  Name = 
REMARK  7 active torsions:
REMARK  status: ('A' for Active; 'I' for Inactive)
REMARK    1  A    between atoms: C_1  and  C_2
REMARK    2  A    between atoms: C_2  and  N_3
REMARK    3  A    between atoms: C_2  and  C_16
REMARK    4  A    between atoms: C_4  and  C_6
REMARK    5  A    between atoms: C_19  and  C_20
REMARK    6  A    between atoms: C_20  and  N_21
REMARK    7  A    between atoms: C_22  and  C_24
REMARK                            x       y       z     vdW  Elec       q    Type
REMARK                         _______ _______ _______ _____ _____    ______ ____
ROOT
ATOM      1  C   UNL     1      49.357   8.551  11.386  0.00  0.00    +0.000 C 
ATOM      2  C   UNL     1      48.081   8.167  12.145  0.00  0.00    +0.000 C 
ENDROOT
BRANCH   2   3
ATOM      3  C   UNL     1      48.402   7.867  13.605  0.00  0.00    +0.000 A 
ATOM      4  C   UNL     1      48.249   6.573  14.121  0.00  0.00    +0.000 A 
ATOM      5  C   UNL     1      48.583   6.290  15.450  0.00  0.00    +0.000 A 
ATOM      6  C   UNL     1      49.071   7.296  16.296  0.00  0.00    +0.000 A 
ATOM      7  C   UNL     1      49.226   8.589  15.784  0.00  0.00    +0.000 A 
ATOM      8  C   UNL     1      48.891   8.872  14.457  0.00  0.00    +0.000 A 
BRANCH   6   9
ATOM      9  C   UNL     1      49.454   6.990  17.720  0.00  0.00    +0.000 C 
BRANCH   9  10
ATOM     10  N   UNL     1      49.237   5.596  18.041  0.00  0.00    +0.000 N 
ATOM     11  C   UNL     1      50.214   4.657  17.786  0.00  0.00    +0.000 C 
ATOM     12  O   UNL     1      51.303   4.951  17.305  0.00  0.00    +0.000 OA
ATOM     13  H   UNL     1      48.414   5.352  18.576  0.00  0.00    +0.000 HD
BRANCH  11  14
ATOM     14  C   UNL     1      49.830   3.235  18.177  0.00  0.00    +0.000 C 
ATOM     15  C   UNL     1      49.804   2.279  17.003  0.00  0.00    +0.000 C 
ATOM     16  C   UNL     1      48.408   2.468  16.449  0.00  0.00    +0.000 C 
ATOM     17  O   UNL     1      47.566   2.766  17.569  0.00  0.00    +0.000 OA
ATOM     18  C   UNL     1      48.395   3.174  18.670  0.00  0.00    +0.000 C 
ENDBRANCH  11  14
ENDBRANCH   9  10
ENDBRANCH   6   9
ENDBRANCH   2   3
BRANCH   2  19
ATOM     19  N   UNL     1      47.404   7.016  11.565  0.00  0.00    +0.000 N 
ATOM     20  C   UNL     1      46.048   6.958  11.369  0.00  0.00    +0.000 C 
ATOM     21  O   UNL     1      45.298   7.895  11.622  0.00  0.00    +0.000 OA
ATOM     22  H   UNL     1      47.906   6.134  11.628  0.00  0.00    +0.000 HD
BRANCH  20  23
ATOM     23  C   UNL     1      45.533   5.724  10.766  0.00  0.00    +0.000 A 
ATOM     24  C   UNL     1      45.750   5.478   9.416  0.00  0.00    +0.000 A 
ATOM     25  S   UNL     1      45.098   3.998   8.878  0.00  0.00    +0.000 S 
ATOM     26  C   UNL     1      44.467   3.654  10.420  0.00  0.00    +0.000 A 
ATOM     27  N   UNL     1      43.743   2.523  10.642  0.00  0.00    +0.000 NA
ATOM     28  C   UNL     1      43.297   2.403  11.848  0.00  0.00    +0.000 A 
ATOM     29  N   UNL     1      43.523   3.306  12.857  0.00  0.00    +0.000 N 
ATOM     30  C   UNL     1      44.281   4.438  12.690  0.00  0.00    +0.000 A 
ATOM     31  O   UNL     1      44.527   5.189  13.627  0.00  0.00    +0.000 OA
ATOM     32  C   UNL     1      44.779   4.636  11.341  0.00  0.00    +0.000 A 
ATOM     33  H   UNL     1      43.158   3.142  13.783  0.00  0.00    +0.000 HD
ENDBRANCH  20  23
ENDBRANCH   2  19
TORSDOF 6
ENDMDL
MODEL 5
REMARK VINA RESULT:    -6.664      3.723      9.190
REMARK INTER + INTRA:         -10.428
REMARK INTER:                  -9.030
REMARK INTRA:                  -1.398
REMARK UNBOUND:                -1.427
REMARK  Name = 
REMARK  7 active torsions:
REMARK  status: ('A' for Active; 'I' for Inactive)
REMARK    1  A    between atoms: C_1  and  C_2
REMARK    2  A    between atoms: C_2  and  N_3
REMARK    3  A    between atoms: C_2  and  C_16
REMARK    4  A    between atoms: C_4  and  C_6
REMARK    5  A    between atoms: C_19  and  C_20
REMARK    6  A    between atoms: C_20  and  N_21
REMARK    7  A    between atoms: C_22  and  C_24
REMARK                            x       y       z     vdW  Elec       q    Type
REMARK                         _______ _______ _______ _____ _____    ______ ____
ROOT
ATOM      1  C   UNL     1      48.994   7.777  11.312  0.00  0.00    +0.000 C 
ATOM      2  C   UNL     1      47.701   7.714  12.136  0.00  0.00    +0.000 C 
ENDROOT
BRANCH   2   3
ATOM      3  C   UNL     1      48.017   7.779  13.625  0.00  0.00    +0.000 A 
ATOM      4  C   UNL     1      48.323   6.615  14.344  0.00  0.00    +0.000 A 
ATOM      5  C   UNL     1      48.653   6.681  15.703  0.00  0.00    +0.000 A 
ATOM      6  C   UNL     1      48.678   7.911  16.375  0.00  0.00    +0.000 A 
ATOM      7  C   UNL     1      48.374   9.075  15.660  0.00  0.00    +0.000 A 
ATOM      8  C   UNL     1      48.042   9.009  14.305  0.00  0.00    +0.000 A 
BRANCH   6   9
ATOM      9  C   UNL     1      49.056   7.989  17.831  0.00  0.00    +0.000 C 
BRANCH   9  10
ATOM     10  N   UNL     1      49.203   6.673  18.414  0.00  0.00    +0.000 N 
ATOM     11  C   UNL     1      50.443   6.076  18.495  0.00  0.00    +0.000 C 
ATOM     12  O   UNL     1      51.468   6.627  18.108  0.00  0.00    +0.000 OA
ATOM     13  H   UNL     1      48.402   6.264  18.876  0.00  0.00    +0.000 HD
BRANCH  11  14
ATOM     14  C   UNL     1      50.429   4.690  19.129  0.00  0.00    +0.000 C 
ATOM     15  C   UNL     1      50.756   3.582  18.150  0.00  0.00    +0.000 C 
ATOM     16  C   UNL     1      49.410   3.276  17.530  0.00  0.00    +0.000 C 
ATOM     17  O   UNL     1      48.431   3.510  18.551  0.00  0.00    +0.000 OA
ATOM     18  C   UNL     1      49.029   4.314  19.583  0.00  0.00    +0.000 C 
ENDBRANCH  11  14
ENDBRANCH   9  10
ENDBRANCH   6   9
ENDBRANCH   2   3
BRANCH   2  19
ATOM     19  N   UNL     1      46.922   6.512  11.871  0.00  0.00    +0.000 N 
ATOM     20  C   UNL     1      45.553   6.500  11.807  0.00  0.00    +0.000 C 
ATOM     21  O   UNL     1      44.872   7.515  11.919  0.00  0.00    +0.000 OA
ATOM     22  H   UNL     1      47.389   5.633  12.076  0.00  0.00    +0.000 HD
BRANCH  20  23
ATOM     23  C   UNL     1      44.929   5.203  11.523  0.00  0.00    +0.000 A 
ATOM     24  C   UNL     1      44.185   4.570  12.509  0.00  0.00    +0.000 A 
ATOM     25  S   UNL     1      43.521   3.080  12.014  0.00  0.00    +0.000 S 
ATOM     26  C   UNL     1      44.241   3.209  10.478  0.00  0.00    +0.000 A 
ATOM     27  N   UNL     1      44.096   2.221   9.553  0.00  0.00    +0.000 NA
ATOM     28  C   UNL     1      44.720   2.433   8.443  0.00  0.00    +0.000 A 
ATOM     29  N   UNL     1      45.465   3.553   8.169  0.00  0.00    +0.000 N 
ATOM     30  C   UNL     1      45.604   4.593   9.054  0.00  0.00    +0.000 A 
ATOM     31  O   UNL     1      46.216   5.613   8.755  0.00  0.00    +0.000 OA
ATOM     32  C   UNL     1      44.948   4.388  10.332  0.00  0.00    +0.000 A 
ATOM     33  H   UNL     1      45.914   3.663   7.273  0.00  0.00    +0.000 HD
ENDBRANCH  20  23
ENDBRANCH   2  19
TORSDOF 6
ENDMDL
MODEL 6
REMARK VINA RESULT:    -6.363      3.098      9.797
REMARK INTER + INTRA:         -10.021
REMARK INTER:                  -8.962
REMARK INTRA:                  -1.059
REMARK UNBOUND:                -1.427
REMARK  Name = 
REMARK  7 active torsions:
REMARK  status: ('A' for Active; 'I' for Inactive)
REMARK    1  A    between atoms: C_1  and  C_2
REMARK    2  A    between atoms: C_2  and  N_3
REMARK    3  A    between atoms: C_2  and  C_16
REMARK    4  A    between atoms: C_4  and  C_6
REMARK    5  A    between atoms: C_19  and  C_20
REMARK    6  A    between atoms: C_20  and  N_21
REMARK    7  A    between atoms: C_22  and  C_24
REMARK                            x       y       z     vdW  Elec       q    Type
REMARK                         _______ _______ _______ _____ _____    ______ ____
ROOT
ATOM      1  C   UNL     1      48.712   7.097  12.910  0.00  0.00    +0.000 C 
ATOM      2  C   UNL     1      47.542   6.522  13.718  0.00  0.00    +0.000 C 
ENDROOT
BRANCH   2   3
ATOM      3  C   UNL     1      48.050   5.883  15.004  0.00  0.00    +0.000 A 
ATOM      4  C   UNL     1      47.487   4.692  15.483  0.00  0.00    +0.000 A 
ATOM      5  C   UNL     1      47.981   4.083  16.643  0.00  0.00    +0.000 A 
ATOM      6  C   UNL     1      49.044   4.656  17.355  0.00  0.00    +0.000 A 
ATOM      7  C   UNL     1      49.609   5.845  16.879  0.00  0.00    +0.000 A 
ATOM      8  C   UNL     1      49.114   6.453  15.723  0.00  0.00    +0.000 A 
BRANCH   6   9
ATOM      9  C   UNL     1      49.594   3.992  18.590  0.00  0.00    +0.000 C 
BRANCH   9  10
ATOM     10  N   UNL     1      51.039   4.051  18.627  0.00  0.00    +0.000 N 
ATOM     11  C   UNL     1      51.797   3.092  17.991  0.00  0.00    +0.000 C 
ATOM     12  O   UNL     1      51.297   2.170  17.354  0.00  0.00    +0.000 OA
ATOM     13  H   UNL     1      51.472   4.880  19.012  0.00  0.00    +0.000 HD
BRANCH  11  14
ATOM     14  C   UNL     1      53.301   3.293  18.126  0.00  0.00    +0.000 C 
ATOM     15  C   UNL     1      54.112   2.178  17.500  0.00  0.00    +0.000 C 
ATOM     16  C   UNL     1      54.183   1.152  18.610  0.00  0.00    +0.000 C 
ATOM     17  O   UNL     1      54.197   1.887  19.840  0.00  0.00    +0.000 OA
ATOM     18  C   UNL     1      53.731   3.222  19.582  0.00  0.00    +0.000 C 
ENDBRANCH  11  14
ENDBRANCH   9  10
ENDBRANCH   6   9
ENDBRANCH   2   3
BRANCH   2  19
ATOM     19  N   UNL     1      46.773   5.536  12.972  0.00  0.00    +0.000 N 
ATOM     20  C   UNL     1      45.426   5.647  12.741  0.00  0.00    +0.000 C 
ATOM     21  O   UNL     1      44.766   6.616  13.103  0.00  0.00    +0.000 OA
ATOM     22  H   UNL     1      47.180   4.606  12.926  0.00  0.00    +0.000 HD
BRANCH  20  23
ATOM     23  C   UNL     1      44.810   4.565  11.965  0.00  0.00    +0.000 A 
ATOM     24  C   UNL     1      43.997   3.639  12.605  0.00  0.00    +0.000 A 
ATOM     25  S   UNL     1      43.354   2.457  11.559  0.00  0.00    +0.000 S 
ATOM     26  C   UNL     1      44.174   3.117  10.222  0.00  0.00    +0.000 A 
ATOM     27  N   UNL     1      44.081   2.541   8.992  0.00  0.00    +0.000 NA
ATOM     28  C   UNL     1      44.778   3.125   8.076  0.00  0.00    +0.000 A 
ATOM     29  N   UNL     1      45.550   4.243   8.275  0.00  0.00    +0.000 N 
ATOM     30  C   UNL     1      45.640   4.881   9.488  0.00  0.00    +0.000 A 
ATOM     31  O   UNL     1      46.279   5.919   9.620  0.00  0.00    +0.000 OA
ATOM     32  C   UNL     1      44.900   4.243  10.560  0.00  0.00    +0.000 A 
ATOM     33  H   UNL     1      46.058   4.659   7.510  0.00  0.00    +0.000 HD
ENDBRANCH  20  23
ENDBRANCH   2  19
TORSDOF 6
ENDMDL
MODEL 7
REMARK VINA RESULT:    -6.343      2.896      9.322
REMARK INTER + INTRA:          -9.995
REMARK INTER:                  -8.984
REMARK INTRA:                  -1.012
REMARK UNBOUND:                -1.427
REMARK  Name = 
REMARK  7 active torsions:
REMARK  status: ('A' for Active; 'I' for Inactive)
REMARK    1  A    between atoms: C_1  and  C_2
REMARK    2  A    between atoms: C_2  and  N_3
REMARK    3  A    between atoms: C_2  and  C_16
REMARK    4  A    between atoms: C_4  and  C_6
REMARK    5  A    between atoms: C_19  and  C_20
REMARK    6  A    between atoms: C_20  and  N_21
REMARK    7  A    between atoms: C_22  and  C_24
REMARK                            x       y       z     vdW  Elec       q    Type
REMARK                         _______ _______ _______ _____ _____    ______ ____
ROOT
ATOM      1  C   UNL     1      46.839   5.123  18.423  0.00  0.00    +0.000 C 
ATOM      2  C   UNL     1      47.575   4.477  17.242  0.00  0.00    +0.000 C 
ENDROOT
BRANCH   2   3
ATOM      3  C   UNL     1      49.082   4.563  17.446  0.00  0.00    +0.000 A 
ATOM      4  C   UNL     1      49.864   3.401  17.507  0.00  0.00    +0.000 A 
ATOM      5  C   UNL     1      51.254   3.483  17.653  0.00  0.00    +0.000 A 
ATOM      6  C   UNL     1      51.893   4.727  17.748  0.00  0.00    +0.000 A 
ATOM      7  C   UNL     1      51.115   5.889  17.686  0.00  0.00    +0.000 A 
ATOM      8  C   UNL     1      49.728   5.807  17.543  0.00  0.00    +0.000 A 
BRANCH   6   9
ATOM      9  C   UNL     1      53.390   4.819  17.881  0.00  0.00    +0.000 C 
BRANCH   9  10
ATOM     10  N   UNL     1      53.981   3.526  18.148  0.00  0.00    +0.000 N 
ATOM     11  C   UNL     1      55.013   3.051  17.367  0.00  0.00    +0.000 C 
ATOM     12  O   UNL     1      55.489   3.696  16.438  0.00  0.00    +0.000 OA
ATOM     13  H   UNL     1      53.712   3.045  18.996  0.00  0.00    +0.000 HD
BRANCH  11  14
ATOM     14  C   UNL     1      55.521   1.674  17.774  0.00  0.00    +0.000 C 
ATOM     15  C   UNL     1      55.196   0.594  16.763  0.00  0.00    +0.000 C 
ATOM     16  C   UNL     1      53.803   0.163  17.170  0.00  0.00    +0.000 C 
ATOM     17  O   UNL     1      53.733   0.314  18.593  0.00  0.00    +0.000 OA
ATOM     18  C   UNL     1      54.804   1.174  19.016  0.00  0.00    +0.000 C 
ENDBRANCH  11  14
ENDBRANCH   9  10
ENDBRANCH   6   9
ENDBRANCH   2   3
BRANCH   2  19
ATOM     19  N   UNL     1      47.235   5.086  15.964  0.00  0.00    +0.000 N 
ATOM     20  C   UNL     1      47.251   4.405  14.775  0.00  0.00    +0.000 C 
ATOM     21  O   UNL     1      47.507   3.207  14.698  0.00  0.00    +0.000 OA
ATOM     22  H   UNL     1      47.322   6.098  15.925  0.00  0.00    +0.000 HD
BRANCH  20  23
ATOM     23  C   UNL     1      46.874   5.173  13.583  0.00  0.00    +0.000 A 
ATOM     24  C   UNL     1      47.367   6.459  13.412  0.00  0.00    +0.000 A 
ATOM     25  S   UNL     1      46.843   7.206  11.972  0.00  0.00    +0.000 S 
ATOM     26  C   UNL     1      45.905   5.852  11.548  0.00  0.00    +0.000 A 
ATOM     27  N   UNL     1      45.151   5.851  10.415  0.00  0.00    +0.000 NA
ATOM     28  C   UNL     1      44.464   4.773  10.231  0.00  0.00    +0.000 A 
ATOM     29  N   UNL     1      44.474   3.689  11.073  0.00  0.00    +0.000 N 
ATOM     30  C   UNL     1      45.250   3.628  12.204  0.00  0.00    +0.000 A 
ATOM     31  O   UNL     1      45.295   2.619  12.898  0.00  0.00    +0.000 OA
ATOM     32  C   UNL     1      46.017   4.830  12.473  0.00  0.00    +0.000 A 
ATOM     33  H   UNL     1      43.925   2.870  10.860  0.00  0.00    +0.000 HD
ENDBRANCH  20  23
ENDBRANCH   2  19
TORSDOF 6
ENDMDL
MODEL 8
REMARK VINA RESULT:    -5.977      4.331      9.335
REMARK INTER + INTRA:          -9.501
REMARK INTER:                  -8.298
REMARK INTRA:                  -1.203
REMARK UNBOUND:                -1.427
REMARK  Name = 
REMARK  7 active torsions:
REMARK  status: ('A' for Active; 'I' for Inactive)
REMARK    1  A    between atoms: C_1  and  C_2
REMARK    2  A    between atoms: C_2  and  N_3
REMARK    3  A    between atoms: C_2  and  C_16
REMARK    4  A    between atoms: C_4  and  C_6
REMARK    5  A    between atoms: C_19  and  C_20
REMARK    6  A    between atoms: C_20  and  N_21
REMARK    7  A    between atoms: C_22  and  C_24
REMARK                            x       y       z     vdW  Elec       q    Type
REMARK                         _______ _______ _______ _____ _____    ______ ____
ROOT
ATOM      1  C   UNL     1      49.006   7.941  11.297  0.00  0.00    +0.000 C 
ATOM      2  C   UNL     1      48.117   7.636  12.510  0.00  0.00    +0.000 C 
ENDROOT
BRANCH   2   3
ATOM      3  C   UNL     1      48.973   7.371  13.742  0.00  0.00    +0.000 A 
ATOM      4  C   UNL     1      50.262   7.911  13.848  0.00  0.00    +0.000 A 
ATOM      5  C   UNL     1      51.033   7.700  14.998  0.00  0.00    +0.000 A 
ATOM      6  C   UNL     1      50.534   6.939  16.065  0.00  0.00    +0.000 A 
ATOM      7  C   UNL     1      49.247   6.399  15.962  0.00  0.00    +0.000 A 
ATOM      8  C   UNL     1      48.480   6.607  14.814  0.00  0.00    +0.000 A 
BRANCH   6   9
ATOM      9  C   UNL     1      51.350   6.731  17.313  0.00  0.00    +0.000 C 
BRANCH   9  10
ATOM     10  N   UNL     1      50.509   6.598  18.482  0.00  0.00    +0.000 N 
ATOM     11  C   UNL     1      50.284   7.676  19.312  0.00  0.00    +0.000 C 
ATOM     12  O   UNL     1      50.757   8.786  19.094  0.00  0.00    +0.000 OA
ATOM     13  H   UNL     1      49.987   5.740  18.599  0.00  0.00    +0.000 HD
BRANCH  11  14
ATOM     14  C   UNL     1      49.381   7.372  20.500  0.00  0.00    +0.000 C 
ATOM     15  C   UNL     1      48.344   6.307  20.206  0.00  0.00    +0.000 C 
ATOM     16  C   UNL     1      47.213   7.103  19.591  0.00  0.00    +0.000 C 
ATOM     17  O   UNL     1      47.235   8.390  20.221  0.00  0.00    +0.000 OA
ATOM     18  C   UNL     1      48.516   8.572  20.848  0.00  0.00    +0.000 C 
ENDBRANCH  11  14
ENDBRANCH   9  10
ENDBRANCH   6   9
ENDBRANCH   2   3
BRANCH   2  19
ATOM     19  N   UNL     1      47.237   6.496  12.291  0.00  0.00    +0.000 N 
ATOM     20  C   UNL     1      45.924   6.617  11.917  0.00  0.00    +0.000 C 
ATOM     21  O   UNL     1      45.395   7.699  11.687  0.00  0.00    +0.000 OA
ATOM     22  H   UNL     1      47.515   5.634  12.753  0.00  0.00    +0.000 HD
BRANCH  20  23
ATOM     23  C   UNL     1      45.185   5.363  11.735  0.00  0.00    +0.000 A 
ATOM     24  C   UNL     1      44.488   4.816  12.804  0.00  0.00    +0.000 A 
ATOM     25  S   UNL     1      43.676   3.367  12.420  0.00  0.00    +0.000 S 
ATOM     26  C   UNL     1      44.261   3.398  10.824  0.00  0.00    +0.000 A 
ATOM     27  N   UNL     1      43.962   2.398   9.950  0.00  0.00    +0.000 NA
ATOM     28  C   UNL     1      44.498   2.532   8.783  0.00  0.00    +0.000 A 
ATOM     29  N   UNL     1      45.295   3.584   8.405  0.00  0.00    +0.000 N 
ATOM     30  C   UNL     1      45.588   4.635   9.238  0.00  0.00    +0.000 A 
ATOM     31  O   UNL     1      46.243   5.597   8.852  0.00  0.00    +0.000 OA
ATOM     32  C   UNL     1      45.037   4.516  10.575  0.00  0.00    +0.000 A 
ATOM     33  H   UNL     1      45.668   3.635   7.470  0.00  0.00    +0.000 HD
ENDBRANCH  20  23
ENDBRANCH   2  19
TORSDOF 6
ENDMDL
MODEL 9
REMARK VINA RESULT:    -5.975      6.323      7.939
REMARK INTER + INTRA:          -9.498
REMARK INTER:                  -8.275
REMARK INTRA:                  -1.223
REMARK UNBOUND:                -1.427
REMARK  Name = 
REMARK  7 active torsions:
REMARK  status: ('A' for Active; 'I' for Inactive)
REMARK    1  A    between atoms: C_1  and  C_2
REMARK    2  A    between atoms: C_2  and  N_3
REMARK    3  A    between atoms: C_2  and  C_16
REMARK    4  A    between atoms: C_4  and  C_6
REMARK    5  A    between atoms: C_19  and  C_20
REMARK    6  A    between atoms: C_20  and  N_21
REMARK    7  A    between atoms: C_22  and  C_24
REMARK                            x       y       z     vdW  Elec       q    Type
REMARK                         _______ _______ _______ _____ _____    ______ ____
ROOT
ATOM      1  C   UNL     1      52.325   8.513  12.761  0.00  0.00    +0.000 C 
ATOM      2  C   UNL     1      51.502   9.109  11.612  0.00  0.00    +0.000 C 
ENDROOT
BRANCH   2   3
ATOM      3  C   UNL     1      50.016   8.858  11.838  0.00  0.00    +0.000 A 
ATOM      4  C   UNL     1      49.108   9.925  11.889  0.00  0.00    +0.000 A 
ATOM      5  C   UNL     1      47.738   9.691  12.055  0.00  0.00    +0.000 A 
ATOM      6  C   UNL     1      47.245   8.385  12.182  0.00  0.00    +0.000 A 
ATOM      7  C   UNL     1      48.149   7.316  12.130  0.00  0.00    +0.000 A 
ATOM      8  C   UNL     1      49.516   7.551  11.966  0.00  0.00    +0.000 A 
BRANCH   6   9
ATOM      9  C   UNL     1      45.769   8.127  12.337  0.00  0.00    +0.000 C 
BRANCH   9  10
ATOM     10  N   UNL     1      45.507   6.760  12.732  0.00  0.00    +0.000 N 
ATOM     11  C   UNL     1      44.405   6.089  12.247  0.00  0.00    +0.000 C 
ATOM     12  O   UNL     1      43.618   6.597  11.455  0.00  0.00    +0.000 OA
ATOM     13  H   UNL     1      46.218   6.272  13.260  0.00  0.00    +0.000 HD
BRANCH  11  14
ATOM     14  C   UNL     1      44.267   4.661  12.761  0.00  0.00    +0.000 C 
ATOM     15  C   UNL     1      45.353   3.736  12.251  0.00  0.00    +0.000 C 
ATOM     16  C   UNL     1      44.801   3.275  10.919  0.00  0.00    +0.000 C 
ATOM     17  O   UNL     1      43.376   3.229  11.066  0.00  0.00    +0.000 OA
ATOM     18  C   UNL     1      43.008   4.006  12.218  0.00  0.00    +0.000 C 
ENDBRANCH  11  14
ENDBRANCH   9  10
ENDBRANCH   6   9
ENDBRANCH   2   3
BRANCH   2  19
ATOM     19  N   UNL     1      51.879   8.574  10.311  0.00  0.00    +0.000 N 
ATOM     20  C   UNL     1      52.894   9.090   9.548  0.00  0.00    +0.000 C 
ATOM     21  O   UNL     1      53.603  10.018   9.924  0.00  0.00    +0.000 OA
ATOM     22  H   UNL     1      51.160   8.039   9.832  0.00  0.00    +0.000 HD
BRANCH  20  23
ATOM     23  C   UNL     1      53.144   8.423   8.266  0.00  0.00    +0.000 A 
ATOM     24  C   UNL     1      53.112   9.163   7.091  0.00  0.00    +0.000 A 
ATOM     25  S   UNL     1      53.434   8.240   5.694  0.00  0.00    +0.000 S 
ATOM     26  C   UNL     1      53.585   6.813   6.607  0.00  0.00    +0.000 A 
ATOM     27  N   UNL     1      53.828   5.618   6.001  0.00  0.00    +0.000 NA
ATOM     28  C   UNL     1      53.888   4.612   6.808  0.00  0.00    +0.000 A 
ATOM     29  N   UNL     1      53.740   4.695   8.170  0.00  0.00    +0.000 N 
ATOM     30  C   UNL     1      53.536   5.883   8.828  0.00  0.00    +0.000 A 
ATOM     31  O   UNL     1      53.480   5.937  10.052  0.00  0.00    +0.000 OA
ATOM     32  C   UNL     1      53.428   7.041   7.961  0.00  0.00    +0.000 A 
ATOM     33  H   UNL     1      53.815   3.870   8.745  0.00  0.00    +0.000 HD
ENDBRANCH  20  23
ENDBRANCH   2  19
TORSDOF 6
ENDMDL
