MODEL 1
REMARK VINA RESULT:    -8.883      0.000      0.000
REMARK INTER + INTRA:         -12.280
REMARK INTER:                 -11.479
REMARK INTRA:                  -0.801
REMARK UNBOUND:                -0.801
REMARK  Name = 
REMARK  5 active torsions:
REMARK  status: ('A' for Active; 'I' for Inactive)
REMARK    1  A    between atoms: C_2  and  C_4
REMARK    2  A    between atoms: C_7  and  O_8
REMARK    3  A    between atoms: O_8  and  C_9
REMARK    4  A    between atoms: C_9  and  C_10
REMARK    5  A    between atoms: C_15  and  C_16
REMARK                            x       y       z     vdW  Elec       q    Type
REMARK                         _______ _______ _______ _____ _____    ______ ____
ROOT
ATOM      1  C   UNL     1      43.689   4.243  11.220  0.00  0.00    +0.000 C 
ENDROOT
BRANCH   1   2
ATOM      2  C   UNL     1      44.922   4.703  11.965  0.00  0.00    +0.000 A 
ATOM      3  C   UNL     1      45.558   3.828  12.852  0.00  0.00    +0.000 A 
ATOM      4  C   UNL     1      46.719   4.225  13.497  0.00  0.00    +0.000 A 
ATOM      5  F   UNL     1      47.325   3.381  14.342  0.00  0.00    +0.000 F 
ATOM      6  C   UNL     1      47.269   5.485  13.280  0.00  0.00    +0.000 A 
ATOM      7  C   UNL     1      46.672   6.389  12.386  0.00  0.00    +0.000 A 
ATOM      8  C   UNL     1      45.500   5.962  11.727  0.00  0.00    +0.000 A 
BRANCH   7   9
ATOM      9  C   UNL     1      47.244   7.734  12.143  0.00  0.00    +0.000 A 
ATOM     10  C   UNL     1      48.590   7.910  11.791  0.00  0.00    +0.000 A 
ATOM     11  C   UNL     1      49.081   9.191  11.586  0.00  0.00    +0.000 A 
ATOM     12  N   UNL     1      48.336  10.308  11.690  0.00  0.00    +0.000 NA
ATOM     13  C   UNL     1      47.043  10.134  12.021  0.00  0.00    +0.000 A 
ATOM     14  C   UNL     1      46.464   8.894  12.258  0.00  0.00    +0.000 A 
ENDBRANCH   7   9
ENDBRANCH   1   2
BRANCH   1  15
ATOM     15  O   UNL     1      43.709   4.686   9.858  0.00  0.00    +0.000 OA
BRANCH  15  19
ATOM     16  C   UNL     1      46.420   2.493   7.667  0.00  0.00    +0.000 A 
ATOM     17  C   UNL     1      45.533   1.837   8.524  0.00  0.00    +0.000 A 
ATOM     18  C   UNL     1      44.611   2.588   9.256  0.00  0.00    +0.000 A 
ATOM     19  C   UNL     1      44.609   3.967   9.101  0.00  0.00    +0.000 A 
ATOM     20  N   UNL     1      45.447   4.623   8.270  0.00  0.00    +0.000 NA
ATOM     21  C   UNL     1      46.341   3.876   7.579  0.00  0.00    +0.000 A 
BRANCH  16  23
ATOM     22  N   UNL     1      48.517   2.546   6.441  0.00  0.00    +0.000 N 
ATOM     23  C   UNL     1      47.463   1.799   6.887  0.00  0.00    +0.000 C 
ATOM     24  O   UNL     1      47.401   0.598   6.670  0.00  0.00    +0.000 OA
ATOM     25  H   UNL     1      49.262   2.040   5.978  0.00  0.00    +0.000 HD
ATOM     26  H   UNL     1      48.727   3.468   6.795  0.00  0.00    +0.000 HD
ENDBRANCH  16  23
ENDBRANCH  15  19
ENDBRANCH   1  15
TORSDOF 5
ENDMDL
MODEL 2
REMARK VINA RESULT:    -8.203      1.673      2.280
REMARK INTER + INTRA:         -11.401
REMARK INTER:                 -10.548
REMARK INTRA:                  -0.853
REMARK UNBOUND:                -0.801
REMARK  Name = 
REMARK  5 active torsions:
REMARK  status: ('A' for Active; 'I' for Inactive)
REMARK    1  A    between atoms: C_2  and  C_4
REMARK    2  A    between atoms: C_7  and  O_8
REMARK    3  A    between atoms: O_8  and  C_9
REMARK    4  A    between atoms: C_9  and  C_10
REMARK    5  A    between atoms: C_15  and  C_16
REMARK                            x       y       z     vdW  Elec       q    Type
REMARK                         _______ _______ _______ _____ _____    ______ ____
ROOT
ATOM      1  C   UNL     1      43.935   3.667  11.579  0.00  0.00    +0.000 C 
ENDROOT
BRANCH   1   2
ATOM      2  C   UNL     1      44.761   4.827  12.091  0.00  0.00    +0.000 A 
ATOM      3  C   UNL     1      45.865   4.577  12.912  0.00  0.00    +0.000 A 
ATOM      4  C   UNL     1      46.656   5.631  13.342  0.00  0.00    +0.000 A 
ATOM      5  F   UNL     1      47.714   5.384  14.126  0.00  0.00    +0.000 F 
ATOM      6  C   UNL     1      46.374   6.942  12.971  0.00  0.00    +0.000 A 
ATOM      7  C   UNL     1      45.285   7.236  12.134  0.00  0.00    +0.000 A 
ATOM      8  C   UNL     1      44.500   6.150  11.694  0.00  0.00    +0.000 A 
BRANCH   7   9
ATOM      9  C   UNL     1      44.969   8.626  11.728  0.00  0.00    +0.000 A 
ATOM     10  C   UNL     1      43.850   8.927  10.939  0.00  0.00    +0.000 A 
ATOM     11  C   UNL     1      43.604  10.243  10.574  0.00  0.00    +0.000 A 
ATOM     12  N   UNL     1      44.376  11.282  10.946  0.00  0.00    +0.000 NA
ATOM     13  C   UNL     1      45.445  10.990  11.709  0.00  0.00    +0.000 A 
ATOM     14  C   UNL     1      45.779   9.704  12.113  0.00  0.00    +0.000 A 
ENDBRANCH   7   9
ENDBRANCH   1   2
BRANCH   1  15
ATOM     15  O   UNL     1      43.588   3.846  10.201  0.00  0.00    +0.000 OA
BRANCH  15  19
ATOM     16  C   UNL     1      46.560   2.616   7.628  0.00  0.00    +0.000 A 
ATOM     17  C   UNL     1      46.220   3.970   7.695  0.00  0.00    +0.000 A 
ATOM     18  C   UNL     1      45.218   4.379   8.577  0.00  0.00    +0.000 A 
ATOM     19  C   UNL     1      44.595   3.419   9.361  0.00  0.00    +0.000 A 
ATOM     20  N   UNL     1      44.913   2.107   9.323  0.00  0.00    +0.000 NA
ATOM     21  C   UNL     1      45.880   1.730   8.452  0.00  0.00    +0.000 A 
BRANCH  16  23
ATOM     22  N   UNL     1      47.878   2.825   5.598  0.00  0.00    +0.000 N 
ATOM     23  C   UNL     1      47.568   2.074   6.697  0.00  0.00    +0.000 C 
ATOM     24  O   UNL     1      48.125   1.008   6.913  0.00  0.00    +0.000 OA
ATOM     25  H   UNL     1      48.629   2.477   5.014  0.00  0.00    +0.000 HD
ATOM     26  H   UNL     1      47.629   3.800   5.509  0.00  0.00    +0.000 HD
ENDBRANCH  16  23
ENDBRANCH  15  19
ENDBRANCH   1  15
TORSDOF 5
ENDMDL
MODEL 3
REMARK VINA RESULT:    -8.053      2.136      2.707
REMARK INTER + INTRA:         -11.208
REMARK INTER:                 -10.580
REMARK INTRA:                  -0.628
REMARK UNBOUND:                -0.801
REMARK  Name = 
REMARK  5 active torsions:
REMARK  status: ('A' for Active; 'I' for Inactive)
REMARK    1  A    between atoms: C_2  and  C_4
REMARK    2  A    between atoms: C_7  and  O_8
REMARK    3  A    between atoms: O_8  and  C_9
REMARK    4  A    between atoms: C_9  and  C_10
REMARK    5  A    between atoms: C_15  and  C_16
REMARK                            x       y       z     vdW  Elec       q    Type
REMARK                         _______ _______ _______ _____ _____    ______ ____
ROOT
ATOM      1  C   UNL     1      44.168   3.718  11.633  0.00  0.00    +0.000 C 
ENDROOT
BRANCH   1   2
ATOM      2  C   UNL     1      44.654   5.150  11.670  0.00  0.00    +0.000 A 
ATOM      3  C   UNL     1      43.782   6.183  11.313  0.00  0.00    +0.000 A 
ATOM      4  C   UNL     1      44.206   7.501  11.394  0.00  0.00    +0.000 A 
ATOM      5  F   UNL     1      43.364   8.486  11.054  0.00  0.00    +0.000 F 
ATOM      6  C   UNL     1      45.489   7.820  11.829  0.00  0.00    +0.000 A 
ATOM      7  C   UNL     1      46.391   6.814  12.213  0.00  0.00    +0.000 A 
ATOM      8  C   UNL     1      45.938   5.481  12.137  0.00  0.00    +0.000 A 
BRANCH   7   9
ATOM      9  C   UNL     1      47.761   7.136  12.677  0.00  0.00    +0.000 A 
ATOM     10  C   UNL     1      48.725   7.675  11.813  0.00  0.00    +0.000 A 
ATOM     11  C   UNL     1      49.998   7.948  12.292  0.00  0.00    +0.000 A 
ATOM     12  N   UNL     1      50.382   7.738  13.566  0.00  0.00    +0.000 NA
ATOM     13  C   UNL     1      49.453   7.226  14.393  0.00  0.00    +0.000 A 
ATOM     14  C   UNL     1      48.158   6.911  14.003  0.00  0.00    +0.000 A 
ENDBRANCH   7   9
ENDBRANCH   1   2
BRANCH   1  15
ATOM     15  O   UNL     1      43.609   3.393  10.355  0.00  0.00    +0.000 OA
BRANCH  15  19
ATOM     16  C   UNL     1      46.489   2.659   7.504  0.00  0.00    +0.000 A 
ATOM     17  C   UNL     1      45.978   3.951   7.653  0.00  0.00    +0.000 A 
ATOM     18  C   UNL     1      45.008   4.192   8.629  0.00  0.00    +0.000 A 
ATOM     19  C   UNL     1      44.589   3.133   9.420  0.00  0.00    +0.000 A 
ATOM     20  N   UNL     1      45.076   1.878   9.304  0.00  0.00    +0.000 NA
ATOM     21  C   UNL     1      46.007   1.664   8.343  0.00  0.00    +0.000 A 
BRANCH  16  23
ATOM     22  N   UNL     1      47.439   2.970   5.289  0.00  0.00    +0.000 N 
ATOM     23  C   UNL     1      47.478   2.289   6.473  0.00  0.00    +0.000 C 
ATOM     24  O   UNL     1      48.317   1.424   6.679  0.00  0.00    +0.000 OA
ATOM     25  H   UNL     1      48.174   2.760   4.625  0.00  0.00    +0.000 HD
ATOM     26  H   UNL     1      46.934   3.837   5.170  0.00  0.00    +0.000 HD
ENDBRANCH  16  23
ENDBRANCH  15  19
ENDBRANCH   1  15
TORSDOF 5
ENDMDL
MODEL 4
REMARK VINA RESULT:    -8.000      2.040      2.662
REMARK INTER + INTRA:         -11.139
REMARK INTER:                 -10.389
REMARK INTRA:                  -0.750
REMARK UNBOUND:                -0.801
REMARK  Name = 
REMARK  5 active torsions:
REMARK  status: ('A' for Active; 'I' for Inactive)
REMARK    1  A    between atoms: C_2  and  C_4
REMARK    2  A    between atoms: C_7  and  O_8
REMARK    3  A    between atoms: O_8  and  C_9
REMARK    4  A    between atoms: C_9  and  C_10
REMARK    5  A    between atoms: C_15  and  C_16
REMARK                            x       y       z     vdW  Elec       q    Type
REMARK                         _______ _______ _______ _____ _____    ______ ____
ROOT
ATOM      1  C   UNL     1      44.459   4.792  11.444  0.00  0.00    +0.000 C 
ENDROOT
BRANCH   1   2
ATOM      2  C   UNL     1      45.054   6.175  11.590  0.00  0.00    +0.000 A 
ATOM      3  C   UNL     1      44.240   7.298  11.410  0.00  0.00    +0.000 A 
ATOM      4  C   UNL     1      44.768   8.567  11.593  0.00  0.00    +0.000 A 
ATOM      5  F   UNL     1      43.982   9.638  11.423  0.00  0.00    +0.000 F 
ATOM      6  C   UNL     1      46.100   8.748  11.955  0.00  0.00    +0.000 A 
ATOM      7  C   UNL     1      46.947   7.648  12.162  0.00  0.00    +0.000 A 
ATOM      8  C   UNL     1      46.390   6.364  11.985  0.00  0.00    +0.000 A 
BRANCH   7   9
ATOM      9  C   UNL     1      48.367   7.822  12.548  0.00  0.00    +0.000 A 
ATOM     10  C   UNL     1      49.370   8.033  11.591  0.00  0.00    +0.000 A 
ATOM     11  C   UNL     1      50.688   8.179  12.001  0.00  0.00    +0.000 A 
ATOM     12  N   UNL     1      51.082   8.144  13.288  0.00  0.00    +0.000 NA
ATOM     13  C   UNL     1      50.115   7.949  14.204  0.00  0.00    +0.000 A 
ATOM     14  C   UNL     1      48.774   7.781  13.889  0.00  0.00    +0.000 A 
ENDBRANCH   7   9
ENDBRANCH   1   2
BRANCH   1  15
ATOM     15  O   UNL     1      43.878   4.610  10.147  0.00  0.00    +0.000 OA
BRANCH  15  19
ATOM     16  C   UNL     1      46.411   2.468   7.707  0.00  0.00    +0.000 A 
ATOM     17  C   UNL     1      45.645   1.799   8.665  0.00  0.00    +0.000 A 
ATOM     18  C   UNL     1      44.782   2.533   9.482  0.00  0.00    +0.000 A 
ATOM     19  C   UNL     1      44.715   3.907   9.307  0.00  0.00    +0.000 A 
ATOM     20  N   UNL     1      45.436   4.575   8.381  0.00  0.00    +0.000 NA
ATOM     21  C   UNL     1      46.275   3.846   7.608  0.00  0.00    +0.000 A 
BRANCH  16  23
ATOM     22  N   UNL     1      48.479   2.514   6.434  0.00  0.00    +0.000 N 
ATOM     23  C   UNL     1      47.387   1.794   6.829  0.00  0.00    +0.000 C 
ATOM     24  O   UNL     1      47.238   0.629   6.489  0.00  0.00    +0.000 OA
ATOM     25  H   UNL     1      49.178   2.012   5.899  0.00  0.00    +0.000 HD
ATOM     26  H   UNL     1      48.760   3.377   6.877  0.00  0.00    +0.000 HD
ENDBRANCH  16  23
ENDBRANCH  15  19
ENDBRANCH   1  15
TORSDOF 5
ENDMDL
MODEL 5
REMARK VINA RESULT:    -7.457      2.812      6.907
REMARK INTER + INTRA:         -10.438
REMARK INTER:                  -9.772
REMARK INTRA:                  -0.666
REMARK UNBOUND:                -0.801
REMARK  Name = 
REMARK  5 active torsions:
REMARK  status: ('A' for Active; 'I' for Inactive)
REMARK    1  A    between atoms: C_2  and  C_4
REMARK    2  A    between atoms: C_7  and  O_8
REMARK    3  A    between atoms: O_8  and  C_9
REMARK    4  A    between atoms: C_9  and  C_10
REMARK    5  A    between atoms: C_15  and  C_16
REMARK                            x       y       z     vdW  Elec       q    Type
REMARK                         _______ _______ _______ _____ _____    ______ ____
ROOT
ATOM      1  C   UNL     1      44.531   6.580  11.010  0.00  0.00    +0.000 C 
ENDROOT
BRANCH   1   2
ATOM      2  C   UNL     1      44.513   5.111  10.648  0.00  0.00    +0.000 A 
ATOM      3  C   UNL     1      43.697   4.234  11.369  0.00  0.00    +0.000 A 
ATOM      4  C   UNL     1      43.637   2.896  11.009  0.00  0.00    +0.000 A 
ATOM      5  F   UNL     1      42.850   2.062  11.701  0.00  0.00    +0.000 F 
ATOM      6  C   UNL     1      44.376   2.405   9.937  0.00  0.00    +0.000 A 
ATOM      7  C   UNL     1      45.196   3.254   9.176  0.00  0.00    +0.000 A 
ATOM      8  C   UNL     1      45.233   4.614   9.548  0.00  0.00    +0.000 A 
BRANCH   7   9
ATOM      9  C   UNL     1      45.990   2.748   8.032  0.00  0.00    +0.000 A 
ATOM     10  C   UNL     1      46.504   1.444   8.011  0.00  0.00    +0.000 A 
ATOM     11  C   UNL     1      47.252   1.021   6.923  0.00  0.00    +0.000 A 
ATOM     12  N   UNL     1      47.516   1.789   5.848  0.00  0.00    +0.000 NA
ATOM     13  C   UNL     1      47.015   3.037   5.868  0.00  0.00    +0.000 A 
ATOM     14  C   UNL     1      46.266   3.553   6.917  0.00  0.00    +0.000 A 
ENDBRANCH   7   9
ENDBRANCH   1   2
BRANCH   1  15
ATOM     15  O   UNL     1      44.575   6.764  12.430  0.00  0.00    +0.000 OA
BRANCH  15  19
ATOM     16  C   UNL     1      48.419   7.166  13.853  0.00  0.00    +0.000 A 
ATOM     17  C   UNL     1      47.877   5.891  13.679  0.00  0.00    +0.000 A 
ATOM     18  C   UNL     1      46.576   5.764  13.187  0.00  0.00    +0.000 A 
ATOM     19  C   UNL     1      45.868   6.918  12.885  0.00  0.00    +0.000 A 
ATOM     20  N   UNL     1      46.373   8.162  13.033  0.00  0.00    +0.000 NA
ATOM     21  C   UNL     1      47.632   8.262  13.523  0.00  0.00    +0.000 A 
BRANCH  16  23
ATOM     22  N   UNL     1      50.766   7.705  13.529  0.00  0.00    +0.000 N 
ATOM     23  C   UNL     1      49.763   7.411  14.410  0.00  0.00    +0.000 C 
ATOM     24  O   UNL     1      49.968   7.379  15.615  0.00  0.00    +0.000 OA
ATOM     25  H   UNL     1      51.662   7.949  13.933  0.00  0.00    +0.000 HD
ATOM     26  H   UNL     1      50.595   7.976  12.571  0.00  0.00    +0.000 HD
ENDBRANCH  16  23
ENDBRANCH  15  19
ENDBRANCH   1  15
TORSDOF 5
ENDMDL
MODEL 6
REMARK VINA RESULT:    -7.337      4.731      8.095
REMARK INTER + INTRA:         -10.283
REMARK INTER:                  -9.728
REMARK INTRA:                  -0.555
REMARK UNBOUND:                -0.801
REMARK  Name = 
REMARK  5 active torsions:
REMARK  status: ('A' for Active; 'I' for Inactive)
REMARK    1  A    between atoms: C_2  and  C_4
REMARK    2  A    between atoms: C_7  and  O_8
REMARK    3  A    between atoms: O_8  and  C_9
REMARK    4  A    between atoms: C_9  and  C_10
REMARK    5  A    between atoms: C_15  and  C_16
REMARK                            x       y       z     vdW  Elec       q    Type
REMARK                         _______ _______ _______ _____ _____    ______ ____
ROOT
ATOM      1  C   UNL     1      46.023   5.163  14.036  0.00  0.00    +0.000 C 
ENDROOT
BRANCH   1   2
ATOM      2  C   UNL     1      45.139   4.923  12.832  0.00  0.00    +0.000 A 
ATOM      3  C   UNL     1      43.809   5.354  12.857  0.00  0.00    +0.000 A 
ATOM      4  C   UNL     1      43.009   5.184  11.738  0.00  0.00    +0.000 A 
ATOM      5  F   UNL     1      41.738   5.603  11.767  0.00  0.00    +0.000 F 
ATOM      6  C   UNL     1      43.505   4.588  10.582  0.00  0.00    +0.000 A 
ATOM      7  C   UNL     1      44.839   4.155  10.508  0.00  0.00    +0.000 A 
ATOM      8  C   UNL     1      45.642   4.350  11.651  0.00  0.00    +0.000 A 
BRANCH   7   9
ATOM      9  C   UNL     1      45.383   3.519   9.286  0.00  0.00    +0.000 A 
ATOM     10  C   UNL     1      45.459   2.126   9.151  0.00  0.00    +0.000 A 
ATOM     11  C   UNL     1      45.988   1.578   7.991  0.00  0.00    +0.000 A 
ATOM     12  N   UNL     1      46.434   2.308   6.952  0.00  0.00    +0.000 NA
ATOM     13  C   UNL     1      46.354   3.645   7.082  0.00  0.00    +0.000 A 
ATOM     14  C   UNL     1      45.852   4.284   8.207  0.00  0.00    +0.000 A 
ENDBRANCH   7   9
ENDBRANCH   1   2
BRANCH   1  15
ATOM     15  O   UNL     1      46.637   3.947  14.480  0.00  0.00    +0.000 OA
BRANCH  15  19
ATOM     16  C   UNL     1      48.518   4.426  18.112  0.00  0.00    +0.000 A 
ATOM     17  C   UNL     1      48.635   5.420  17.138  0.00  0.00    +0.000 A 
ATOM     18  C   UNL     1      47.986   5.253  15.912  0.00  0.00    +0.000 A 
ATOM     19  C   UNL     1      47.242   4.100  15.710  0.00  0.00    +0.000 A 
ATOM     20  N   UNL     1      47.104   3.130  16.640  0.00  0.00    +0.000 NA
ATOM     21  C   UNL     1      47.751   3.307  17.816  0.00  0.00    +0.000 A 
BRANCH  16  23
ATOM     22  N   UNL     1      48.563   3.917  20.488  0.00  0.00    +0.000 N 
ATOM     23  C   UNL     1      49.201   4.482  19.419  0.00  0.00    +0.000 C 
ATOM     24  O   UNL     1      50.307   4.989  19.537  0.00  0.00    +0.000 OA
ATOM     25  H   UNL     1      49.080   3.893  21.358  0.00  0.00    +0.000 HD
ATOM     26  H   UNL     1      47.779   3.288  20.391  0.00  0.00    +0.000 HD
ENDBRANCH  16  23
ENDBRANCH  15  19
ENDBRANCH   1  15
TORSDOF 5
ENDMDL
MODEL 7
REMARK VINA RESULT:    -7.253      2.696      3.806
REMARK INTER + INTRA:         -10.174
REMARK INTER:                  -9.634
REMARK INTRA:                  -0.540
REMARK UNBOUND:                -0.801
REMARK  Name = 
REMARK  5 active torsions:
REMARK  status: ('A' for Active; 'I' for Inactive)
REMARK    1  A    between atoms: C_2  and  C_4
REMARK    2  A    between atoms: C_7  and  O_8
REMARK    3  A    between atoms: O_8  and  C_9
REMARK    4  A    between atoms: C_9  and  C_10
REMARK    5  A    between atoms: C_15  and  C_16
REMARK                            x       y       z     vdW  Elec       q    Type
REMARK                         _______ _______ _______ _____ _____    ______ ____
ROOT
ATOM      1  C   UNL     1      44.811   5.812  10.981  0.00  0.00    +0.000 C 
ENDROOT
BRANCH   1   2
ATOM      2  C   UNL     1      46.100   6.106  11.716  0.00  0.00    +0.000 A 
ATOM      3  C   UNL     1      47.054   6.942  11.126  0.00  0.00    +0.000 A 
ATOM      4  C   UNL     1      48.214   7.257  11.817  0.00  0.00    +0.000 A 
ATOM      5  F   UNL     1      49.121   8.061  11.248  0.00  0.00    +0.000 F 
ATOM      6  C   UNL     1      48.452   6.756  13.093  0.00  0.00    +0.000 A 
ATOM      7  C   UNL     1      47.513   5.926  13.729  0.00  0.00    +0.000 A 
ATOM      8  C   UNL     1      46.332   5.628  13.017  0.00  0.00    +0.000 A 
BRANCH   7   9
ATOM      9  C   UNL     1      47.750   5.384  15.087  0.00  0.00    +0.000 A 
ATOM     10  C   UNL     1      47.057   4.262  15.563  0.00  0.00    +0.000 A 
ATOM     11  C   UNL     1      47.304   3.798  16.847  0.00  0.00    +0.000 A 
ATOM     12  N   UNL     1      48.197   4.356  17.688  0.00  0.00    +0.000 NA
ATOM     13  C   UNL     1      48.865   5.429  17.225  0.00  0.00    +0.000 A 
ATOM     14  C   UNL     1      48.676   5.971  15.960  0.00  0.00    +0.000 A 
ENDBRANCH   7   9
ENDBRANCH   1   2
BRANCH   1  15
ATOM     15  O   UNL     1      44.627   4.403  10.798  0.00  0.00    +0.000 OA
BRANCH  15  19
ATOM     16  C   UNL     1      46.458   3.012   7.382  0.00  0.00    +0.000 A 
ATOM     17  C   UNL     1      45.922   2.103   8.297  0.00  0.00    +0.000 A 
ATOM     18  C   UNL     1      45.295   2.584   9.448  0.00  0.00    +0.000 A 
ATOM     19  C   UNL     1      45.225   3.956   9.638  0.00  0.00    +0.000 A 
ATOM     20  N   UNL     1      45.725   4.856   8.764  0.00  0.00    +0.000 NA
ATOM     21  C   UNL     1      46.339   4.367   7.660  0.00  0.00    +0.000 A 
BRANCH  16  23
ATOM     22  N   UNL     1      48.466   2.162   6.310  0.00  0.00    +0.000 N 
ATOM     23  C   UNL     1      47.183   2.608   6.161  0.00  0.00    +0.000 C 
ATOM     24  O   UNL     1      46.648   2.646   5.063  0.00  0.00    +0.000 OA
ATOM     25  H   UNL     1      48.920   1.814   5.474  0.00  0.00    +0.000 HD
ATOM     26  H   UNL     1      48.855   1.891   7.201  0.00  0.00    +0.000 HD
ENDBRANCH  16  23
ENDBRANCH  15  19
ENDBRANCH   1  15
TORSDOF 5
ENDMDL
MODEL 8
REMARK VINA RESULT:    -7.229      3.804      7.404
REMARK INTER + INTRA:         -10.142
REMARK INTER:                  -9.524
REMARK INTRA:                  -0.618
REMARK UNBOUND:                -0.801
REMARK  Name = 
REMARK  5 active torsions:
REMARK  status: ('A' for Active; 'I' for Inactive)
REMARK    1  A    between atoms: C_2  and  C_4
REMARK    2  A    between atoms: C_7  and  O_8
REMARK    3  A    between atoms: O_8  and  C_9
REMARK    4  A    between atoms: C_9  and  C_10
REMARK    5  A    between atoms: C_15  and  C_16
REMARK                            x       y       z     vdW  Elec       q    Type
REMARK                         _______ _______ _______ _____ _____    ______ ____
ROOT
ATOM      1  C   UNL     1      46.247   7.101  12.784  0.00  0.00    +0.000 C 
ENDROOT
BRANCH   1   2
ATOM      2  C   UNL     1      45.321   6.213  11.984  0.00  0.00    +0.000 A 
ATOM      3  C   UNL     1      43.944   6.261  12.221  0.00  0.00    +0.000 A 
ATOM      4  C   UNL     1      43.086   5.487  11.454  0.00  0.00    +0.000 A 
ATOM      5  F   UNL     1      41.767   5.542  11.684  0.00  0.00    +0.000 F 
ATOM      6  C   UNL     1      43.569   4.658  10.447  0.00  0.00    +0.000 A 
ATOM      7  C   UNL     1      44.943   4.591  10.165  0.00  0.00    +0.000 A 
ATOM      8  C   UNL     1      45.800   5.395  10.945  0.00  0.00    +0.000 A 
BRANCH   7   9
ATOM      9  C   UNL     1      45.475   3.713   9.097  0.00  0.00    +0.000 A 
ATOM     10  C   UNL     1      46.032   4.236   7.921  0.00  0.00    +0.000 A 
ATOM     11  C   UNL     1      46.505   3.373   6.944  0.00  0.00    +0.000 A 
ATOM     12  N   UNL     1      46.481   2.031   7.052  0.00  0.00    +0.000 NA
ATOM     13  C   UNL     1      45.953   1.532   8.185  0.00  0.00    +0.000 A 
ATOM     14  C   UNL     1      45.444   2.315   9.211  0.00  0.00    +0.000 A 
ENDBRANCH   7   9
ENDBRANCH   1   2
BRANCH   1  15
ATOM     15  O   UNL     1      47.550   6.519  12.905  0.00  0.00    +0.000 OA
BRANCH  15  19
ATOM     16  C   UNL     1      48.017   4.759  16.598  0.00  0.00    +0.000 A 
ATOM     17  C   UNL     1      47.164   4.175  15.658  0.00  0.00    +0.000 A 
ATOM     18  C   UNL     1      47.020   4.774  14.405  0.00  0.00    +0.000 A 
ATOM     19  C   UNL     1      47.735   5.932  14.139  0.00  0.00    +0.000 A 
ATOM     20  N   UNL     1      48.574   6.509  15.026  0.00  0.00    +0.000 NA
ATOM     21  C   UNL     1      48.690   5.918  16.240  0.00  0.00    +0.000 A 
BRANCH  16  23
ATOM     22  N   UNL     1      47.469   4.809  18.965  0.00  0.00    +0.000 N 
ATOM     23  C   UNL     1      48.203   4.234  17.965  0.00  0.00    +0.000 C 
ATOM     24  O   UNL     1      48.963   3.304  18.191  0.00  0.00    +0.000 OA
ATOM     25  H   UNL     1      47.549   4.385  19.881  0.00  0.00    +0.000 HD
ATOM     26  H   UNL     1      46.670   5.401  18.791  0.00  0.00    +0.000 HD
ENDBRANCH  16  23
ENDBRANCH  15  19
ENDBRANCH   1  15
TORSDOF 5
ENDMDL
MODEL 9
REMARK VINA RESULT:    -7.012      5.468      7.948
REMARK INTER + INTRA:          -9.862
REMARK INTER:                  -9.143
REMARK INTRA:                  -0.719
REMARK UNBOUND:                -0.801
REMARK  Name = 
REMARK  5 active torsions:
REMARK  status: ('A' for Active; 'I' for Inactive)
REMARK    1  A    between atoms: C_2  and  C_4
REMARK    2  A    between atoms: C_7  and  O_8
REMARK    3  A    between atoms: O_8  and  C_9
REMARK    4  A    between atoms: C_9  and  C_10
REMARK    5  A    between atoms: C_15  and  C_16
REMARK                            x       y       z     vdW  Elec       q    Type
REMARK                         _______ _______ _______ _____ _____    ______ ____
ROOT
ATOM      1  C   UNL     1      48.651   6.324  15.777  0.00  0.00    +0.000 C 
ENDROOT
BRANCH   1   2
ATOM      2  C   UNL     1      48.110   6.452  14.370  0.00  0.00    +0.000 A 
ATOM      3  C   UNL     1      48.770   7.273  13.450  0.00  0.00    +0.000 A 
ATOM      4  C   UNL     1      48.309   7.353  12.145  0.00  0.00    +0.000 A 
ATOM      5  F   UNL     1      48.947   8.138  11.268  0.00  0.00    +0.000 F 
ATOM      6  C   UNL     1      47.196   6.628  11.728  0.00  0.00    +0.000 A 
ATOM      7  C   UNL     1      46.514   5.779  12.615  0.00  0.00    +0.000 A 
ATOM      8  C   UNL     1      47.006   5.699  13.934  0.00  0.00    +0.000 A 
BRANCH   7   9
ATOM      9  C   UNL     1      45.328   5.001  12.188  0.00  0.00    +0.000 A 
ATOM     10  C   UNL     1      44.284   5.588  11.459  0.00  0.00    +0.000 A 
ATOM     11  C   UNL     1      43.188   4.821  11.093  0.00  0.00    +0.000 A 
ATOM     12  N   UNL     1      43.057   3.512  11.384  0.00  0.00    +0.000 NA
ATOM     13  C   UNL     1      44.063   2.950  12.078  0.00  0.00    +0.000 A 
ATOM     14  C   UNL     1      45.193   3.640  12.498  0.00  0.00    +0.000 A 
ENDBRANCH   7   9
ENDBRANCH   1   2
BRANCH   1  15
ATOM     15  O   UNL     1      48.092   5.188  16.447  0.00  0.00    +0.000 OA
BRANCH  15  19
ATOM     16  C   UNL     1      51.049   2.502  17.448  0.00  0.00    +0.000 A 
ATOM     17  C   UNL     1      51.253   3.867  17.666  0.00  0.00    +0.000 A 
ATOM     18  C   UNL     1      50.241   4.769  17.333  0.00  0.00    +0.000 A 
ATOM     19  C   UNL     1      49.063   4.272  16.796  0.00  0.00    +0.000 A 
ATOM     20  N   UNL     1      48.837   2.958  16.586  0.00  0.00    +0.000 NA
ATOM     21  C   UNL     1      49.836   2.101  16.906  0.00  0.00    +0.000 A 
BRANCH  16  23
ATOM     22  N   UNL     1      51.631   0.235  18.101  0.00  0.00    +0.000 N 
ATOM     23  C   UNL     1      52.071   1.472  17.719  0.00  0.00    +0.000 C 
ATOM     24  O   UNL     1      53.262   1.707  17.584  0.00  0.00    +0.000 OA
ATOM     25  H   UNL     1      52.340  -0.481  18.205  0.00  0.00    +0.000 HD
ATOM     26  H   UNL     1      50.673  -0.066  17.992  0.00  0.00    +0.000 HD
ENDBRANCH  16  23
ENDBRANCH  15  19
ENDBRANCH   1  15
TORSDOF 5
ENDMDL
