MODEL 1
REMARK VINA RESULT:    -6.383      0.000      0.000
REMARK INTER + INTRA:          -9.258
REMARK INTER:                  -8.621
REMARK INTRA:                  -0.637
REMARK UNBOUND:                -0.637
REMARK  Name = 
REMARK  9 active torsions:
REMARK  status: ('A' for Active; 'I' for Inactive)
REMARK    1  A    between atoms: C_1  and  O_2
REMARK    2  A    between atoms: O_2  and  C_3
REMARK    3  A    between atoms: N_10  and  C_11
REMARK    4  A    between atoms: C_11  and  C_12
REMARK    5  A    between atoms: C_15  and  C_16
REMARK    6  A    between atoms: C_16  and  C_17
REMARK    7  A    between atoms: C_17  and  N_18
REMARK    8  A    between atoms: N_18  and  C_19
REMARK    9  A    between atoms: N_18  and  C_20
REMARK                            x       y       z     vdW  Elec       q    Type
REMARK                         _______ _______ _______ _____ _____    ______ ____
ROOT
ATOM      1  C   UNL     1      44.082   5.815  12.268  0.00  0.00    +0.000 C 
ENDROOT
BRANCH   1   9
ATOM      2  C   UNL     1      45.694   3.477   7.858  0.00  0.00    +0.000 A 
ATOM      3  C   UNL     1      46.060   4.735   8.330  0.00  0.00    +0.000 A 
ATOM      4  C   UNL     1      45.639   5.188   9.587  0.00  0.00    +0.000 A 
ATOM      5  C   UNL     1      44.832   4.342  10.362  0.00  0.00    +0.000 A 
ATOM      6  C   UNL     1      44.461   3.071   9.915  0.00  0.00    +0.000 A 
ATOM      7  C   UNL     1      43.668   2.479  10.934  0.00  0.00    +0.000 A 
ATOM      8  C   UNL     1      43.544   3.393  11.954  0.00  0.00    +0.000 A 
ATOM      9  N   UNL     1      44.227   4.531  11.593  0.00  0.00    +0.000 N 
ATOM     10  C   UNL     1      44.883   2.645   8.639  0.00  0.00    +0.000 A 
BRANCH   2  12
ATOM     11  C   UNL     1      47.194   2.153   6.601  0.00  0.00    +0.000 C 
ATOM     12  O   UNL     1      46.028   2.968   6.631  0.00  0.00    +0.000 OA
ENDBRANCH   2  12
ENDBRANCH   1   9
BRANCH   1  13
ATOM     13  C   UNL     1      45.349   6.344  12.887  0.00  0.00    +0.000 A 
ATOM     14  C   UNL     1      45.747   7.663  12.670  0.00  0.00    +0.000 A 
ATOM     15  C   UNL     1      47.045   8.048  13.009  0.00  0.00    +0.000 A 
ATOM     16  C   UNL     1      47.917   7.114  13.573  0.00  0.00    +0.000 A 
ATOM     17  C   UNL     1      47.399   5.854  13.850  0.00  0.00    +0.000 A 
ATOM     18  N   UNL     1      46.155   5.447  13.507  0.00  0.00    +0.000 NA
BRANCH  16  19
ATOM     19  C   UNL     1      49.365   7.443  13.839  0.00  0.00    +0.000 C 
BRANCH  19  20
ATOM     20  C   UNL     1      49.665   7.522  15.354  0.00  0.00    +0.000 C 
BRANCH  20  21
ATOM     21  N   UNL     1      50.323   6.328  15.921  0.00  0.00    +0.000 NA
ATOM     22  C   UNL     1      51.650   6.631  16.459  0.00  0.00    +0.000 C 
ATOM     23  C   UNL     1      49.481   5.764  16.984  0.00  0.00    +0.000 C 
ENDBRANCH  20  21
ENDBRANCH  19  20
ENDBRANCH  16  19
ENDBRANCH   1  13
TORSDOF 6
ENDMDL
MODEL 2
REMARK VINA RESULT:    -6.316      1.750      2.213
REMARK INTER + INTRA:          -9.169
REMARK INTER:                  -8.499
REMARK INTRA:                  -0.669
REMARK UNBOUND:                -0.637
REMARK  Name = 
REMARK  9 active torsions:
REMARK  status: ('A' for Active; 'I' for Inactive)
REMARK    1  A    between atoms: C_1  and  O_2
REMARK    2  A    between atoms: O_2  and  C_3
REMARK    3  A    between atoms: N_10  and  C_11
REMARK    4  A    between atoms: C_11  and  C_12
REMARK    5  A    between atoms: C_15  and  C_16
REMARK    6  A    between atoms: C_16  and  C_17
REMARK    7  A    between atoms: C_17  and  N_18
REMARK    8  A    between atoms: N_18  and  C_19
REMARK    9  A    between atoms: N_18  and  C_20
REMARK                            x       y       z     vdW  Elec       q    Type
REMARK                         _______ _______ _______ _____ _____    ______ ____
ROOT
ATOM      1  C   UNL     1      43.447   6.055  11.090  0.00  0.00    +0.000 C 
ENDROOT
BRANCH   1   9
ATOM      2  C   UNL     1      45.947   2.619   8.015  0.00  0.00    +0.000 A 
ATOM      3  C   UNL     1      46.045   4.007   7.984  0.00  0.00    +0.000 A 
ATOM      4  C   UNL     1      45.404   4.801   8.945  0.00  0.00    +0.000 A 
ATOM      5  C   UNL     1      44.654   4.161   9.942  0.00  0.00    +0.000 A 
ATOM      6  C   UNL     1      44.551   2.768  10.001  0.00  0.00    +0.000 A 
ATOM      7  C   UNL     1      43.744   2.451  11.127  0.00  0.00    +0.000 A 
ATOM      8  C   UNL     1      43.349   3.633  11.707  0.00  0.00    +0.000 A 
ATOM      9  N   UNL     1      43.879   4.668  10.971  0.00  0.00    +0.000 N 
ATOM     10  C   UNL     1      45.190   1.993   9.013  0.00  0.00    +0.000 A 
BRANCH   2  12
ATOM     11  C   UNL     1      47.902   1.942   6.874  0.00  0.00    +0.000 C 
ATOM     12  O   UNL     1      46.508   1.769   7.099  0.00  0.00    +0.000 OA
ENDBRANCH   2  12
ENDBRANCH   1   9
BRANCH   1  13
ATOM     13  C   UNL     1      44.438   6.965  11.767  0.00  0.00    +0.000 A 
ATOM     14  C   UNL     1      44.525   8.310  11.410  0.00  0.00    +0.000 A 
ATOM     15  C   UNL     1      45.622   9.060  11.837  0.00  0.00    +0.000 A 
ATOM     16  C   UNL     1      46.606   8.456  12.624  0.00  0.00    +0.000 A 
ATOM     17  C   UNL     1      46.381   7.141  13.018  0.00  0.00    +0.000 A 
ATOM     18  N   UNL     1      45.341   6.385  12.597  0.00  0.00    +0.000 NA
BRANCH  16  19
ATOM     19  C   UNL     1      47.872   9.184  13.004  0.00  0.00    +0.000 C 
BRANCH  19  20
ATOM     20  C   UNL     1      48.944   9.083  11.894  0.00  0.00    +0.000 C 
BRANCH  20  21
ATOM     21  N   UNL     1      49.937   8.007  12.082  0.00  0.00    +0.000 NA
ATOM     22  C   UNL     1      51.199   8.293  11.398  0.00  0.00    +0.000 C 
ATOM     23  C   UNL     1      50.189   7.819  13.516  0.00  0.00    +0.000 C 
ENDBRANCH  20  21
ENDBRANCH  19  20
ENDBRANCH  16  19
ENDBRANCH   1  13
TORSDOF 6
ENDMDL
MODEL 3
REMARK VINA RESULT:    -5.948      3.050      7.057
REMARK INTER + INTRA:          -8.671
REMARK INTER:                  -8.003
REMARK INTRA:                  -0.668
REMARK UNBOUND:                -0.637
REMARK  Name = 
REMARK  9 active torsions:
REMARK  status: ('A' for Active; 'I' for Inactive)
REMARK    1  A    between atoms: C_1  and  O_2
REMARK    2  A    between atoms: O_2  and  C_3
REMARK    3  A    between atoms: N_10  and  C_11
REMARK    4  A    between atoms: C_11  and  C_12
REMARK    5  A    between atoms: C_15  and  C_16
REMARK    6  A    between atoms: C_16  and  C_17
REMARK    7  A    between atoms: C_17  and  N_18
REMARK    8  A    between atoms: N_18  and  C_19
REMARK    9  A    between atoms: N_18  and  C_20
REMARK                            x       y       z     vdW  Elec       q    Type
REMARK                         _______ _______ _______ _____ _____    ______ ____
ROOT
ATOM      1  C   UNL     1      44.668   6.431  12.910  0.00  0.00    +0.000 C 
ENDROOT
BRANCH   1   9
ATOM      2  C   UNL     1      49.438   8.460  12.111  0.00  0.00    +0.000 A 
ATOM      3  C   UNL     1      49.118   7.129  12.364  0.00  0.00    +0.000 A 
ATOM      4  C   UNL     1      47.785   6.707  12.444  0.00  0.00    +0.000 A 
ATOM      5  C   UNL     1      46.774   7.662  12.267  0.00  0.00    +0.000 A 
ATOM      6  C   UNL     1      47.070   9.002  12.001  0.00  0.00    +0.000 A 
ATOM      7  C   UNL     1      45.834   9.689  11.861  0.00  0.00    +0.000 A 
ATOM      8  C   UNL     1      44.822   8.782  12.071  0.00  0.00    +0.000 A 
ATOM      9  N   UNL     1      45.395   7.561  12.345  0.00  0.00    +0.000 N 
ATOM     10  C   UNL     1      48.419   9.405  11.942  0.00  0.00    +0.000 A 
BRANCH   2  12
ATOM     11  C   UNL     1      51.651   8.180  11.332  0.00  0.00    +0.000 C 
ATOM     12  O   UNL     1      50.710   8.967  12.052  0.00  0.00    +0.000 OA
ENDBRANCH   2  12
ENDBRANCH   1   9
BRANCH   1  13
ATOM     13  C   UNL     1      44.575   5.230  12.006  0.00  0.00    +0.000 A 
ATOM     14  C   UNL     1      44.988   3.974  12.449  0.00  0.00    +0.000 A 
ATOM     15  C   UNL     1      45.160   2.945  11.522  0.00  0.00    +0.000 A 
ATOM     16  C   UNL     1      44.900   3.185  10.170  0.00  0.00    +0.000 A 
ATOM     17  C   UNL     1      44.390   4.434   9.837  0.00  0.00    +0.000 A 
ATOM     18  N   UNL     1      44.241   5.456  10.711  0.00  0.00    +0.000 NA
BRANCH  16  19
ATOM     19  C   UNL     1      45.190   2.147   9.113  0.00  0.00    +0.000 C 
BRANCH  19  20
ATOM     20  C   UNL     1      45.746   2.788   7.820  0.00  0.00    +0.000 C 
BRANCH  20  21
ATOM     21  N   UNL     1      46.631   1.916   7.023  0.00  0.00    +0.000 NA
ATOM     22  C   UNL     1      47.965   2.494   6.846  0.00  0.00    +0.000 C 
ATOM     23  C   UNL     1      46.749   0.607   7.678  0.00  0.00    +0.000 C 
ENDBRANCH  20  21
ENDBRANCH  19  20
ENDBRANCH  16  19
ENDBRANCH   1  13
TORSDOF 6
ENDMDL
MODEL 4
REMARK VINA RESULT:    -5.669      4.052      8.637
REMARK INTER + INTRA:          -8.295
REMARK INTER:                  -7.740
REMARK INTRA:                  -0.555
REMARK UNBOUND:                -0.637
REMARK  Name = 
REMARK  9 active torsions:
REMARK  status: ('A' for Active; 'I' for Inactive)
REMARK    1  A    between atoms: C_1  and  O_2
REMARK    2  A    between atoms: O_2  and  C_3
REMARK    3  A    between atoms: N_10  and  C_11
REMARK    4  A    between atoms: C_11  and  C_12
REMARK    5  A    between atoms: C_15  and  C_16
REMARK    6  A    between atoms: C_16  and  C_17
REMARK    7  A    between atoms: C_17  and  N_18
REMARK    8  A    between atoms: N_18  and  C_19
REMARK    9  A    between atoms: N_18  and  C_20
REMARK                            x       y       z     vdW  Elec       q    Type
REMARK                         _______ _______ _______ _____ _____    ______ ____
ROOT
ATOM      1  C   UNL     1      47.970   4.479  16.895  0.00  0.00    +0.000 C 
ENDROOT
BRANCH   1   9
ATOM      2  C   UNL     1      52.430   2.004  18.117  0.00  0.00    +0.000 A 
ATOM      3  C   UNL     1      51.348   1.493  17.405  0.00  0.00    +0.000 A 
ATOM      4  C   UNL     1      50.264   2.307  17.051  0.00  0.00    +0.000 A 
ATOM      5  C   UNL     1      50.292   3.655  17.436  0.00  0.00    +0.000 A 
ATOM      6  C   UNL     1      51.372   4.194  18.140  0.00  0.00    +0.000 A 
ATOM      7  C   UNL     1      51.093   5.571  18.354  0.00  0.00    +0.000 A 
ATOM      8  C   UNL     1      49.857   5.838  17.815  0.00  0.00    +0.000 A 
ATOM      9  N   UNL     1      49.362   4.669  17.284  0.00  0.00    +0.000 N 
ATOM     10  C   UNL     1      52.443   3.351  18.500  0.00  0.00    +0.000 A 
BRANCH   2  12
ATOM     11  C   UNL     1      53.713   0.036  17.868  0.00  0.00    +0.000 C 
ATOM     12  O   UNL     1      53.512   1.276  18.536  0.00  0.00    +0.000 OA
ENDBRANCH   2  12
ENDBRANCH   1   9
BRANCH   1  13
ATOM     13  C   UNL     1      47.684   4.736  15.439  0.00  0.00    +0.000 A 
ATOM     14  C   UNL     1      47.933   5.988  14.878  0.00  0.00    +0.000 A 
ATOM     15  C   UNL     1      47.406   6.290  13.621  0.00  0.00    +0.000 A 
ATOM     16  C   UNL     1      46.652   5.330  12.941  0.00  0.00    +0.000 A 
ATOM     17  C   UNL     1      46.547   4.076  13.531  0.00  0.00    +0.000 A 
ATOM     18  N   UNL     1      47.024   3.766  14.759  0.00  0.00    +0.000 NA
BRANCH  16  19
ATOM     19  C   UNL     1      45.955   5.648  11.641  0.00  0.00    +0.000 C 
BRANCH  19  20
ATOM     20  C   UNL     1      44.658   6.457  11.871  0.00  0.00    +0.000 C 
BRANCH  20  21
ATOM     21  N   UNL     1      43.407   5.717  11.613  0.00  0.00    +0.000 NA
ATOM     22  C   UNL     1      43.577   4.680  10.594  0.00  0.00    +0.000 C 
ATOM     23  C   UNL     1      42.935   5.104  12.861  0.00  0.00    +0.000 C 
ENDBRANCH  20  21
ENDBRANCH  19  20
ENDBRANCH  16  19
ENDBRANCH   1  13
TORSDOF 6
ENDMDL
MODEL 5
REMARK VINA RESULT:    -5.405      3.428      8.485
REMARK INTER + INTRA:          -7.938
REMARK INTER:                  -7.267
REMARK INTRA:                  -0.672
REMARK UNBOUND:                -0.637
REMARK  Name = 
REMARK  9 active torsions:
REMARK  status: ('A' for Active; 'I' for Inactive)
REMARK    1  A    between atoms: C_1  and  O_2
REMARK    2  A    between atoms: O_2  and  C_3
REMARK    3  A    between atoms: N_10  and  C_11
REMARK    4  A    between atoms: C_11  and  C_12
REMARK    5  A    between atoms: C_15  and  C_16
REMARK    6  A    between atoms: C_16  and  C_17
REMARK    7  A    between atoms: C_17  and  N_18
REMARK    8  A    between atoms: N_18  and  C_19
REMARK    9  A    between atoms: N_18  and  C_20
REMARK                            x       y       z     vdW  Elec       q    Type
REMARK                         _______ _______ _______ _____ _____    ______ ____
ROOT
ATOM      1  C   UNL     1      49.028   7.027  13.854  0.00  0.00    +0.000 C 
ENDROOT
BRANCH   1   9
ATOM      2  C   UNL     1      48.534   6.139  19.000  0.00  0.00    +0.000 A 
ATOM      3  C   UNL     1      48.960   5.241  18.024  0.00  0.00    +0.000 A 
ATOM      4  C   UNL     1      49.155   5.649  16.699  0.00  0.00    +0.000 A 
ATOM      5  C   UNL     1      48.906   6.991  16.374  0.00  0.00    +0.000 A 
ATOM      6  C   UNL     1      48.489   7.913  17.337  0.00  0.00    +0.000 A 
ATOM      7  C   UNL     1      48.346   9.169  16.687  0.00  0.00    +0.000 A 
ATOM      8  C   UNL     1      48.641   8.989  15.356  0.00  0.00    +0.000 A 
ATOM      9  N   UNL     1      48.953   7.663  15.164  0.00  0.00    +0.000 N 
ATOM     10  C   UNL     1      48.284   7.474  18.661  0.00  0.00    +0.000 A 
BRANCH   2  12
ATOM     11  C   UNL     1      47.519   6.773  21.037  0.00  0.00    +0.000 C 
ATOM     12  O   UNL     1      48.284   5.820  20.308  0.00  0.00    +0.000 OA
ENDBRANCH   2  12
ENDBRANCH   1   9
BRANCH   1  13
ATOM     13  C   UNL     1      47.721   6.477  13.348  0.00  0.00    +0.000 A 
ATOM     14  C   UNL     1      46.788   7.314  12.737  0.00  0.00    +0.000 A 
ATOM     15  C   UNL     1      45.486   6.852  12.534  0.00  0.00    +0.000 A 
ATOM     16  C   UNL     1      45.145   5.556  12.931  0.00  0.00    +0.000 A 
ATOM     17  C   UNL     1      46.168   4.759  13.433  0.00  0.00    +0.000 A 
ATOM     18  N   UNL     1      47.429   5.191  13.665  0.00  0.00    +0.000 NA
BRANCH  16  19
ATOM     19  C   UNL     1      43.724   5.053  12.852  0.00  0.00    +0.000 C 
BRANCH  19  20
ATOM     20  C   UNL     1      43.222   4.987  11.391  0.00  0.00    +0.000 C 
BRANCH  20  21
ATOM     21  N   UNL     1      43.327   3.659  10.755  0.00  0.00    +0.000 NA
ATOM     22  C   UNL     1      44.523   3.538   9.920  0.00  0.00    +0.000 C 
ATOM     23  C   UNL     1      43.347   2.620  11.792  0.00  0.00    +0.000 C 
ENDBRANCH  20  21
ENDBRANCH  19  20
ENDBRANCH  16  19
ENDBRANCH   1  13
TORSDOF 6
ENDMDL
MODEL 6
REMARK VINA RESULT:    -5.014      2.129      2.789
REMARK INTER + INTRA:          -7.409
REMARK INTER:                  -6.965
REMARK INTRA:                  -0.444
REMARK UNBOUND:                -0.637
REMARK  Name = 
REMARK  9 active torsions:
REMARK  status: ('A' for Active; 'I' for Inactive)
REMARK    1  A    between atoms: C_1  and  O_2
REMARK    2  A    between atoms: O_2  and  C_3
REMARK    3  A    between atoms: N_10  and  C_11
REMARK    4  A    between atoms: C_11  and  C_12
REMARK    5  A    between atoms: C_15  and  C_16
REMARK    6  A    between atoms: C_16  and  C_17
REMARK    7  A    between atoms: C_17  and  N_18
REMARK    8  A    between atoms: N_18  and  C_19
REMARK    9  A    between atoms: N_18  and  C_20
REMARK                            x       y       z     vdW  Elec       q    Type
REMARK                         _______ _______ _______ _____ _____    ______ ____
ROOT
ATOM      1  C   UNL     1      45.095   7.344  12.586  0.00  0.00    +0.000 C 
ENDROOT
BRANCH   1   9
ATOM      2  C   UNL     1      45.188   3.831   8.692  0.00  0.00    +0.000 A 
ATOM      3  C   UNL     1      45.913   5.017   8.778  0.00  0.00    +0.000 A 
ATOM      4  C   UNL     1      45.876   5.807   9.934  0.00  0.00    +0.000 A 
ATOM      5  C   UNL     1      45.085   5.376  11.009  0.00  0.00    +0.000 A 
ATOM      6  C   UNL     1      44.359   4.183  10.951  0.00  0.00    +0.000 A 
ATOM      7  C   UNL     1      43.688   4.036  12.196  0.00  0.00    +0.000 A 
ATOM      8  C   UNL     1      43.985   5.135  12.966  0.00  0.00    +0.000 A 
ATOM      9  N   UNL     1      44.809   5.959  12.234  0.00  0.00    +0.000 N 
ATOM     10  C   UNL     1      44.399   3.414   9.771  0.00  0.00    +0.000 A 
BRANCH   2  12
ATOM     11  C   UNL     1      46.251   3.104   6.711  0.00  0.00    +0.000 C 
ATOM     12  O   UNL     1      45.137   3.017   7.592  0.00  0.00    +0.000 OA
ENDBRANCH   2  12
ENDBRANCH   1   9
BRANCH   1  13
ATOM     13  C   UNL     1      46.500   7.592  13.067  0.00  0.00    +0.000 A 
ATOM     14  C   UNL     1      46.972   8.893  13.239  0.00  0.00    +0.000 A 
ATOM     15  C   UNL     1      48.341   9.105  13.408  0.00  0.00    +0.000 A 
ATOM     16  C   UNL     1      49.212   8.013  13.418  0.00  0.00    +0.000 A 
ATOM     17  C   UNL     1      48.640   6.748  13.346  0.00  0.00    +0.000 A 
ATOM     18  N   UNL     1      47.321   6.516  13.155  0.00  0.00    +0.000 NA
BRANCH  16  19
ATOM     19  C   UNL     1      50.709   8.196  13.469  0.00  0.00    +0.000 C 
BRANCH  19  20
ATOM     20  C   UNL     1      51.243   8.904  12.202  0.00  0.00    +0.000 C 
BRANCH  20  21
ATOM     21  N   UNL     1      52.225   8.127  11.421  0.00  0.00    +0.000 NA
ATOM     22  C   UNL     1      52.336   8.604  10.041  0.00  0.00    +0.000 C 
ATOM     23  C   UNL     1      53.538   8.202  12.072  0.00  0.00    +0.000 C 
ENDBRANCH  20  21
ENDBRANCH  19  20
ENDBRANCH  16  19
ENDBRANCH   1  13
TORSDOF 6
ENDMDL
MODEL 7
REMARK VINA RESULT:    -4.952      2.991      4.655
REMARK INTER + INTRA:          -7.326
REMARK INTER:                  -6.512
REMARK INTRA:                  -0.814
REMARK UNBOUND:                -0.637
REMARK  Name = 
REMARK  9 active torsions:
REMARK  status: ('A' for Active; 'I' for Inactive)
REMARK    1  A    between atoms: C_1  and  O_2
REMARK    2  A    between atoms: O_2  and  C_3
REMARK    3  A    between atoms: N_10  and  C_11
REMARK    4  A    between atoms: C_11  and  C_12
REMARK    5  A    between atoms: C_15  and  C_16
REMARK    6  A    between atoms: C_16  and  C_17
REMARK    7  A    between atoms: C_17  and  N_18
REMARK    8  A    between atoms: N_18  and  C_19
REMARK    9  A    between atoms: N_18  and  C_20
REMARK                            x       y       z     vdW  Elec       q    Type
REMARK                         _______ _______ _______ _____ _____    ______ ____
ROOT
ATOM      1  C   UNL     1      48.487   8.196  12.793  0.00  0.00    +0.000 C 
ENDROOT
BRANCH   1   9
ATOM      2  C   UNL     1      45.058   4.229  12.937  0.00  0.00    +0.000 A 
ATOM      3  C   UNL     1      46.361   4.238  13.429  0.00  0.00    +0.000 A 
ATOM      4  C   UNL     1      47.129   5.410  13.425  0.00  0.00    +0.000 A 
ATOM      5  C   UNL     1      46.554   6.580  12.908  0.00  0.00    +0.000 A 
ATOM      6  C   UNL     1      45.245   6.599  12.419  0.00  0.00    +0.000 A 
ATOM      7  C   UNL     1      44.971   7.926  11.992  0.00  0.00    +0.000 A 
ATOM      8  C   UNL     1      46.107   8.675  12.193  0.00  0.00    +0.000 A 
ATOM      9  N   UNL     1      47.073   7.850  12.722  0.00  0.00    +0.000 N 
ATOM     10  C   UNL     1      44.498   5.403  12.418  0.00  0.00    +0.000 A 
BRANCH   2  12
ATOM     11  C   UNL     1      43.420   3.043  11.715  0.00  0.00    +0.000 C 
ATOM     12  O   UNL     1      44.250   3.126  12.868  0.00  0.00    +0.000 OA
ENDBRANCH   2  12
ENDBRANCH   1   9
BRANCH   1  13
ATOM     13  C   UNL     1      49.061   8.209  14.186  0.00  0.00    +0.000 A 
ATOM     14  C   UNL     1      50.262   7.557  14.465  0.00  0.00    +0.000 A 
ATOM     15  C   UNL     1      50.627   7.340  15.794  0.00  0.00    +0.000 A 
ATOM     16  C   UNL     1      49.794   7.791  16.821  0.00  0.00    +0.000 A 
ATOM     17  C   UNL     1      48.672   8.523  16.449  0.00  0.00    +0.000 A 
ATOM     18  N   UNL     1      48.281   8.724  15.169  0.00  0.00    +0.000 NA
BRANCH  16  19
ATOM     19  C   UNL     1      50.079   7.471  18.268  0.00  0.00    +0.000 C 
BRANCH  19  20
ATOM     20  C   UNL     1      48.989   6.558  18.877  0.00  0.00    +0.000 C 
BRANCH  20  21
ATOM     21  N   UNL     1      48.737   5.308  18.134  0.00  0.00    +0.000 NA
ATOM     22  C   UNL     1      49.486   4.176  18.684  0.00  0.00    +0.000 C 
ATOM     23  C   UNL     1      47.301   5.004  18.160  0.00  0.00    +0.000 C 
ENDBRANCH  20  21
ENDBRANCH  19  20
ENDBRANCH  16  19
ENDBRANCH   1  13
TORSDOF 6
ENDMDL
MODEL 8
REMARK VINA RESULT:    -4.805      2.893      4.688
REMARK INTER + INTRA:          -7.127
REMARK INTER:                  -6.437
REMARK INTRA:                  -0.690
REMARK UNBOUND:                -0.637
REMARK  Name = 
REMARK  9 active torsions:
REMARK  status: ('A' for Active; 'I' for Inactive)
REMARK    1  A    between atoms: C_1  and  O_2
REMARK    2  A    between atoms: O_2  and  C_3
REMARK    3  A    between atoms: N_10  and  C_11
REMARK    4  A    between atoms: C_11  and  C_12
REMARK    5  A    between atoms: C_15  and  C_16
REMARK    6  A    between atoms: C_16  and  C_17
REMARK    7  A    between atoms: C_17  and  N_18
REMARK    8  A    between atoms: N_18  and  C_19
REMARK    9  A    between atoms: N_18  and  C_20
REMARK                            x       y       z     vdW  Elec       q    Type
REMARK                         _______ _______ _______ _____ _____    ______ ____
ROOT
ATOM      1  C   UNL     1      48.346   7.830  13.152  0.00  0.00    +0.000 C 
ENDROOT
BRANCH   1   9
ATOM      2  C   UNL     1      44.085   4.935  12.165  0.00  0.00    +0.000 A 
ATOM      3  C   UNL     1      45.231   4.544  12.852  0.00  0.00    +0.000 A 
ATOM      4  C   UNL     1      46.250   5.461  13.143  0.00  0.00    +0.000 A 
ATOM      5  C   UNL     1      46.090   6.789  12.720  0.00  0.00    +0.000 A 
ATOM      6  C   UNL     1      44.943   7.208  12.039  0.00  0.00    +0.000 A 
ATOM      7  C   UNL     1      45.091   8.596  11.774  0.00  0.00    +0.000 A 
ATOM      8  C   UNL     1      46.317   8.988  12.260  0.00  0.00    +0.000 A 
ATOM      9  N   UNL     1      46.931   7.885  12.808  0.00  0.00    +0.000 N 
ATOM     10  C   UNL     1      43.940   6.263  11.743  0.00  0.00    +0.000 A 
BRANCH   2  12
ATOM     11  C   UNL     1      43.377   2.715  11.775  0.00  0.00    +0.000 C 
ATOM     12  O   UNL     1      43.059   4.102  11.807  0.00  0.00    +0.000 OA
ENDBRANCH   2  12
ENDBRANCH   1   9
BRANCH   1  13
ATOM     13  C   UNL     1      48.629   7.662  14.621  0.00  0.00    +0.000 A 
ATOM     14  C   UNL     1      48.272   8.657  15.531  0.00  0.00    +0.000 A 
ATOM     15  C   UNL     1      48.788   8.613  16.827  0.00  0.00    +0.000 A 
ATOM     16  C   UNL     1      49.639   7.568  17.196  0.00  0.00    +0.000 A 
ATOM     17  C   UNL     1      49.852   6.566  16.256  0.00  0.00    +0.000 A 
ATOM     18  N   UNL     1      49.387   6.598  14.986  0.00  0.00    +0.000 NA
BRANCH  16  19
ATOM     19  C   UNL     1      50.323   7.542  18.541  0.00  0.00    +0.000 C 
BRANCH  19  20
ATOM     20  C   UNL     1      49.310   7.362  19.695  0.00  0.00    +0.000 C 
BRANCH  20  21
ATOM     21  N   UNL     1      48.489   6.138  19.617  0.00  0.00    +0.000 NA
ATOM     22  C   UNL     1      49.273   4.928  19.871  0.00  0.00    +0.000 C 
ATOM     23  C   UNL     1      47.391   6.222  20.589  0.00  0.00    +0.000 C 
ENDBRANCH  20  21
ENDBRANCH  19  20
ENDBRANCH  16  19
ENDBRANCH   1  13
TORSDOF 6
ENDMDL
MODEL 9
REMARK VINA RESULT:    -4.794      3.579      5.023
REMARK INTER + INTRA:          -7.113
REMARK INTER:                  -6.508
REMARK INTRA:                  -0.605
REMARK UNBOUND:                -0.637
REMARK  Name = 
REMARK  9 active torsions:
REMARK  status: ('A' for Active; 'I' for Inactive)
REMARK    1  A    between atoms: C_1  and  O_2
REMARK    2  A    between atoms: O_2  and  C_3
REMARK    3  A    between atoms: N_10  and  C_11
REMARK    4  A    between atoms: C_11  and  C_12
REMARK    5  A    between atoms: C_15  and  C_16
REMARK    6  A    between atoms: C_16  and  C_17
REMARK    7  A    between atoms: C_17  and  N_18
REMARK    8  A    between atoms: N_18  and  C_19
REMARK    9  A    between atoms: N_18  and  C_20
REMARK                            x       y       z     vdW  Elec       q    Type
REMARK                         _______ _______ _______ _____ _____    ______ ____
ROOT
ATOM      1  C   UNL     1      47.567   7.765  13.414  0.00  0.00    +0.000 C 
ENDROOT
BRANCH   1   9
ATOM      2  C   UNL     1      44.835   3.961  11.051  0.00  0.00    +0.000 A 
ATOM      3  C   UNL     1      45.178   5.206  10.528  0.00  0.00    +0.000 A 
ATOM      4  C   UNL     1      46.013   6.083  11.232  0.00  0.00    +0.000 A 
ATOM      5  C   UNL     1      46.495   5.679  12.485  0.00  0.00    +0.000 A 
ATOM      6  C   UNL     1      46.175   4.431  13.026  0.00  0.00    +0.000 A 
ATOM      7  C   UNL     1      46.832   4.332  14.282  0.00  0.00    +0.000 A 
ATOM      8  C   UNL     1      47.504   5.512  14.499  0.00  0.00    +0.000 A 
ATOM      9  N   UNL     1      47.276   6.337  13.421  0.00  0.00    +0.000 N 
ATOM     10  C   UNL     1      45.320   3.573  12.306  0.00  0.00    +0.000 A 
BRANCH   2  12
ATOM     11  C   UNL     1      44.573   2.294   9.397  0.00  0.00    +0.000 C 
ATOM     12  O   UNL     1      43.998   3.058  10.451  0.00  0.00    +0.000 OA
ENDBRANCH   2  12
ENDBRANCH   1   9
BRANCH   1  13
ATOM     13  C   UNL     1      48.954   8.120  12.949  0.00  0.00    +0.000 A 
ATOM     14  C   UNL     1      49.603   9.249  13.448  0.00  0.00    +0.000 A 
ATOM     15  C   UNL     1      50.752   9.715  12.808  0.00  0.00    +0.000 A 
ATOM     16  C   UNL     1      51.242   9.036  11.689  0.00  0.00    +0.000 A 
ATOM     17  C   UNL     1      50.591   7.861  11.329  0.00  0.00    +0.000 A 
ATOM     18  N   UNL     1      49.461   7.403  11.915  0.00  0.00    +0.000 NA
BRANCH  16  19
ATOM     19  C   UNL     1      52.403   9.569  10.886  0.00  0.00    +0.000 C 
BRANCH  19  20
ATOM     20  C   UNL     1      53.279   8.428  10.320  0.00  0.00    +0.000 C 
BRANCH  20  21
ATOM     21  N   UNL     1      53.421   8.422   8.851  0.00  0.00    +0.000 NA
ATOM     22  C   UNL     1      52.762   7.268   8.235  0.00  0.00    +0.000 C 
ATOM     23  C   UNL     1      52.857   9.660   8.299  0.00  0.00    +0.000 C 
ENDBRANCH  20  21
ENDBRANCH  19  20
ENDBRANCH  16  19
ENDBRANCH   1  13
TORSDOF 6
ENDMDL
