MODEL 1
REMARK VINA RESULT:    -8.358      0.000      0.000
REMARK INTER + INTRA:         -11.349
REMARK INTER:                 -10.557
REMARK INTRA:                  -0.792
REMARK UNBOUND:                -0.792
REMARK  Name = 
REMARK  5 active torsions:
REMARK  status: ('A' for Active; 'I' for Inactive)
REMARK    1  A    between atoms: C_2  and  C_4
REMARK    2  A    between atoms: N_8  and  C_9
REMARK    3  A    between atoms: C_9  and  C_10
REMARK    4  A    between atoms: C_12  and  N_13
REMARK    5  A    between atoms: C_16  and  O_17
REMARK                            x       y       z     vdW  Elec       q    Type
REMARK                         _______ _______ _______ _____ _____    ______ ____
ROOT
ATOM      1  C   UNL     1      43.788   4.765  11.254  0.00  0.00    +0.000 C 
ENDROOT
BRANCH   1   6
ATOM      2  C   UNL     1      46.524   2.721   7.502  0.00  0.00    +0.000 A 
ATOM      3  C   UNL     1      46.097   4.036   7.664  0.00  0.00    +0.000 A 
ATOM      4  C   UNL     1      45.176   4.330   8.674  0.00  0.00    +0.000 A 
ATOM      5  C   UNL     1      44.715   3.321   9.516  0.00  0.00    +0.000 A 
ATOM      6  N   UNL     1      43.745   3.529  10.486  0.00  0.00    +0.000 N 
ATOM      7  N   UNL     1      45.128   2.046   9.367  0.00  0.00    +0.000 NA
ATOM      8  C   UNL     1      46.005   1.769   8.364  0.00  0.00    +0.000 A 
ATOM      9  H   UNL     1      43.709   2.690  11.062  0.00  0.00    +0.000 HD
BRANCH   2  11
ATOM     10  N   UNL     1      47.413   3.000   5.255  0.00  0.00    +0.000 N 
ATOM     11  C   UNL     1      47.455   2.304   6.433  0.00  0.00    +0.000 C 
ATOM     12  O   UNL     1      48.252   1.391   6.598  0.00  0.00    +0.000 OA
ATOM     13  H   UNL     1      48.117   2.761   4.566  0.00  0.00    +0.000 HD
ATOM     14  H   UNL     1      46.958   3.897   5.165  0.00  0.00    +0.000 HD
ENDBRANCH   2  11
ENDBRANCH   1   6
BRANCH   1  15
ATOM     15  C   UNL     1      44.982   4.804  12.190  0.00  0.00    +0.000 A 
ATOM     16  C   UNL     1      45.736   5.975  12.321  0.00  0.00    +0.000 A 
ATOM     17  C   UNL     1      46.891   6.002  13.116  0.00  0.00    +0.000 A 
ATOM     18  C   UNL     1      47.202   4.820  13.788  0.00  0.00    +0.000 A 
ATOM     19  C   UNL     1      46.393   3.702  13.634  0.00  0.00    +0.000 A 
ATOM     20  N   UNL     1      45.297   3.665  12.849  0.00  0.00    +0.000 NA
BRANCH  17  21
ATOM     21  N   UNL     1      47.665   7.147  13.225  0.00  0.00    +0.000 N 
ATOM     22  C   UNL     1      49.084   7.167  12.860  0.00  0.00    +0.000 C 
ATOM     23  C   UNL     1      49.297   7.995  11.597  0.00  0.00    +0.000 C 
ATOM     24  C   UNL     1      48.678   9.386  11.725  0.00  0.00    +0.000 C 
ATOM     25  C   UNL     1      47.220   9.322  12.177  0.00  0.00    +0.000 C 
ATOM     26  C   UNL     1      47.034   8.457  13.424  0.00  0.00    +0.000 C 
BRANCH  24  27
ATOM     27  O   UNL     1      49.445  10.202  12.612  0.00  0.00    +0.000 OA
ATOM     28  H   UNL     1      49.211  11.134  12.472  0.00  0.00    +0.000 HD
ENDBRANCH  24  27
ENDBRANCH  17  21
ENDBRANCH   1  15
TORSDOF 5
ENDMDL
MODEL 2
REMARK VINA RESULT:    -7.344      3.513      8.413
REMARK INTER + INTRA:         -10.069
REMARK INTER:                  -9.484
REMARK INTRA:                  -0.584
REMARK UNBOUND:                -0.792
REMARK  Name = 
REMARK  5 active torsions:
REMARK  status: ('A' for Active; 'I' for Inactive)
REMARK    1  A    between atoms: C_2  and  C_4
REMARK    2  A    between atoms: N_8  and  C_9
REMARK    3  A    between atoms: C_9  and  C_10
REMARK    4  A    between atoms: C_12  and  N_13
REMARK    5  A    between atoms: C_16  and  O_17
REMARK                            x       y       z     vdW  Elec       q    Type
REMARK                         _______ _______ _______ _____ _____    ______ ____
ROOT
ATOM      1  C   UNL     1      46.676   4.553  13.566  0.00  0.00    +0.000 C 
ENDROOT
BRANCH   1   6
ATOM      2  C   UNL     1      48.142   4.747  18.418  0.00  0.00    +0.000 A 
ATOM      3  C   UNL     1      48.454   5.608  17.370  0.00  0.00    +0.000 A 
ATOM      4  C   UNL     1      48.104   5.243  16.067  0.00  0.00    +0.000 A 
ATOM      5  C   UNL     1      47.434   4.045  15.831  0.00  0.00    +0.000 A 
ATOM      6  N   UNL     1      47.126   3.588  14.558  0.00  0.00    +0.000 N 
ATOM      7  N   UNL     1      47.125   3.209  16.843  0.00  0.00    +0.000 NA
ATOM      8  C   UNL     1      47.494   3.563  18.104  0.00  0.00    +0.000 A 
ATOM      9  H   UNL     1      46.502   2.790  14.666  0.00  0.00    +0.000 HD
BRANCH   2  11
ATOM     10  N   UNL     1      48.594   3.952  20.673  0.00  0.00    +0.000 N 
ATOM     11  C   UNL     1      48.516   5.020  19.822  0.00  0.00    +0.000 C 
ATOM     12  O   UNL     1      48.772   6.153  20.206  0.00  0.00    +0.000 OA
ATOM     13  H   UNL     1      48.937   4.144  21.607  0.00  0.00    +0.000 HD
ATOM     14  H   UNL     1      48.633   2.996  20.350  0.00  0.00    +0.000 HD
ENDBRANCH   2  11
ENDBRANCH   1   6
BRANCH   1  15
ATOM     15  C   UNL     1      45.518   4.016  12.744  0.00  0.00    +0.000 A 
ATOM     16  C   UNL     1      45.686   3.749  11.381  0.00  0.00    +0.000 A 
ATOM     17  C   UNL     1      44.605   3.335  10.590  0.00  0.00    +0.000 A 
ATOM     18  C   UNL     1      43.389   3.167  11.252  0.00  0.00    +0.000 A 
ATOM     19  C   UNL     1      43.300   3.424  12.614  0.00  0.00    +0.000 A 
ATOM     20  N   UNL     1      44.331   3.849  13.371  0.00  0.00    +0.000 NA
BRANCH  17  21
ATOM     21  N   UNL     1      44.753   3.101   9.232  0.00  0.00    +0.000 N 
ATOM     22  C   UNL     1      44.993   4.185   8.276  0.00  0.00    +0.000 C 
ATOM     23  C   UNL     1      46.414   4.106   7.726  0.00  0.00    +0.000 C 
ATOM     24  C   UNL     1      46.725   2.718   7.168  0.00  0.00    +0.000 C 
ATOM     25  C   UNL     1      46.392   1.613   8.170  0.00  0.00    +0.000 C 
ATOM     26  C   UNL     1      44.975   1.741   8.729  0.00  0.00    +0.000 C 
BRANCH  24  27
ATOM     27  O   UNL     1      46.037   2.502   5.935  0.00  0.00    +0.000 OA
ATOM     28  H   UNL     1      46.529   2.931   5.215  0.00  0.00    +0.000 HD
ENDBRANCH  24  27
ENDBRANCH  17  21
ENDBRANCH   1  15
TORSDOF 5
ENDMDL
MODEL 3
REMARK VINA RESULT:    -7.212      2.218      3.071
REMARK INTER + INTRA:          -9.902
REMARK INTER:                  -9.295
REMARK INTRA:                  -0.606
REMARK UNBOUND:                -0.792
REMARK  Name = 
REMARK  5 active torsions:
REMARK  status: ('A' for Active; 'I' for Inactive)
REMARK    1  A    between atoms: C_2  and  C_4
REMARK    2  A    between atoms: N_8  and  C_9
REMARK    3  A    between atoms: C_9  and  C_10
REMARK    4  A    between atoms: C_12  and  N_13
REMARK    5  A    between atoms: C_16  and  O_17
REMARK                            x       y       z     vdW  Elec       q    Type
REMARK                         _______ _______ _______ _____ _____    ______ ____
ROOT
ATOM      1  C   UNL     1      43.217   3.823  11.253  0.00  0.00    +0.000 C 
ENDROOT
BRANCH   1   6
ATOM      2  C   UNL     1      46.251   2.830   7.311  0.00  0.00    +0.000 A 
ATOM      3  C   UNL     1      45.178   3.713   7.395  0.00  0.00    +0.000 A 
ATOM      4  C   UNL     1      44.353   3.672   8.522  0.00  0.00    +0.000 A 
ATOM      5  C   UNL     1      44.621   2.773   9.552  0.00  0.00    +0.000 A 
ATOM      6  N   UNL     1      43.800   2.628  10.662  0.00  0.00    +0.000 N 
ATOM      7  N   UNL     1      45.661   1.919   9.480  0.00  0.00    +0.000 NA
ATOM      8  C   UNL     1      46.441   1.952   8.365  0.00  0.00    +0.000 A 
ATOM      9  H   UNL     1      44.297   2.040  11.330  0.00  0.00    +0.000 HD
BRANCH   2  11
ATOM     10  N   UNL     1      48.469   2.495   6.369  0.00  0.00    +0.000 N 
ATOM     11  C   UNL     1      47.147   2.764   6.138  0.00  0.00    +0.000 C 
ATOM     12  O   UNL     1      46.724   2.916   5.000  0.00  0.00    +0.000 OA
ATOM     13  H   UNL     1      49.052   2.364   5.550  0.00  0.00    +0.000 HD
ATOM     14  H   UNL     1      48.808   2.126   7.245  0.00  0.00    +0.000 HD
ENDBRANCH   2  11
ENDBRANCH   1   6
BRANCH   1  15
ATOM     15  C   UNL     1      44.277   4.842  11.627  0.00  0.00    +0.000 A 
ATOM     16  C   UNL     1      45.350   4.474  12.447  0.00  0.00    +0.000 A 
ATOM     17  C   UNL     1      46.290   5.425  12.870  0.00  0.00    +0.000 A 
ATOM     18  C   UNL     1      46.112   6.722  12.389  0.00  0.00    +0.000 A 
ATOM     19  C   UNL     1      45.039   7.010  11.555  0.00  0.00    +0.000 A 
ATOM     20  N   UNL     1      44.118   6.105  11.168  0.00  0.00    +0.000 NA
BRANCH  17  21
ATOM     21  N   UNL     1      47.337   5.078  13.711  0.00  0.00    +0.000 N 
ATOM     22  C   UNL     1      48.442   5.995  13.998  0.00  0.00    +0.000 C 
ATOM     23  C   UNL     1      48.373   6.477  15.444  0.00  0.00    +0.000 C 
ATOM     24  C   UNL     1      48.277   5.307  16.423  0.00  0.00    +0.000 C 
ATOM     25  C   UNL     1      47.158   4.338  16.045  0.00  0.00    +0.000 C 
ATOM     26  C   UNL     1      47.235   3.901  14.581  0.00  0.00    +0.000 C 
BRANCH  24  27
ATOM     27  O   UNL     1      49.527   4.622  16.516  0.00  0.00    +0.000 OA
ATOM     28  H   UNL     1      50.127   4.956  15.829  0.00  0.00    +0.000 HD
ENDBRANCH  24  27
ENDBRANCH  17  21
ENDBRANCH   1  15
TORSDOF 5
ENDMDL
MODEL 4
REMARK VINA RESULT:    -7.045      1.702      6.954
REMARK INTER + INTRA:          -9.690
REMARK INTER:                  -8.918
REMARK INTRA:                  -0.772
REMARK UNBOUND:                -0.792
REMARK  Name = 
REMARK  5 active torsions:
REMARK  status: ('A' for Active; 'I' for Inactive)
REMARK    1  A    between atoms: C_2  and  C_4
REMARK    2  A    between atoms: N_8  and  C_9
REMARK    3  A    between atoms: C_9  and  C_10
REMARK    4  A    between atoms: C_12  and  N_13
REMARK    5  A    between atoms: C_16  and  O_17
REMARK                            x       y       z     vdW  Elec       q    Type
REMARK                         _______ _______ _______ _____ _____    ______ ____
ROOT
ATOM      1  C   UNL     1      45.387   5.991  13.015  0.00  0.00    +0.000 C 
ENDROOT
BRANCH   1   6
ATOM      2  C   UNL     1      50.058   7.940  12.669  0.00  0.00    +0.000 A 
ATOM      3  C   UNL     1      49.143   7.663  11.657  0.00  0.00    +0.000 A 
ATOM      4  C   UNL     1      47.992   6.934  11.966  0.00  0.00    +0.000 A 
ATOM      5  C   UNL     1      47.759   6.513  13.273  0.00  0.00    +0.000 A 
ATOM      6  N   UNL     1      46.677   5.722  13.632  0.00  0.00    +0.000 N 
ATOM      7  N   UNL     1      48.639   6.782  14.259  0.00  0.00    +0.000 NA
ATOM      8  C   UNL     1      49.768   7.471  13.940  0.00  0.00    +0.000 A 
ATOM      9  H   UNL     1      46.647   5.696  14.650  0.00  0.00    +0.000 HD
BRANCH   2  11
ATOM     10  N   UNL     1      52.408   7.917  12.041  0.00  0.00    +0.000 N 
ATOM     11  C   UNL     1      51.327   8.659  12.431  0.00  0.00    +0.000 C 
ATOM     12  O   UNL     1      51.406   9.874  12.551  0.00  0.00    +0.000 OA
ATOM     13  H   UNL     1      53.244   8.434  11.795  0.00  0.00    +0.000 HD
ATOM     14  H   UNL     1      52.328   6.971  11.697  0.00  0.00    +0.000 HD
ENDBRANCH   2  11
ENDBRANCH   1   6
BRANCH   1  15
ATOM     15  C   UNL     1      44.823   4.759  12.330  0.00  0.00    +0.000 A 
ATOM     16  C   UNL     1      45.135   4.491  10.994  0.00  0.00    +0.000 A 
ATOM     17  C   UNL     1      44.554   3.405  10.323  0.00  0.00    +0.000 A 
ATOM     18  C   UNL     1      43.698   2.603  11.078  0.00  0.00    +0.000 A 
ATOM     19  C   UNL     1      43.455   2.913  12.410  0.00  0.00    +0.000 A 
ATOM     20  N   UNL     1      43.990   3.972  13.050  0.00  0.00    +0.000 NA
BRANCH  17  21
ATOM     21  N   UNL     1      44.830   3.150   8.989  0.00  0.00    +0.000 N 
ATOM     22  C   UNL     1      45.299   4.196   8.077  0.00  0.00    +0.000 C 
ATOM     23  C   UNL     1      46.756   3.954   7.693  0.00  0.00    +0.000 C 
ATOM     24  C   UNL     1      46.970   2.537   7.161  0.00  0.00    +0.000 C 
ATOM     25  C   UNL     1      46.401   1.482   8.109  0.00  0.00    +0.000 C 
ATOM     26  C   UNL     1      44.953   1.771   8.502  0.00  0.00    +0.000 C 
BRANCH  24  27
ATOM     27  O   UNL     1      46.409   2.396   5.856  0.00  0.00    +0.000 OA
ATOM     28  H   UNL     1      45.618   1.834   5.906  0.00  0.00    +0.000 HD
ENDBRANCH  24  27
ENDBRANCH  17  21
ENDBRANCH   1  15
TORSDOF 5
ENDMDL
MODEL 5
REMARK VINA RESULT:    -6.949      3.803      6.042
REMARK INTER + INTRA:          -9.570
REMARK INTER:                  -8.797
REMARK INTRA:                  -0.772
REMARK UNBOUND:                -0.792
REMARK  Name = 
REMARK  5 active torsions:
REMARK  status: ('A' for Active; 'I' for Inactive)
REMARK    1  A    between atoms: C_2  and  C_4
REMARK    2  A    between atoms: N_8  and  C_9
REMARK    3  A    between atoms: C_9  and  C_10
REMARK    4  A    between atoms: C_12  and  N_13
REMARK    5  A    between atoms: C_16  and  O_17
REMARK                            x       y       z     vdW  Elec       q    Type
REMARK                         _______ _______ _______ _____ _____    ______ ____
ROOT
ATOM      1  C   UNL     1      48.030   7.932  13.276  0.00  0.00    +0.000 C 
ENDROOT
BRANCH   1   6
ATOM      2  C   UNL     1      44.821   4.604  11.187  0.00  0.00    +0.000 A 
ATOM      3  C   UNL     1      45.552   5.620  10.580  0.00  0.00    +0.000 A 
ATOM      4  C   UNL     1      46.216   6.551  11.384  0.00  0.00    +0.000 A 
ATOM      5  C   UNL     1      46.161   6.442  12.772  0.00  0.00    +0.000 A 
ATOM      6  N   UNL     1      46.734   7.372  13.627  0.00  0.00    +0.000 N 
ATOM      7  N   UNL     1      45.459   5.456  13.366  0.00  0.00    +0.000 NA
ATOM      8  C   UNL     1      44.795   4.573  12.572  0.00  0.00    +0.000 A 
ATOM      9  H   UNL     1      46.697   6.981  14.567  0.00  0.00    +0.000 HD
BRANCH   2  11
ATOM     10  N   UNL     1      44.129   3.653   9.057  0.00  0.00    +0.000 N 
ATOM     11  C   UNL     1      44.044   3.606  10.422  0.00  0.00    +0.000 C 
ATOM     12  O   UNL     1      43.372   2.752  10.983  0.00  0.00    +0.000 OA
ATOM     13  H   UNL     1      43.664   2.908   8.551  0.00  0.00    +0.000 HD
ATOM     14  H   UNL     1      44.847   4.168   8.571  0.00  0.00    +0.000 HD
ENDBRANCH   2  11
ENDBRANCH   1   6
BRANCH   1  15
ATOM     15  C   UNL     1      49.102   7.540  14.276  0.00  0.00    +0.000 A 
ATOM     16  C   UNL     1      48.792   6.692  15.345  0.00  0.00    +0.000 A 
ATOM     17  C   UNL     1      49.750   6.390  16.324  0.00  0.00    +0.000 A 
ATOM     18  C   UNL     1      51.016   6.943  16.137  0.00  0.00    +0.000 A 
ATOM     19  C   UNL     1      51.261   7.755  15.036  0.00  0.00    +0.000 A 
ATOM     20  N   UNL     1      50.336   8.069  14.108  0.00  0.00    +0.000 NA
BRANCH  17  21
ATOM     21  N   UNL     1      49.442   5.579  17.406  0.00  0.00    +0.000 N 
ATOM     22  C   UNL     1      48.134   5.621  18.065  0.00  0.00    +0.000 C 
ATOM     23  C   UNL     1      47.357   4.339  17.786  0.00  0.00    +0.000 C 
ATOM     24  C   UNL     1      48.177   3.096  18.131  0.00  0.00    +0.000 C 
ATOM     25  C   UNL     1      49.560   3.128  17.482  0.00  0.00    +0.000 C 
ATOM     26  C   UNL     1      50.299   4.440  17.751  0.00  0.00    +0.000 C 
BRANCH  24  27
ATOM     27  O   UNL     1      48.288   2.941  19.546  0.00  0.00    +0.000 OA
ATOM     28  H   UNL     1      48.030   3.770  19.981  0.00  0.00    +0.000 HD
ENDBRANCH  24  27
ENDBRANCH  17  21
ENDBRANCH   1  15
TORSDOF 5
ENDMDL
MODEL 6
REMARK VINA RESULT:    -6.936      4.848      8.227
REMARK INTER + INTRA:          -9.553
REMARK INTER:                  -8.946
REMARK INTRA:                  -0.607
REMARK UNBOUND:                -0.792
REMARK  Name = 
REMARK  5 active torsions:
REMARK  status: ('A' for Active; 'I' for Inactive)
REMARK    1  A    between atoms: C_2  and  C_4
REMARK    2  A    between atoms: N_8  and  C_9
REMARK    3  A    between atoms: C_9  and  C_10
REMARK    4  A    between atoms: C_12  and  N_13
REMARK    5  A    between atoms: C_16  and  O_17
REMARK                            x       y       z     vdW  Elec       q    Type
REMARK                         _______ _______ _______ _____ _____    ______ ____
ROOT
ATOM      1  C   UNL     1      47.329   3.862  16.156  0.00  0.00    +0.000 C 
ENDROOT
BRANCH   1   6
ATOM      2  C   UNL     1      51.960   2.503  17.719  0.00  0.00    +0.000 A 
ATOM      3  C   UNL     1      50.887   1.699  17.343  0.00  0.00    +0.000 A 
ATOM      4  C   UNL     1      49.635   2.289  17.145  0.00  0.00    +0.000 A 
ATOM      5  C   UNL     1      49.477   3.664  17.301  0.00  0.00    +0.000 A 
ATOM      6  N   UNL     1      48.249   4.301  17.194  0.00  0.00    +0.000 N 
ATOM      7  N   UNL     1      50.513   4.449  17.661  0.00  0.00    +0.000 NA
ATOM      8  C   UNL     1      51.720   3.858  17.876  0.00  0.00    +0.000 A 
ATOM      9  H   UNL     1      48.429   5.304  17.185  0.00  0.00    +0.000 HD
BRANCH   2  11
ATOM     10  N   UNL     1      53.771   2.069  19.284  0.00  0.00    +0.000 N 
ATOM     11  C   UNL     1      53.307   1.965  18.000  0.00  0.00    +0.000 C 
ATOM     12  O   UNL     1      53.974   1.422  17.131  0.00  0.00    +0.000 OA
ATOM     13  H   UNL     1      54.656   1.616  19.480  0.00  0.00    +0.000 HD
ATOM     14  H   UNL     1      53.171   2.278  20.068  0.00  0.00    +0.000 HD
ENDBRANCH   2  11
ENDBRANCH   1   6
BRANCH   1  15
ATOM     15  C   UNL     1      47.297   4.829  14.986  0.00  0.00    +0.000 A 
ATOM     16  C   UNL     1      46.331   4.691  13.984  0.00  0.00    +0.000 A 
ATOM     17  C   UNL     1      46.342   5.522  12.855  0.00  0.00    +0.000 A 
ATOM     18  C   UNL     1      47.333   6.503  12.823  0.00  0.00    +0.000 A 
ATOM     19  C   UNL     1      48.244   6.601  13.868  0.00  0.00    +0.000 A 
ATOM     20  N   UNL     1      48.253   5.786  14.941  0.00  0.00    +0.000 NA
BRANCH  17  21
ATOM     21  N   UNL     1      45.410   5.371  11.839  0.00  0.00    +0.000 N 
ATOM     22  C   UNL     1      45.450   6.179  10.618  0.00  0.00    +0.000 C 
ATOM     23  C   UNL     1      45.845   5.317   9.422  0.00  0.00    +0.000 C 
ATOM     24  C   UNL     1      44.961   4.076   9.307  0.00  0.00    +0.000 C 
ATOM     25  C   UNL     1      44.890   3.303  10.623  0.00  0.00    +0.000 C 
ATOM     26  C   UNL     1      44.527   4.200  11.807  0.00  0.00    +0.000 C 
BRANCH  24  27
ATOM     27  O   UNL     1      43.652   4.427   8.857  0.00  0.00    +0.000 OA
ATOM     28  H   UNL     1      43.677   5.313   8.460  0.00  0.00    +0.000 HD
ENDBRANCH  24  27
ENDBRANCH  17  21
ENDBRANCH   1  15
TORSDOF 5
ENDMDL
MODEL 7
REMARK VINA RESULT:    -6.682      5.138      8.359
REMARK INTER + INTRA:          -9.232
REMARK INTER:                  -8.607
REMARK INTRA:                  -0.625
REMARK UNBOUND:                -0.792
REMARK  Name = 
REMARK  5 active torsions:
REMARK  status: ('A' for Active; 'I' for Inactive)
REMARK    1  A    between atoms: C_2  and  C_4
REMARK    2  A    between atoms: N_8  and  C_9
REMARK    3  A    between atoms: C_9  and  C_10
REMARK    4  A    between atoms: C_12  and  N_13
REMARK    5  A    between atoms: C_16  and  O_17
REMARK                            x       y       z     vdW  Elec       q    Type
REMARK                         _______ _______ _______ _____ _____    ______ ____
ROOT
ATOM      1  C   UNL     1      47.542   3.593  16.595  0.00  0.00    +0.000 C 
ENDROOT
BRANCH   1   6
ATOM      2  C   UNL     1      52.293   2.277  17.791  0.00  0.00    +0.000 A 
ATOM      3  C   UNL     1      51.237   1.474  17.372  0.00  0.00    +0.000 A 
ATOM      4  C   UNL     1      49.955   2.024  17.297  0.00  0.00    +0.000 A 
ATOM      5  C   UNL     1      49.749   3.365  17.616  0.00  0.00    +0.000 A 
ATOM      6  N   UNL     1      48.493   3.954  17.636  0.00  0.00    +0.000 N 
ATOM      7  N   UNL     1      50.769   4.150  18.018  0.00  0.00    +0.000 NA
ATOM      8  C   UNL     1      52.008   3.594  18.112  0.00  0.00    +0.000 A 
ATOM      9  H   UNL     1      48.632   4.958  17.734  0.00  0.00    +0.000 HD
BRANCH   2  11
ATOM     10  N   UNL     1      54.122   1.562  19.226  0.00  0.00    +0.000 N 
ATOM     11  C   UNL     1      53.673   1.773  17.951  0.00  0.00    +0.000 C 
ATOM     12  O   UNL     1      54.380   1.526  16.984  0.00  0.00    +0.000 OA
ATOM     13  H   UNL     1      55.036   1.131  19.316  0.00  0.00    +0.000 HD
ATOM     14  H   UNL     1      53.506   1.515  20.024  0.00  0.00    +0.000 HD
ENDBRANCH   2  11
ENDBRANCH   1   6
BRANCH   1  15
ATOM     15  C   UNL     1      47.520   4.615  15.474  0.00  0.00    +0.000 A 
ATOM     16  C   UNL     1      46.717   4.408  14.347  0.00  0.00    +0.000 A 
ATOM     17  C   UNL     1      46.751   5.300  13.266  0.00  0.00    +0.000 A 
ATOM     18  C   UNL     1      47.587   6.407  13.408  0.00  0.00    +0.000 A 
ATOM     19  C   UNL     1      48.336   6.565  14.568  0.00  0.00    +0.000 A 
ATOM     20  N   UNL     1      48.326   5.695  15.597  0.00  0.00    +0.000 NA
BRANCH  17  21
ATOM     21  N   UNL     1      45.986   5.085  12.130  0.00  0.00    +0.000 N 
ATOM     22  C   UNL     1      45.239   3.842  11.917  0.00  0.00    +0.000 C 
ATOM     23  C   UNL     1      43.739   4.098  12.020  0.00  0.00    +0.000 C 
ATOM     24  C   UNL     1      43.299   5.241  11.106  0.00  0.00    +0.000 C 
ATOM     25  C   UNL     1      44.150   6.494  11.310  0.00  0.00    +0.000 C 
ATOM     26  C   UNL     1      45.649   6.198  11.236  0.00  0.00    +0.000 C 
BRANCH  24  27
ATOM     27  O   UNL     1      43.323   4.833   9.738  0.00  0.00    +0.000 OA
ATOM     28  H   UNL     1      42.468   4.433   9.508  0.00  0.00    +0.000 HD
ENDBRANCH  24  27
ENDBRANCH  17  21
ENDBRANCH   1  15
TORSDOF 5
ENDMDL
MODEL 8
REMARK VINA RESULT:    -6.604      3.833      8.274
REMARK INTER + INTRA:          -9.134
REMARK INTER:                  -8.397
REMARK INTRA:                  -0.737
REMARK UNBOUND:                -0.792
REMARK  Name = 
REMARK  5 active torsions:
REMARK  status: ('A' for Active; 'I' for Inactive)
REMARK    1  A    between atoms: C_2  and  C_4
REMARK    2  A    between atoms: N_8  and  C_9
REMARK    3  A    between atoms: C_9  and  C_10
REMARK    4  A    between atoms: C_12  and  N_13
REMARK    5  A    between atoms: C_16  and  O_17
REMARK                            x       y       z     vdW  Elec       q    Type
REMARK                         _______ _______ _______ _____ _____    ______ ____
ROOT
ATOM      1  C   UNL     1      48.306   8.020  13.635  0.00  0.00    +0.000 C 
ENDROOT
BRANCH   1   6
ATOM      2  C   UNL     1      48.357   5.520  18.049  0.00  0.00    +0.000 A 
ATOM      3  C   UNL     1      48.732   6.833  17.777  0.00  0.00    +0.000 A 
ATOM      4  C   UNL     1      48.830   7.247  16.446  0.00  0.00    +0.000 A 
ATOM      5  C   UNL     1      48.534   6.361  15.413  0.00  0.00    +0.000 A 
ATOM      6  N   UNL     1      48.683   6.685  14.072  0.00  0.00    +0.000 N 
ATOM      7  N   UNL     1      48.165   5.090  15.670  0.00  0.00    +0.000 NA
ATOM      8  C   UNL     1      48.099   4.692  16.969  0.00  0.00    +0.000 A 
ATOM      9  H   UNL     1      48.249   5.938  13.531  0.00  0.00    +0.000 HD
BRANCH   2  11
ATOM     10  N   UNL     1      48.504   3.636  19.580  0.00  0.00    +0.000 N 
ATOM     11  C   UNL     1      48.276   4.976  19.420  0.00  0.00    +0.000 C 
ATOM     12  O   UNL     1      48.041   5.695  20.381  0.00  0.00    +0.000 OA
ATOM     13  H   UNL     1      48.533   3.295  20.534  0.00  0.00    +0.000 HD
ATOM     14  H   UNL     1      48.935   3.065  18.869  0.00  0.00    +0.000 HD
ENDBRANCH   2  11
ENDBRANCH   1   6
BRANCH   1  15
ATOM     15  C   UNL     1      46.943   8.029  12.966  0.00  0.00    +0.000 A 
ATOM     16  C   UNL     1      46.160   6.870  12.947  0.00  0.00    +0.000 A 
ATOM     17  C   UNL     1      44.938   6.839  12.259  0.00  0.00    +0.000 A 
ATOM     18  C   UNL     1      44.545   8.031  11.649  0.00  0.00    +0.000 A 
ATOM     19  C   UNL     1      45.361   9.152  11.732  0.00  0.00    +0.000 A 
ATOM     20  N   UNL     1      46.549   9.178  12.369  0.00  0.00    +0.000 NA
BRANCH  17  21
ATOM     21  N   UNL     1      44.171   5.686  12.205  0.00  0.00    +0.000 N 
ATOM     22  C   UNL     1      43.222   5.431  11.118  0.00  0.00    +0.000 C 
ATOM     23  C   UNL     1      43.721   4.295  10.231  0.00  0.00    +0.000 C 
ATOM     24  C   UNL     1      44.063   3.051  11.049  0.00  0.00    +0.000 C 
ATOM     25  C   UNL     1      44.997   3.374  12.214  0.00  0.00    +0.000 C 
ATOM     26  C   UNL     1      44.487   4.539  13.063  0.00  0.00    +0.000 C 
BRANCH  24  27
ATOM     27  O   UNL     1      42.876   2.411  11.518  0.00  0.00    +0.000 OA
ATOM     28  H   UNL     1      42.103   2.817  11.091  0.00  0.00    +0.000 HD
ENDBRANCH  24  27
ENDBRANCH  17  21
ENDBRANCH   1  15
TORSDOF 5
ENDMDL
MODEL 9
REMARK VINA RESULT:    -6.162      4.544      6.926
REMARK INTER + INTRA:          -8.575
REMARK INTER:                  -7.722
REMARK INTRA:                  -0.853
REMARK UNBOUND:                -0.792
REMARK  Name = 
REMARK  5 active torsions:
REMARK  status: ('A' for Active; 'I' for Inactive)
REMARK    1  A    between atoms: C_2  and  C_4
REMARK    2  A    between atoms: N_8  and  C_9
REMARK    3  A    between atoms: C_9  and  C_10
REMARK    4  A    between atoms: C_12  and  N_13
REMARK    5  A    between atoms: C_16  and  O_17
REMARK                            x       y       z     vdW  Elec       q    Type
REMARK                         _______ _______ _______ _____ _____    ______ ____
ROOT
ATOM      1  C   UNL     1      49.505   7.489  13.422  0.00  0.00    +0.000 C 
ENDROOT
BRANCH   1   6
ATOM      2  C   UNL     1      44.835   5.577  12.899  0.00  0.00    +0.000 A 
ATOM      3  C   UNL     1      46.046   4.910  13.059  0.00  0.00    +0.000 A 
ATOM      4  C   UNL     1      47.237   5.637  12.976  0.00  0.00    +0.000 A 
ATOM      5  C   UNL     1      47.203   7.013  12.759  0.00  0.00    +0.000 A 
ATOM      6  N   UNL     1      48.346   7.780  12.591  0.00  0.00    +0.000 N 
ATOM      7  N   UNL     1      46.033   7.666  12.607  0.00  0.00    +0.000 NA
ATOM      8  C   UNL     1      44.882   6.942  12.664  0.00  0.00    +0.000 A 
ATOM      9  H   UNL     1      48.060   8.758  12.614  0.00  0.00    +0.000 HD
BRANCH   2  11
ATOM     10  N   UNL     1      42.469   5.529  12.337  0.00  0.00    +0.000 N 
ATOM     11  C   UNL     1      43.528   4.887  12.919  0.00  0.00    +0.000 C 
ATOM     12  O   UNL     1      43.399   3.775  13.411  0.00  0.00    +0.000 OA
ATOM     13  H   UNL     1      41.603   5.005  12.279  0.00  0.00    +0.000 HD
ATOM     14  H   UNL     1      42.579   6.316  11.715  0.00  0.00    +0.000 HD
ENDBRANCH   2  11
ENDBRANCH   1   6
BRANCH   1  15
ATOM     15  C   UNL     1      49.238   7.790  14.885  0.00  0.00    +0.000 A 
ATOM     16  C   UNL     1      49.086   6.745  15.803  0.00  0.00    +0.000 A 
ATOM     17  C   UNL     1      48.755   7.005  17.140  0.00  0.00    +0.000 A 
ATOM     18  C   UNL     1      48.635   8.349  17.494  0.00  0.00    +0.000 A 
ATOM     19  C   UNL     1      48.827   9.337  16.536  0.00  0.00    +0.000 A 
ATOM     20  N   UNL     1      49.118   9.089  15.244  0.00  0.00    +0.000 NA
BRANCH  17  21
ATOM     21  N   UNL     1      48.568   5.975  18.050  0.00  0.00    +0.000 N 
ATOM     22  C   UNL     1      47.290   5.271  18.177  0.00  0.00    +0.000 C 
ATOM     23  C   UNL     1      47.416   3.842  17.658  0.00  0.00    +0.000 C 
ATOM     24  C   UNL     1      48.588   3.108  18.309  0.00  0.00    +0.000 C 
ATOM     25  C   UNL     1      49.884   3.910  18.217  0.00  0.00    +0.000 C 
ATOM     26  C   UNL     1      49.717   5.347  18.711  0.00  0.00    +0.000 C 
BRANCH  24  27
ATOM     27  O   UNL     1      48.291   2.785  19.668  0.00  0.00    +0.000 OA
ATOM     28  H   UNL     1      49.003   3.118  20.239  0.00  0.00    +0.000 HD
ENDBRANCH  24  27
ENDBRANCH  17  21
ENDBRANCH   1  15
TORSDOF 5
ENDMDL
