MODEL 1
REMARK VINA RESULT:    -7.863      0.000      0.000
REMARK INTER + INTRA:         -10.010
REMARK INTER:                  -9.932
REMARK INTRA:                  -0.078
REMARK UNBOUND:                -0.078
REMARK  Name = 
REMARK  5 active torsions:
REMARK  status: ('A' for Active; 'I' for Inactive)
REMARK    1  A    between atoms: N_1  and  C_2
REMARK    2  A    between atoms: C_2  and  C_3
REMARK    3  A    between atoms: C_6  and  C_7
REMARK    4  A    between atoms: C_7  and  N_8
REMARK    5  A    between atoms: C_13  and  C_14
REMARK                            x       y       z     vdW  Elec       q    Type
REMARK                         _______ _______ _______ _____ _____    ______ ____
ROOT
ATOM      1  N   UNL     1      43.985   4.481  10.553  0.00  0.00    +0.000 N 
ATOM      2  C   UNL     1      43.374   3.374  11.075  0.00  0.00    +0.000 A 
ATOM      3  N   UNL     1      43.846   2.266  10.552  0.00  0.00    +0.000 NA
ATOM      4  C   UNL     1      44.769   2.673   9.622  0.00  0.00    +0.000 A 
ATOM      5  C   UNL     1      45.569   1.893   8.774  0.00  0.00    +0.000 A 
ATOM      6  C   UNL     1      46.417   2.541   7.862  0.00  0.00    +0.000 A 
ATOM      7  C   UNL     1      46.470   3.944   7.828  0.00  0.00    +0.000 A 
ATOM      8  C   UNL     1      45.699   4.736   8.687  0.00  0.00    +0.000 A 
ATOM      9  C   UNL     1      44.855   4.062   9.575  0.00  0.00    +0.000 A 
ENDROOT
BRANCH   6  10
ATOM     10  C   UNL     1      47.276   1.796   6.897  0.00  0.00    +0.000 C 
ATOM     11  N   UNL     1      48.326   2.445   6.312  0.00  0.00    +0.000 N 
ATOM     12  O   UNL     1      47.065   0.617   6.635  0.00  0.00    +0.000 OA
ATOM     13  H   UNL     1      48.601   3.397   6.494  0.00  0.00    +0.000 HD
ATOM     14  H   UNL     1      48.903   1.900   5.683  0.00  0.00    +0.000 HD
ENDBRANCH   6  10
BRANCH   1  15
ATOM     15  C   UNL     1      43.764   5.847  10.994  0.00  0.00    +0.000 C 
BRANCH  15  19
ATOM     16  C   UNL     1      47.295   6.164  12.612  0.00  0.00    +0.000 C 
ATOM     17  C   UNL     1      46.508   4.849  12.485  0.00  0.00    +0.000 C 
ATOM     18  C   UNL     1      45.081   4.954  13.021  0.00  0.00    +0.000 C 
ATOM     19  C   UNL     1      44.276   6.124  12.423  0.00  0.00    +0.000 C 
ATOM     20  C   UNL     1      45.079   7.435  12.469  0.00  0.00    +0.000 C 
ATOM     21  C   UNL     1      46.506   7.299  11.938  0.00  0.00    +0.000 C 
BRANCH  16  22
ATOM     22  C   UNL     1      47.654   6.526  14.069  0.00  0.00    +0.000 C 
BRANCH  22  23
ATOM     23  N   UNL     1      48.117   5.364  14.818  0.00  0.00    +0.000 NA
ATOM     24  H   UNL     1      47.566   5.269  15.672  0.00  0.00    +0.000 HD
ATOM     25  H   UNL     1      49.080   5.509  15.119  0.00  0.00    +0.000 HD
ENDBRANCH  22  23
ENDBRANCH  16  22
ENDBRANCH  15  19
ENDBRANCH   1  15
TORSDOF 5
ENDMDL
MODEL 2
REMARK VINA RESULT:    -6.976      1.552      2.052
REMARK INTER + INTRA:          -8.889
REMARK INTER:                  -9.041
REMARK INTRA:                   0.152
REMARK UNBOUND:                -0.078
REMARK  Name = 
REMARK  5 active torsions:
REMARK  status: ('A' for Active; 'I' for Inactive)
REMARK    1  A    between atoms: N_1  and  C_2
REMARK    2  A    between atoms: C_2  and  C_3
REMARK    3  A    between atoms: C_6  and  C_7
REMARK    4  A    between atoms: C_7  and  N_8
REMARK    5  A    between atoms: C_13  and  C_14
REMARK                            x       y       z     vdW  Elec       q    Type
REMARK                         _______ _______ _______ _____ _____    ______ ____
ROOT
ATOM      1  N   UNL     1      44.262   4.627  10.761  0.00  0.00    +0.000 N 
ATOM      2  C   UNL     1      43.585   3.524  11.206  0.00  0.00    +0.000 A 
ATOM      3  N   UNL     1      43.891   2.452  10.513  0.00  0.00    +0.000 NA
ATOM      4  C   UNL     1      44.768   2.887   9.551  0.00  0.00    +0.000 A 
ATOM      5  C   UNL     1      45.405   2.150   8.542  0.00  0.00    +0.000 A 
ATOM      6  C   UNL     1      46.235   2.827   7.633  0.00  0.00    +0.000 A 
ATOM      7  C   UNL     1      46.432   4.211   7.760  0.00  0.00    +0.000 A 
ATOM      8  C   UNL     1      45.825   4.955   8.779  0.00  0.00    +0.000 A 
ATOM      9  C   UNL     1      44.995   4.256   9.660  0.00  0.00    +0.000 A 
ENDROOT
BRANCH   6  10
ATOM     10  C   UNL     1      46.924   2.133   6.507  0.00  0.00    +0.000 C 
ATOM     11  N   UNL     1      47.295   2.862   5.413  0.00  0.00    +0.000 N 
ATOM     12  O   UNL     1      47.174   0.934   6.554  0.00  0.00    +0.000 OA
ATOM     13  H   UNL     1      47.168   3.855   5.300  0.00  0.00    +0.000 HD
ATOM     14  H   UNL     1      47.784   2.363   4.680  0.00  0.00    +0.000 HD
ENDBRANCH   6  10
BRANCH   1  15
ATOM     15  C   UNL     1      44.224   5.940  11.380  0.00  0.00    +0.000 C 
BRANCH  15  19
ATOM     16  C   UNL     1      46.519   8.339  13.420  0.00  0.00    +0.000 C 
ATOM     17  C   UNL     1      45.230   8.767  12.700  0.00  0.00    +0.000 C 
ATOM     18  C   UNL     1      45.190   8.325  11.237  0.00  0.00    +0.000 C 
ATOM     19  C   UNL     1      45.445   6.819  11.036  0.00  0.00    +0.000 C 
ATOM     20  C   UNL     1      46.688   6.354  11.815  0.00  0.00    +0.000 C 
ATOM     21  C   UNL     1      46.708   6.820  13.271  0.00  0.00    +0.000 C 
BRANCH  16  22
ATOM     22  C   UNL     1      47.773   9.104  12.945  0.00  0.00    +0.000 C 
BRANCH  22  23
ATOM     23  N   UNL     1      47.698  10.523  13.272  0.00  0.00    +0.000 NA
ATOM     24  H   UNL     1      47.139  10.649  14.115  0.00  0.00    +0.000 HD
ATOM     25  H   UNL     1      47.207  11.022  12.530  0.00  0.00    +0.000 HD
ENDBRANCH  22  23
ENDBRANCH  16  22
ENDBRANCH  15  19
ENDBRANCH   1  15
TORSDOF 5
ENDMDL
MODEL 3
REMARK VINA RESULT:    -6.307      4.324      8.229
REMARK INTER + INTRA:          -8.044
REMARK INTER:                  -7.553
REMARK INTRA:                  -0.492
REMARK UNBOUND:                -0.078
REMARK  Name = 
REMARK  5 active torsions:
REMARK  status: ('A' for Active; 'I' for Inactive)
REMARK    1  A    between atoms: N_1  and  C_2
REMARK    2  A    between atoms: C_2  and  C_3
REMARK    3  A    between atoms: C_6  and  C_7
REMARK    4  A    between atoms: C_7  and  N_8
REMARK    5  A    between atoms: C_13  and  C_14
REMARK                            x       y       z     vdW  Elec       q    Type
REMARK                         _______ _______ _______ _____ _____    ______ ____
ROOT
ATOM      1  N   UNL     1      48.159   6.295  14.475  0.00  0.00    +0.000 N 
ATOM      2  C   UNL     1      48.818   7.480  14.656  0.00  0.00    +0.000 A 
ATOM      3  N   UNL     1      49.283   7.596  15.879  0.00  0.00    +0.000 NA
ATOM      4  C   UNL     1      48.869   6.461  16.529  0.00  0.00    +0.000 A 
ATOM      5  C   UNL     1      49.092   6.076  17.859  0.00  0.00    +0.000 A 
ATOM      6  C   UNL     1      48.525   4.876  18.319  0.00  0.00    +0.000 A 
ATOM      7  C   UNL     1      47.773   4.076  17.444  0.00  0.00    +0.000 A 
ATOM      8  C   UNL     1      47.566   4.432  16.106  0.00  0.00    +0.000 A 
ATOM      9  C   UNL     1      48.132   5.637  15.682  0.00  0.00    +0.000 A 
ENDROOT
BRANCH   6  10
ATOM     10  C   UNL     1      48.677   4.405  19.726  0.00  0.00    +0.000 C 
ATOM     11  N   UNL     1      48.350   3.113  20.027  0.00  0.00    +0.000 N 
ATOM     12  O   UNL     1      49.101   5.148  20.604  0.00  0.00    +0.000 OA
ATOM     13  H   UNL     1      48.031   2.421  19.368  0.00  0.00    +0.000 HD
ATOM     14  H   UNL     1      48.491   2.822  20.986  0.00  0.00    +0.000 HD
ENDBRANCH   6  10
BRANCH   1  15
ATOM     15  C   UNL     1      47.621   5.819  13.213  0.00  0.00    +0.000 C 
BRANCH  15  19
ATOM     16  C   UNL     1      44.893   4.430  10.802  0.00  0.00    +0.000 C 
ATOM     17  C   UNL     1      45.702   5.715  10.557  0.00  0.00    +0.000 C 
ATOM     18  C   UNL     1      45.677   6.670  11.750  0.00  0.00    +0.000 C 
ATOM     19  C   UNL     1      46.096   6.015  13.080  0.00  0.00    +0.000 C 
ATOM     20  C   UNL     1      45.354   4.686  13.305  0.00  0.00    +0.000 C 
ATOM     21  C   UNL     1      45.385   3.755  12.092  0.00  0.00    +0.000 C 
BRANCH  16  22
ATOM     22  C   UNL     1      43.368   4.662  10.841  0.00  0.00    +0.000 C 
BRANCH  22  23
ATOM     23  N   UNL     1      42.662   3.530  11.430  0.00  0.00    +0.000 NA
ATOM     24  H   UNL     1      43.222   3.135  12.185  0.00  0.00    +0.000 HD
ATOM     25  H   UNL     1      42.561   2.789  10.737  0.00  0.00    +0.000 HD
ENDBRANCH  22  23
ENDBRANCH  16  22
ENDBRANCH  15  19
ENDBRANCH   1  15
TORSDOF 5
ENDMDL
MODEL 4
REMARK VINA RESULT:    -6.096      3.452      5.753
REMARK INTER + INTRA:          -7.778
REMARK INTER:                  -7.216
REMARK INTRA:                  -0.562
REMARK UNBOUND:                -0.078
REMARK  Name = 
REMARK  5 active torsions:
REMARK  status: ('A' for Active; 'I' for Inactive)
REMARK    1  A    between atoms: N_1  and  C_2
REMARK    2  A    between atoms: C_2  and  C_3
REMARK    3  A    between atoms: C_6  and  C_7
REMARK    4  A    between atoms: C_7  and  N_8
REMARK    5  A    between atoms: C_13  and  C_14
REMARK                            x       y       z     vdW  Elec       q    Type
REMARK                         _______ _______ _______ _____ _____    ______ ____
ROOT
ATOM      1  N   UNL     1      47.750   6.327  14.030  0.00  0.00    +0.000 N 
ATOM      2  C   UNL     1      47.628   7.603  13.551  0.00  0.00    +0.000 A 
ATOM      3  N   UNL     1      46.674   7.696  12.653  0.00  0.00    +0.000 NA
ATOM      4  C   UNL     1      46.190   6.420  12.511  0.00  0.00    +0.000 A 
ATOM      5  C   UNL     1      45.163   5.956  11.677  0.00  0.00    +0.000 A 
ATOM      6  C   UNL     1      44.868   4.583  11.670  0.00  0.00    +0.000 A 
ATOM      7  C   UNL     1      45.580   3.708  12.506  0.00  0.00    +0.000 A 
ATOM      8  C   UNL     1      46.589   4.161  13.364  0.00  0.00    +0.000 A 
ATOM      9  C   UNL     1      46.868   5.530  13.340  0.00  0.00    +0.000 A 
ENDROOT
BRANCH   6  10
ATOM     10  C   UNL     1      43.818   3.992  10.789  0.00  0.00    +0.000 C 
ATOM     11  N   UNL     1      43.743   4.403   9.488  0.00  0.00    +0.000 N 
ATOM     12  O   UNL     1      43.040   3.143  11.207  0.00  0.00    +0.000 OA
ATOM     13  H   UNL     1      44.361   5.064   9.046  0.00  0.00    +0.000 HD
ATOM     14  H   UNL     1      43.036   3.960   8.914  0.00  0.00    +0.000 HD
ENDBRANCH   6  10
BRANCH   1  15
ATOM     15  C   UNL     1      48.637   5.916  15.103  0.00  0.00    +0.000 C 
BRANCH  15  19
ATOM     16  C   UNL     1      49.639   4.464  18.578  0.00  0.00    +0.000 C 
ATOM     17  C   UNL     1      48.922   3.670  17.474  0.00  0.00    +0.000 C 
ATOM     18  C   UNL     1      47.680   4.381  16.939  0.00  0.00    +0.000 C 
ATOM     19  C   UNL     1      47.942   5.828  16.478  0.00  0.00    +0.000 C 
ATOM     20  C   UNL     1      48.729   6.617  17.538  0.00  0.00    +0.000 C 
ATOM     21  C   UNL     1      49.960   5.877  18.064  0.00  0.00    +0.000 C 
BRANCH  16  22
ATOM     22  C   UNL     1      48.853   4.520  19.905  0.00  0.00    +0.000 C 
BRANCH  22  23
ATOM     23  N   UNL     1      48.339   3.210  20.286  0.00  0.00    +0.000 NA
ATOM     24  H   UNL     1      48.657   2.980  21.228  0.00  0.00    +0.000 HD
ATOM     25  H   UNL     1      48.730   2.495  19.674  0.00  0.00    +0.000 HD
ENDBRANCH  22  23
ENDBRANCH  16  22
ENDBRANCH  15  19
ENDBRANCH   1  15
TORSDOF 5
ENDMDL
MODEL 5
REMARK VINA RESULT:    -6.090      3.201      5.175
REMARK INTER + INTRA:          -7.770
REMARK INTER:                  -7.191
REMARK INTRA:                  -0.578
REMARK UNBOUND:                -0.078
REMARK  Name = 
REMARK  5 active torsions:
REMARK  status: ('A' for Active; 'I' for Inactive)
REMARK    1  A    between atoms: N_1  and  C_2
REMARK    2  A    between atoms: C_2  and  C_3
REMARK    3  A    between atoms: C_6  and  C_7
REMARK    4  A    between atoms: C_7  and  N_8
REMARK    5  A    between atoms: C_13  and  C_14
REMARK                            x       y       z     vdW  Elec       q    Type
REMARK                         _______ _______ _______ _____ _____    ______ ____
ROOT
ATOM      1  N   UNL     1      47.455   6.132  14.112  0.00  0.00    +0.000 N 
ATOM      2  C   UNL     1      47.492   5.074  14.979  0.00  0.00    +0.000 A 
ATOM      3  N   UNL     1      46.819   4.044  14.519  0.00  0.00    +0.000 NA
ATOM      4  C   UNL     1      46.288   4.468  13.327  0.00  0.00    +0.000 A 
ATOM      5  C   UNL     1      45.481   3.763  12.422  0.00  0.00    +0.000 A 
ATOM      6  C   UNL     1      45.014   4.425  11.276  0.00  0.00    +0.000 A 
ATOM      7  C   UNL     1      45.376   5.762  11.042  0.00  0.00    +0.000 A 
ATOM      8  C   UNL     1      46.204   6.470  11.921  0.00  0.00    +0.000 A 
ATOM      9  C   UNL     1      46.643   5.787  13.059  0.00  0.00    +0.000 A 
ENDROOT
BRANCH   6  10
ATOM     10  C   UNL     1      44.121   3.768  10.277  0.00  0.00    +0.000 C 
ATOM     11  N   UNL     1      43.982   4.338   9.043  0.00  0.00    +0.000 N 
ATOM     12  O   UNL     1      43.528   2.728  10.539  0.00  0.00    +0.000 OA
ATOM     13  H   UNL     1      44.457   5.166   8.724  0.00  0.00    +0.000 HD
ATOM     14  H   UNL     1      43.390   3.850   8.383  0.00  0.00    +0.000 HD
ENDBRANCH   6  10
BRANCH   1  15
ATOM     15  C   UNL     1      48.183   7.377  14.278  0.00  0.00    +0.000 C 
BRANCH  15  19
ATOM     16  C   UNL     1      50.381   9.882  12.258  0.00  0.00    +0.000 C 
ATOM     17  C   UNL     1      49.434   8.847  11.628  0.00  0.00    +0.000 C 
ATOM     18  C   UNL     1      49.656   7.434  12.164  0.00  0.00    +0.000 C 
ATOM     19  C   UNL     1      49.614   7.337  13.701  0.00  0.00    +0.000 C 
ATOM     20  C   UNL     1      50.495   8.417  14.352  0.00  0.00    +0.000 C 
ATOM     21  C   UNL     1      50.260   9.820  13.789  0.00  0.00    +0.000 C 
BRANCH  16  22
ATOM     22  C   UNL     1      51.849   9.726  11.808  0.00  0.00    +0.000 C 
BRANCH  22  23
ATOM     23  N   UNL     1      51.968   9.665  10.357  0.00  0.00    +0.000 NA
ATOM     24  H   UNL     1      52.856   9.229  10.106  0.00  0.00    +0.000 HD
ATOM     25  H   UNL     1      52.000  10.610   9.974  0.00  0.00    +0.000 HD
ENDBRANCH  22  23
ENDBRANCH  16  22
ENDBRANCH  15  19
ENDBRANCH   1  15
TORSDOF 5
ENDMDL
MODEL 6
REMARK VINA RESULT:    -6.042      2.323      3.060
REMARK INTER + INTRA:          -7.709
REMARK INTER:                  -7.033
REMARK INTRA:                  -0.676
REMARK UNBOUND:                -0.078
REMARK  Name = 
REMARK  5 active torsions:
REMARK  status: ('A' for Active; 'I' for Inactive)
REMARK    1  A    between atoms: N_1  and  C_2
REMARK    2  A    between atoms: C_2  and  C_3
REMARK    3  A    between atoms: C_6  and  C_7
REMARK    4  A    between atoms: C_7  and  N_8
REMARK    5  A    between atoms: C_13  and  C_14
REMARK                            x       y       z     vdW  Elec       q    Type
REMARK                         _______ _______ _______ _____ _____    ______ ____
ROOT
ATOM      1  N   UNL     1      45.031   6.565  12.177  0.00  0.00    +0.000 N 
ATOM      2  C   UNL     1      44.341   5.917  13.166  0.00  0.00    +0.000 A 
ATOM      3  N   UNL     1      44.125   4.658  12.863  0.00  0.00    +0.000 NA
ATOM      4  C   UNL     1      44.657   4.494  11.609  0.00  0.00    +0.000 A 
ATOM      5  C   UNL     1      44.698   3.341  10.813  0.00  0.00    +0.000 A 
ATOM      6  C   UNL     1      45.262   3.426   9.530  0.00  0.00    +0.000 A 
ATOM      7  C   UNL     1      45.792   4.644   9.076  0.00  0.00    +0.000 A 
ATOM      8  C   UNL     1      45.785   5.797   9.870  0.00  0.00    +0.000 A 
ATOM      9  C   UNL     1      45.206   5.684  11.137  0.00  0.00    +0.000 A 
ENDROOT
BRANCH   6  10
ATOM     10  C   UNL     1      45.315   2.261   8.598  0.00  0.00    +0.000 C 
ATOM     11  N   UNL     1      46.189   2.298   7.549  0.00  0.00    +0.000 N 
ATOM     12  O   UNL     1      44.606   1.277   8.768  0.00  0.00    +0.000 OA
ATOM     13  H   UNL     1      46.836   3.043   7.351  0.00  0.00    +0.000 HD
ATOM     14  H   UNL     1      46.216   1.479   6.954  0.00  0.00    +0.000 HD
ENDBRANCH   6  10
BRANCH   1  15
ATOM     15  C   UNL     1      45.516   7.931  12.251  0.00  0.00    +0.000 C 
BRANCH  15  19
ATOM     16  C   UNL     1      49.267   8.820  11.680  0.00  0.00    +0.000 C 
ATOM     17  C   UNL     1      48.697   7.392  11.672  0.00  0.00    +0.000 C 
ATOM     18  C   UNL     1      47.858   7.078  12.909  0.00  0.00    +0.000 C 
ATOM     19  C   UNL     1      46.739   8.103  13.178  0.00  0.00    +0.000 C 
ATOM     20  C   UNL     1      47.274   9.544  13.111  0.00  0.00    +0.000 C 
ATOM     21  C   UNL     1      48.120   9.826  11.869  0.00  0.00    +0.000 C 
BRANCH  16  22
ATOM     22  C   UNL     1      50.375   9.034  12.733  0.00  0.00    +0.000 C 
BRANCH  22  23
ATOM     23  N   UNL     1      51.407   8.007  12.651  0.00  0.00    +0.000 NA
ATOM     24  H   UNL     1      50.983   7.088  12.774  0.00  0.00    +0.000 HD
ATOM     25  H   UNL     1      52.067   8.119  13.420  0.00  0.00    +0.000 HD
ENDBRANCH  22  23
ENDBRANCH  16  22
ENDBRANCH  15  19
ENDBRANCH   1  15
TORSDOF 5
ENDMDL
MODEL 7
REMARK VINA RESULT:    -6.010      3.974      6.550
REMARK INTER + INTRA:          -7.669
REMARK INTER:                  -7.203
REMARK INTRA:                  -0.466
REMARK UNBOUND:                -0.078
REMARK  Name = 
REMARK  5 active torsions:
REMARK  status: ('A' for Active; 'I' for Inactive)
REMARK    1  A    between atoms: N_1  and  C_2
REMARK    2  A    between atoms: C_2  and  C_3
REMARK    3  A    between atoms: C_6  and  C_7
REMARK    4  A    between atoms: C_7  and  N_8
REMARK    5  A    between atoms: C_13  and  C_14
REMARK                            x       y       z     vdW  Elec       q    Type
REMARK                         _______ _______ _______ _____ _____    ______ ____
ROOT
ATOM      1  N   UNL     1      46.213   8.497  12.405  0.00  0.00    +0.000 N 
ATOM      2  C   UNL     1      45.886   9.798  12.134  0.00  0.00    +0.000 A 
ATOM      3  N   UNL     1      46.925  10.483  11.714  0.00  0.00    +0.000 NA
ATOM      4  C   UNL     1      47.976   9.601  11.757  0.00  0.00    +0.000 A 
ATOM      5  C   UNL     1      49.319   9.815  11.415  0.00  0.00    +0.000 A 
ATOM      6  C   UNL     1      50.234   8.764  11.585  0.00  0.00    +0.000 A 
ATOM      7  C   UNL     1      49.793   7.521  12.068  0.00  0.00    +0.000 A 
ATOM      8  C   UNL     1      48.451   7.284  12.387  0.00  0.00    +0.000 A 
ATOM      9  C   UNL     1      47.566   8.353  12.218  0.00  0.00    +0.000 A 
ENDROOT
BRANCH   6  10
ATOM     10  C   UNL     1      51.688   8.909  11.283  0.00  0.00    +0.000 C 
ATOM     11  N   UNL     1      52.554   7.959  11.746  0.00  0.00    +0.000 N 
ATOM     12  O   UNL     1      52.110   9.849  10.620  0.00  0.00    +0.000 OA
ATOM     13  H   UNL     1      52.298   7.134  12.263  0.00  0.00    +0.000 HD
ATOM     14  H   UNL     1      53.529   8.077  11.499  0.00  0.00    +0.000 HD
ENDBRANCH   6  10
BRANCH   1  15
ATOM     15  C   UNL     1      45.271   7.459  12.786  0.00  0.00    +0.000 C 
BRANCH  15  19
ATOM     16  C   UNL     1      43.877   3.827  12.569  0.00  0.00    +0.000 C 
ATOM     17  C   UNL     1      45.372   4.188  12.603  0.00  0.00    +0.000 C 
ATOM     18  C   UNL     1      45.753   5.241  11.564  0.00  0.00    +0.000 C 
ATOM     19  C   UNL     1      44.890   6.516  11.625  0.00  0.00    +0.000 C 
ATOM     20  C   UNL     1      43.391   6.173  11.672  0.00  0.00    +0.000 C 
ATOM     21  C   UNL     1      43.039   5.107  12.711  0.00  0.00    +0.000 C 
BRANCH  16  22
ATOM     22  C   UNL     1      43.466   3.029  11.313  0.00  0.00    +0.000 C 
BRANCH  22  23
ATOM     23  N   UNL     1      43.109   1.653  11.637  0.00  0.00    +0.000 NA
ATOM     24  H   UNL     1      42.126   1.612  11.907  0.00  0.00    +0.000 HD
ATOM     25  H   UNL     1      43.639   1.342  12.450  0.00  0.00    +0.000 HD
ENDBRANCH  22  23
ENDBRANCH  16  22
ENDBRANCH  15  19
ENDBRANCH   1  15
TORSDOF 5
ENDMDL
MODEL 8
REMARK VINA RESULT:    -5.691      3.324      5.413
REMARK INTER + INTRA:          -7.267
REMARK INTER:                  -6.889
REMARK INTRA:                  -0.378
REMARK UNBOUND:                -0.078
REMARK  Name = 
REMARK  5 active torsions:
REMARK  status: ('A' for Active; 'I' for Inactive)
REMARK    1  A    between atoms: N_1  and  C_2
REMARK    2  A    between atoms: C_2  and  C_3
REMARK    3  A    between atoms: C_6  and  C_7
REMARK    4  A    between atoms: C_7  and  N_8
REMARK    5  A    between atoms: C_13  and  C_14
REMARK                            x       y       z     vdW  Elec       q    Type
REMARK                         _______ _______ _______ _____ _____    ______ ____
ROOT
ATOM      1  N   UNL     1      47.598   5.805  14.210  0.00  0.00    +0.000 N 
ATOM      2  C   UNL     1      47.424   4.785  15.105  0.00  0.00    +0.000 A 
ATOM      3  N   UNL     1      46.621   3.858  14.636  0.00  0.00    +0.000 NA
ATOM      4  C   UNL     1      46.223   4.318  13.406  0.00  0.00    +0.000 A 
ATOM      5  C   UNL     1      45.361   3.717  12.477  0.00  0.00    +0.000 A 
ATOM      6  C   UNL     1      45.062   4.405  11.290  0.00  0.00    +0.000 A 
ATOM      7  C   UNL     1      45.643   5.659  11.041  0.00  0.00    +0.000 A 
ATOM      8  C   UNL     1      46.527   6.259  11.945  0.00  0.00    +0.000 A 
ATOM      9  C   UNL     1      46.795   5.556  13.123  0.00  0.00    +0.000 A 
ENDROOT
BRANCH   6  10
ATOM     10  C   UNL     1      44.128   3.862  10.261  0.00  0.00    +0.000 C 
ATOM     11  N   UNL     1      44.094   4.447   9.028  0.00  0.00    +0.000 N 
ATOM     12  O   UNL     1      43.408   2.898  10.500  0.00  0.00    +0.000 OA
ATOM     13  H   UNL     1      44.673   5.215   8.728  0.00  0.00    +0.000 HD
ATOM     14  H   UNL     1      43.468   4.035   8.348  0.00  0.00    +0.000 HD
ENDBRANCH   6  10
BRANCH   1  15
ATOM     15  C   UNL     1      48.504   6.926  14.383  0.00  0.00    +0.000 C 
BRANCH  15  19
ATOM     16  C   UNL     1      51.242   9.127  16.070  0.00  0.00    +0.000 C 
ATOM     17  C   UNL     1      51.493   7.739  15.457  0.00  0.00    +0.000 C 
ATOM     18  C   UNL     1      50.521   6.678  15.970  0.00  0.00    +0.000 C 
ATOM     19  C   UNL     1      49.038   7.070  15.824  0.00  0.00    +0.000 C 
ATOM     20  C   UNL     1      48.782   8.490  16.360  0.00  0.00    +0.000 C 
ATOM     21  C   UNL     1      49.776   9.529  15.842  0.00  0.00    +0.000 C 
BRANCH  16  22
ATOM     22  C   UNL     1      51.617   9.216  17.565  0.00  0.00    +0.000 C 
BRANCH  22  23
ATOM     23  N   UNL     1      51.985  10.573  17.952  0.00  0.00    +0.000 NA
ATOM     24  H   UNL     1      51.153  11.075  18.264  0.00  0.00    +0.000 HD
ATOM     25  H   UNL     1      52.333  11.081  17.140  0.00  0.00    +0.000 HD
ENDBRANCH  22  23
ENDBRANCH  16  22
ENDBRANCH  15  19
ENDBRANCH   1  15
TORSDOF 5
ENDMDL
MODEL 9
REMARK VINA RESULT:    -5.576      3.507      5.705
REMARK INTER + INTRA:          -7.121
REMARK INTER:                  -6.650
REMARK INTRA:                  -0.471
REMARK UNBOUND:                -0.078
REMARK  Name = 
REMARK  5 active torsions:
REMARK  status: ('A' for Active; 'I' for Inactive)
REMARK    1  A    between atoms: N_1  and  C_2
REMARK    2  A    between atoms: C_2  and  C_3
REMARK    3  A    between atoms: C_6  and  C_7
REMARK    4  A    between atoms: C_7  and  N_8
REMARK    5  A    between atoms: C_13  and  C_14
REMARK                            x       y       z     vdW  Elec       q    Type
REMARK                         _______ _______ _______ _____ _____    ______ ____
ROOT
ATOM      1  N   UNL     1      46.876   7.719  13.230  0.00  0.00    +0.000 N 
ATOM      2  C   UNL     1      46.124   8.680  12.610  0.00  0.00    +0.000 A 
ATOM      3  N   UNL     1      45.055   8.169  12.042  0.00  0.00    +0.000 NA
ATOM      4  C   UNL     1      45.142   6.818  12.265  0.00  0.00    +0.000 A 
ATOM      5  C   UNL     1      44.260   5.802  11.871  0.00  0.00    +0.000 A 
ATOM      6  C   UNL     1      44.583   4.471  12.178  0.00  0.00    +0.000 A 
ATOM      7  C   UNL     1      45.760   4.181  12.888  0.00  0.00    +0.000 A 
ATOM      8  C   UNL     1      46.636   5.186  13.313  0.00  0.00    +0.000 A 
ATOM      9  C   UNL     1      46.293   6.500  12.982  0.00  0.00    +0.000 A 
ENDROOT
BRANCH   6  10
ATOM     10  C   UNL     1      43.725   3.321  11.768  0.00  0.00    +0.000 C 
ATOM     11  N   UNL     1      43.758   2.176  12.513  0.00  0.00    +0.000 N 
ATOM     12  O   UNL     1      42.988   3.393  10.792  0.00  0.00    +0.000 OA
ATOM     13  H   UNL     1      44.300   2.037  13.350  0.00  0.00    +0.000 HD
ATOM     14  H   UNL     1      43.143   1.428  12.219  0.00  0.00    +0.000 HD
ENDBRANCH   6  10
BRANCH   1  15
ATOM     15  C   UNL     1      48.059   7.971  14.033  0.00  0.00    +0.000 C 
BRANCH  15  19
ATOM     16  C   UNL     1      51.203   9.502  12.314  0.00  0.00    +0.000 C 
ATOM     17  C   UNL     1      49.926   9.070  11.573  0.00  0.00    +0.000 C 
ATOM     18  C   UNL     1      49.492   7.646  11.916  0.00  0.00    +0.000 C 
ATOM     19  C   UNL     1      49.352   7.385  13.428  0.00  0.00    +0.000 C 
ATOM     20  C   UNL     1      50.588   7.884  14.197  0.00  0.00    +0.000 C 
ATOM     21  C   UNL     1      51.007   9.306  13.826  0.00  0.00    +0.000 C 
BRANCH  16  22
ATOM     22  C   UNL     1      52.474   8.780  11.819  0.00  0.00    +0.000 C 
BRANCH  22  23
ATOM     23  N   UNL     1      52.868   9.225  10.488  0.00  0.00    +0.000 NA
ATOM     24  H   UNL     1      53.102   8.415   9.913  0.00  0.00    +0.000 HD
ATOM     25  H   UNL     1      53.719   9.784  10.548  0.00  0.00    +0.000 HD
ENDBRANCH  22  23
ENDBRANCH  16  22
ENDBRANCH  15  19
ENDBRANCH   1  15
TORSDOF 5
ENDMDL
