MODEL 1
REMARK VINA RESULT:    -8.713      0.000      0.000
REMARK INTER + INTRA:         -10.438
REMARK INTER:                 -10.241
REMARK INTRA:                  -0.197
REMARK UNBOUND:                -0.197
REMARK  Name = 
REMARK  3 active torsions:
REMARK  status: ('A' for Active; 'I' for Inactive)
REMARK    1  A    between atoms: C_2  and  C_4
REMARK    2  A    between atoms: N_8  and  C_9
REMARK    3  A    between atoms: C_9  and  C_10
REMARK                            x       y       z     vdW  Elec       q    Type
REMARK                         _______ _______ _______ _____ _____    ______ ____
ROOT
ATOM      1  C   UNL     1      46.349   2.138   7.880  0.00  0.00    +0.000 A 
ATOM      2  C   UNL     1      46.407   3.447   7.414  0.00  0.00    +0.000 A 
ATOM      3  C   UNL     1      45.670   4.434   8.070  0.00  0.00    +0.000 A 
ATOM      4  C   UNL     1      44.904   4.110   9.193  0.00  0.00    +0.000 A 
ATOM      5  N   UNL     1      44.240   5.161   9.849  0.00  0.00    +0.000 N 
ATOM      6  N   UNL     1      44.839   2.838   9.638  0.00  0.00    +0.000 NA
ATOM      7  C   UNL     1      45.534   1.880   8.969  0.00  0.00    +0.000 A 
ATOM      8  H   UNL     1      43.660   5.703   9.217  0.00  0.00    +0.000 HD
ENDROOT
BRANCH   1  10
ATOM      9  N   UNL     1      46.748  -0.242   7.625  0.00  0.00    +0.000 N 
ATOM     10  C   UNL     1      47.102   1.030   7.262  0.00  0.00    +0.000 C 
ATOM     11  O   UNL     1      47.970   1.233   6.424  0.00  0.00    +0.000 OA
ATOM     12  H   UNL     1      47.181  -0.995   7.106  0.00  0.00    +0.000 HD
ATOM     13  H   UNL     1      45.870  -0.443   8.089  0.00  0.00    +0.000 HD
ENDBRANCH   1  10
BRANCH   5  14
ATOM     14  C   UNL     1      43.877   5.199  11.272  0.00  0.00    +0.000 C 
ATOM     15  C   UNL     1      42.943   4.222  11.973  0.00  0.00    +0.000 C 
ATOM     16  C   UNL     1      42.456   5.592  11.642  0.00  0.00    +0.000 C 
BRANCH  14  17
ATOM     17  C   UNL     1      45.026   5.683  12.150  0.00  0.00    +0.000 A 
ATOM     18  C   UNL     1      45.217   7.062  12.363  0.00  0.00    +0.000 A 
ATOM     19  C   UNL     1      46.375   7.549  12.970  0.00  0.00    +0.000 A 
ATOM     20  C   UNL     1      47.358   6.664  13.403  0.00  0.00    +0.000 A 
ATOM     21  C   UNL     1      47.149   5.291  13.291  0.00  0.00    +0.000 A 
ATOM     22  C   UNL     1      45.987   4.816  12.689  0.00  0.00    +0.000 A 
ATOM     23  F   UNL     1      45.821   3.488  12.587  0.00  0.00    +0.000 F 
ENDBRANCH  14  17
ENDBRANCH   5  14
TORSDOF 3
ENDMDL
MODEL 2
REMARK VINA RESULT:    -7.077      3.254      6.342
REMARK INTER + INTRA:          -8.516
REMARK INTER:                  -8.287
REMARK INTRA:                  -0.228
REMARK UNBOUND:                -0.197
REMARK  Name = 
REMARK  3 active torsions:
REMARK  status: ('A' for Active; 'I' for Inactive)
REMARK    1  A    between atoms: C_2  and  C_4
REMARK    2  A    between atoms: N_8  and  C_9
REMARK    3  A    between atoms: C_9  and  C_10
REMARK                            x       y       z     vdW  Elec       q    Type
REMARK                         _______ _______ _______ _____ _____    ______ ____
ROOT
ATOM      1  C   UNL     1      46.972   7.534  13.363  0.00  0.00    +0.000 A 
ATOM      2  C   UNL     1      47.786   6.412  13.468  0.00  0.00    +0.000 A 
ATOM      3  C   UNL     1      47.265   5.162  13.132  0.00  0.00    +0.000 A 
ATOM      4  C   UNL     1      45.951   5.048  12.675  0.00  0.00    +0.000 A 
ATOM      5  N   UNL     1      45.508   3.771  12.287  0.00  0.00    +0.000 N 
ATOM      6  N   UNL     1      45.157   6.135  12.582  0.00  0.00    +0.000 NA
ATOM      7  C   UNL     1      45.665   7.343  12.946  0.00  0.00    +0.000 A 
ATOM      8  H   UNL     1      45.651   3.078  13.014  0.00  0.00    +0.000 HD
ENDROOT
BRANCH   1  10
ATOM      9  N   UNL     1      47.527   9.230  15.008  0.00  0.00    +0.000 N 
ATOM     10  C   UNL     1      47.436   8.898  13.683  0.00  0.00    +0.000 C 
ATOM     11  O   UNL     1      47.773   9.682  12.806  0.00  0.00    +0.000 OA
ATOM     12  H   UNL     1      47.963  10.118  15.221  0.00  0.00    +0.000 HD
ATOM     13  H   UNL     1      47.525   8.527  15.739  0.00  0.00    +0.000 HD
ENDBRANCH   1  10
BRANCH   5  14
ATOM     14  C   UNL     1      44.460   3.483  11.298  0.00  0.00    +0.000 C 
ATOM     15  C   UNL     1      43.027   3.993  11.355  0.00  0.00    +0.000 C 
ATOM     16  C   UNL     1      43.314   2.572  11.709  0.00  0.00    +0.000 C 
BRANCH  14  17
ATOM     17  C   UNL     1      45.014   3.374   9.881  0.00  0.00    +0.000 A 
ATOM     18  C   UNL     1      45.180   2.109   9.286  0.00  0.00    +0.000 A 
ATOM     19  C   UNL     1      45.885   1.955   8.091  0.00  0.00    +0.000 A 
ATOM     20  C   UNL     1      46.416   3.071   7.450  0.00  0.00    +0.000 A 
ATOM     21  C   UNL     1      46.182   4.342   7.968  0.00  0.00    +0.000 A 
ATOM     22  C   UNL     1      45.472   4.483   9.158  0.00  0.00    +0.000 A 
ATOM     23  F   UNL     1      45.273   5.722   9.636  0.00  0.00    +0.000 F 
ENDBRANCH  14  17
ENDBRANCH   5  14
TORSDOF 3
ENDMDL
MODEL 3
REMARK VINA RESULT:    -7.001      3.595      6.203
REMARK INTER + INTRA:          -8.426
REMARK INTER:                  -8.113
REMARK INTRA:                  -0.313
REMARK UNBOUND:                -0.197
REMARK  Name = 
REMARK  3 active torsions:
REMARK  status: ('A' for Active; 'I' for Inactive)
REMARK    1  A    between atoms: C_2  and  C_4
REMARK    2  A    between atoms: N_8  and  C_9
REMARK    3  A    between atoms: C_9  and  C_10
REMARK                            x       y       z     vdW  Elec       q    Type
REMARK                         _______ _______ _______ _____ _____    ______ ____
ROOT
ATOM      1  C   UNL     1      47.486   4.253  15.320  0.00  0.00    +0.000 A 
ATOM      2  C   UNL     1      47.513   5.579  14.903  0.00  0.00    +0.000 A 
ATOM      3  C   UNL     1      46.925   5.919  13.685  0.00  0.00    +0.000 A 
ATOM      4  C   UNL     1      46.300   4.942  12.908  0.00  0.00    +0.000 A 
ATOM      5  N   UNL     1      45.668   5.360  11.725  0.00  0.00    +0.000 N 
ATOM      6  N   UNL     1      46.283   3.653  13.307  0.00  0.00    +0.000 NA
ATOM      7  C   UNL     1      46.889   3.328  14.480  0.00  0.00    +0.000 A 
ATOM      8  H   UNL     1      46.290   5.890  11.124  0.00  0.00    +0.000 HD
ENDROOT
BRANCH   1  10
ATOM      9  N   UNL     1      47.194   3.395  17.571  0.00  0.00    +0.000 N 
ATOM     10  C   UNL     1      48.068   3.798  16.598  0.00  0.00    +0.000 C 
ATOM     11  O   UNL     1      49.278   3.737  16.765  0.00  0.00    +0.000 OA
ATOM     12  H   UNL     1      47.601   2.968  18.394  0.00  0.00    +0.000 HD
ATOM     13  H   UNL     1      46.226   3.174  17.366  0.00  0.00    +0.000 HD
ENDBRANCH   1  10
BRANCH   5  14
ATOM     14  C   UNL     1      44.527   4.701  11.075  0.00  0.00    +0.000 C 
ATOM     15  C   UNL     1      43.116   5.266  10.981  0.00  0.00    +0.000 C 
ATOM     16  C   UNL     1      43.405   4.172  11.953  0.00  0.00    +0.000 C 
BRANCH  14  17
ATOM     17  C   UNL     1      44.945   3.893   9.850  0.00  0.00    +0.000 A 
ATOM     18  C   UNL     1      44.681   2.511   9.796  0.00  0.00    +0.000 A 
ATOM     19  C   UNL     1      45.239   1.704   8.803  0.00  0.00    +0.000 A 
ATOM     20  C   UNL     1      46.055   2.269   7.826  0.00  0.00    +0.000 A 
ATOM     21  C   UNL     1      46.252   3.647   7.803  0.00  0.00    +0.000 A 
ATOM     22  C   UNL     1      45.684   4.443   8.795  0.00  0.00    +0.000 A 
ATOM     23  F   UNL     1      45.903   5.767   8.750  0.00  0.00    +0.000 F 
ENDBRANCH  14  17
ENDBRANCH   5  14
TORSDOF 3
ENDMDL
MODEL 4
REMARK VINA RESULT:    -6.631      3.425      5.967
REMARK INTER + INTRA:          -7.991
REMARK INTER:                  -7.754
REMARK INTRA:                  -0.237
REMARK UNBOUND:                -0.197
REMARK  Name = 
REMARK  3 active torsions:
REMARK  status: ('A' for Active; 'I' for Inactive)
REMARK    1  A    between atoms: C_2  and  C_4
REMARK    2  A    between atoms: N_8  and  C_9
REMARK    3  A    between atoms: C_9  and  C_10
REMARK                            x       y       z     vdW  Elec       q    Type
REMARK                         _______ _______ _______ _____ _____    ______ ____
ROOT
ATOM      1  C   UNL     1      48.332   6.746  13.577  0.00  0.00    +0.000 A 
ATOM      2  C   UNL     1      47.941   5.602  14.263  0.00  0.00    +0.000 A 
ATOM      3  C   UNL     1      46.674   5.068  14.026  0.00  0.00    +0.000 A 
ATOM      4  C   UNL     1      45.822   5.666  13.094  0.00  0.00    +0.000 A 
ATOM      5  N   UNL     1      44.588   5.041  12.851  0.00  0.00    +0.000 N 
ATOM      6  N   UNL     1      46.198   6.783  12.436  0.00  0.00    +0.000 NA
ATOM      7  C   UNL     1      47.421   7.313  12.702  0.00  0.00    +0.000 A 
ATOM      8  H   UNL     1      44.061   4.884  13.704  0.00  0.00    +0.000 HD
ENDROOT
BRANCH   1  10
ATOM      9  N   UNL     1      50.386   7.611  12.617  0.00  0.00    +0.000 N 
ATOM     10  C   UNL     1      49.656   7.376  13.751  0.00  0.00    +0.000 C 
ATOM     11  O   UNL     1      50.062   7.720  14.852  0.00  0.00    +0.000 OA
ATOM     12  H   UNL     1      51.233   8.154  12.732  0.00  0.00    +0.000 HD
ATOM     13  H   UNL     1      49.967   7.595  11.695  0.00  0.00    +0.000 HD
ENDBRANCH   1  10
BRANCH   5  14
ATOM     14  C   UNL     1      43.814   5.112  11.604  0.00  0.00    +0.000 C 
ATOM     15  C   UNL     1      43.059   6.334  11.099  0.00  0.00    +0.000 C 
ATOM     16  C   UNL     1      42.299   5.199  11.699  0.00  0.00    +0.000 C 
BRANCH  14  17
ATOM     17  C   UNL     1      44.433   4.273  10.489  0.00  0.00    +0.000 A 
ATOM     18  C   UNL     1      45.270   4.881   9.534  0.00  0.00    +0.000 A 
ATOM     19  C   UNL     1      45.671   4.201   8.383  0.00  0.00    +0.000 A 
ATOM     20  C   UNL     1      45.265   2.885   8.177  0.00  0.00    +0.000 A 
ATOM     21  C   UNL     1      44.517   2.232   9.153  0.00  0.00    +0.000 A 
ATOM     22  C   UNL     1      44.128   2.919  10.300  0.00  0.00    +0.000 A 
ATOM     23  F   UNL     1      43.399   2.264  11.218  0.00  0.00    +0.000 F 
ENDBRANCH  14  17
ENDBRANCH   5  14
TORSDOF 3
ENDMDL
MODEL 5
REMARK VINA RESULT:    -6.201      1.775      2.325
REMARK INTER + INTRA:          -7.486
REMARK INTER:                  -7.572
REMARK INTRA:                   0.086
REMARK UNBOUND:                -0.197
REMARK  Name = 
REMARK  3 active torsions:
REMARK  status: ('A' for Active; 'I' for Inactive)
REMARK    1  A    between atoms: C_2  and  C_4
REMARK    2  A    between atoms: N_8  and  C_9
REMARK    3  A    between atoms: C_9  and  C_10
REMARK                            x       y       z     vdW  Elec       q    Type
REMARK                         _______ _______ _______ _____ _____    ______ ____
ROOT
ATOM      1  C   UNL     1      46.130   3.203   7.640  0.00  0.00    +0.000 A 
ATOM      2  C   UNL     1      45.599   2.139   8.362  0.00  0.00    +0.000 A 
ATOM      3  C   UNL     1      45.120   2.368   9.652  0.00  0.00    +0.000 A 
ATOM      4  C   UNL     1      45.156   3.652  10.199  0.00  0.00    +0.000 A 
ATOM      5  N   UNL     1      44.596   3.829  11.476  0.00  0.00    +0.000 N 
ATOM      6  N   UNL     1      45.681   4.682   9.503  0.00  0.00    +0.000 NA
ATOM      7  C   UNL     1      46.176   4.440   8.259  0.00  0.00    +0.000 A 
ATOM      8  H   UNL     1      44.984   3.185  12.157  0.00  0.00    +0.000 HD
ENDROOT
BRANCH   1  10
ATOM      9  N   UNL     1      47.086   1.823   5.888  0.00  0.00    +0.000 N 
ATOM     10  C   UNL     1      46.648   3.063   6.265  0.00  0.00    +0.000 C 
ATOM     11  O   UNL     1      46.640   4.001   5.479  0.00  0.00    +0.000 OA
ATOM     12  H   UNL     1      47.321   1.706   4.910  0.00  0.00    +0.000 HD
ATOM     13  H   UNL     1      46.849   0.987   6.411  0.00  0.00    +0.000 HD
ENDBRANCH   1  10
BRANCH   5  14
ATOM     14  C   UNL     1      44.014   5.072  12.000  0.00  0.00    +0.000 C 
ATOM     15  C   UNL     1      42.806   5.163  12.922  0.00  0.00    +0.000 C 
ATOM     16  C   UNL     1      42.653   5.506  11.479  0.00  0.00    +0.000 C 
BRANCH  14  17
ATOM     17  C   UNL     1      45.071   6.138  12.270  0.00  0.00    +0.000 A 
ATOM     18  C   UNL     1      46.218   5.817  13.022  0.00  0.00    +0.000 A 
ATOM     19  C   UNL     1      47.090   6.808  13.476  0.00  0.00    +0.000 A 
ATOM     20  C   UNL     1      46.847   8.143  13.163  0.00  0.00    +0.000 A 
ATOM     21  C   UNL     1      45.773   8.475  12.341  0.00  0.00    +0.000 A 
ATOM     22  C   UNL     1      44.914   7.477  11.889  0.00  0.00    +0.000 A 
ATOM     23  F   UNL     1      43.883   7.832  11.107  0.00  0.00    +0.000 F 
ENDBRANCH  14  17
ENDBRANCH   5  14
TORSDOF 3
ENDMDL
MODEL 6
REMARK VINA RESULT:    -5.871      4.996      7.069
REMARK INTER + INTRA:          -7.098
REMARK INTER:                  -6.976
REMARK INTRA:                  -0.122
REMARK UNBOUND:                -0.197
REMARK  Name = 
REMARK  3 active torsions:
REMARK  status: ('A' for Active; 'I' for Inactive)
REMARK    1  A    between atoms: C_2  and  C_4
REMARK    2  A    between atoms: N_8  and  C_9
REMARK    3  A    between atoms: C_9  and  C_10
REMARK                            x       y       z     vdW  Elec       q    Type
REMARK                         _______ _______ _______ _____ _____    ______ ____
ROOT
ATOM      1  C   UNL     1      46.331   5.922  12.638  0.00  0.00    +0.000 A 
ATOM      2  C   UNL     1      45.917   4.604  12.484  0.00  0.00    +0.000 A 
ATOM      3  C   UNL     1      46.377   3.640  13.383  0.00  0.00    +0.000 A 
ATOM      4  C   UNL     1      47.223   4.004  14.433  0.00  0.00    +0.000 A 
ATOM      5  N   UNL     1      47.595   3.000  15.343  0.00  0.00    +0.000 N 
ATOM      6  N   UNL     1      47.632   5.281  14.575  0.00  0.00    +0.000 NA
ATOM      7  C   UNL     1      47.205   6.205  13.673  0.00  0.00    +0.000 A 
ATOM      8  H   UNL     1      47.997   2.192  14.880  0.00  0.00    +0.000 HD
ENDROOT
BRANCH   1  10
ATOM      9  N   UNL     1      45.174   6.657  10.635  0.00  0.00    +0.000 N 
ATOM     10  C   UNL     1      45.888   7.013  11.747  0.00  0.00    +0.000 C 
ATOM     11  O   UNL     1      46.106   8.187  12.015  0.00  0.00    +0.000 OA
ATOM     12  H   UNL     1      44.768   7.414  10.100  0.00  0.00    +0.000 HD
ATOM     13  H   UNL     1      44.748   5.742  10.540  0.00  0.00    +0.000 HD
ENDBRANCH   1  10
BRANCH   5  14
ATOM     14  C   UNL     1      47.962   3.202  16.751  0.00  0.00    +0.000 C 
ATOM     15  C   UNL     1      47.133   2.769  17.952  0.00  0.00    +0.000 C 
ATOM     16  C   UNL     1      47.166   4.210  17.565  0.00  0.00    +0.000 C 
BRANCH  14  17
ATOM     17  C   UNL     1      49.467   3.099  16.978  0.00  0.00    +0.000 A 
ATOM     18  C   UNL     1      50.094   1.838  16.979  0.00  0.00    +0.000 A 
ATOM     19  C   UNL     1      51.415   1.684  17.400  0.00  0.00    +0.000 A 
ATOM     20  C   UNL     1      52.149   2.796  17.805  0.00  0.00    +0.000 A 
ATOM     21  C   UNL     1      51.582   4.065  17.722  0.00  0.00    +0.000 A 
ATOM     22  C   UNL     1      50.265   4.207  17.294  0.00  0.00    +0.000 A 
ATOM     23  F   UNL     1      49.745   5.443  17.235  0.00  0.00    +0.000 F 
ENDBRANCH  14  17
ENDBRANCH   5  14
TORSDOF 3
ENDMDL
