MODEL 1
REMARK VINA RESULT:    -8.662      0.000      0.000
REMARK INTER + INTRA:         -11.825
REMARK INTER:                 -11.193
REMARK INTRA:                  -0.631
REMARK UNBOUND:                -0.631
REMARK  Name = 
REMARK  5 active torsions:
REMARK  status: ('A' for Active; 'I' for Inactive)
REMARK    1  A    between atoms: C_2  and  C_18
REMARK    2  A    between atoms: N_3  and  C_4
REMARK    3  A    between atoms: C_4  and  C_5
REMARK    4  A    between atoms: N_9  and  C_10
REMARK    5  A    between atoms: C_10  and  C_11
REMARK                            x       y       z     vdW  Elec       q    Type
REMARK                         _______ _______ _______ _____ _____    ______ ____
ROOT
ATOM      1  C   UNL     1      46.342   6.878  12.698  0.00  0.00    +0.000 C 
ENDROOT
BRANCH   1   2
ATOM      2  C   UNL     1      45.808   5.639  12.045  0.00  0.00    +0.000 A 
ATOM      3  C   UNL     1      45.634   4.447  12.745  0.00  0.00    +0.000 A 
ATOM      4  C   UNL     1      45.162   3.317  12.076  0.00  0.00    +0.000 A 
ATOM      5  C   UNL     1      44.912   3.381  10.708  0.00  0.00    +0.000 A 
ATOM      6  N   UNL     1      44.459   2.222  10.047  0.00  0.00    +0.000 N 
ATOM      7  N   UNL     1      45.027   4.542  10.031  0.00  0.00    +0.000 NA
ATOM      8  C   UNL     1      45.447   5.639  10.706  0.00  0.00    +0.000 A 
ATOM      9  H   UNL     1      44.845   1.400  10.503  0.00  0.00    +0.000 HD
BRANCH   6  10
ATOM     10  C   UNL     1      44.765   2.234   8.613  0.00  0.00    +0.000 C 
BRANCH  10  11
ATOM     11  C   UNL     1      46.273   2.153   8.319  0.00  0.00    +0.000 C 
ATOM     12  C   UNL     1      46.759   3.198   7.323  0.00  0.00    +0.000 C 
ATOM     13  C   UNL     1      46.788   2.454   6.005  0.00  0.00    +0.000 C 
ATOM     14  N   UNL     1      47.224   1.096   6.353  0.00  0.00    +0.000 NA
ATOM     15  C   UNL     1      46.718   0.822   7.709  0.00  0.00    +0.000 C 
ATOM     16  H   UNL     1      48.244   1.089   6.384  0.00  0.00    +0.000 HD
ENDBRANCH  10  11
ENDBRANCH   6  10
ENDBRANCH   1   2
BRANCH   1  19
ATOM     17  O   UNL     1      49.034   6.528  13.414  0.00  0.00    +0.000 OA
ATOM     18  C   UNL     1      48.179   6.485  14.294  0.00  0.00    +0.000 C 
ATOM     19  N   UNL     1      46.842   6.610  14.019  0.00  0.00    +0.000 N 
ATOM     20  H   UNL     1      46.186   6.731  14.782  0.00  0.00    +0.000 HD
BRANCH  18  21
ATOM     21  C   UNL     1      48.534   6.239  15.698  0.00  0.00    +0.000 A 
ATOM     22  C   UNL     1      49.134   7.246  16.442  0.00  0.00    +0.000 A 
ATOM     23  S   UNL     1      49.500   6.789  18.044  0.00  0.00    +0.000 S 
ATOM     24  C   UNL     1      48.828   5.244  17.813  0.00  0.00    +0.000 A 
ATOM     25  N   UNL     1      48.793   4.341  18.829  0.00  0.00    +0.000 NA
ATOM     26  C   UNL     1      48.216   3.224  18.532  0.00  0.00    +0.000 A 
ATOM     27  N   UNL     1      47.682   2.925  17.305  0.00  0.00    +0.000 N 
ATOM     28  C   UNL     1      47.764   3.774  16.229  0.00  0.00    +0.000 A 
ATOM     29  O   UNL     1      47.395   3.420  15.112  0.00  0.00    +0.000 OA
ATOM     30  C   UNL     1      48.358   5.066  16.524  0.00  0.00    +0.000 A 
ATOM     31  H   UNL     1      47.270   2.022  17.128  0.00  0.00    +0.000 HD
ENDBRANCH  18  21
ENDBRANCH   1  19
TORSDOF 5
ENDMDL
MODEL 2
REMARK VINA RESULT:    -7.750      1.463      2.199
REMARK INTER + INTRA:         -10.646
REMARK INTER:                  -9.686
REMARK INTRA:                  -0.960
REMARK UNBOUND:                -0.631
REMARK  Name = 
REMARK  5 active torsions:
REMARK  status: ('A' for Active; 'I' for Inactive)
REMARK    1  A    between atoms: C_2  and  C_18
REMARK    2  A    between atoms: N_3  and  C_4
REMARK    3  A    between atoms: C_4  and  C_5
REMARK    4  A    between atoms: N_9  and  C_10
REMARK    5  A    between atoms: C_10  and  C_11
REMARK                            x       y       z     vdW  Elec       q    Type
REMARK                         _______ _______ _______ _____ _____    ______ ____
ROOT
ATOM      1  C   UNL     1      47.490   8.476  13.801  0.00  0.00    +0.000 C 
ENDROOT
BRANCH   1   2
ATOM      2  C   UNL     1      46.622   7.753  12.818  0.00  0.00    +0.000 A 
ATOM      3  C   UNL     1      45.345   8.202  12.485  0.00  0.00    +0.000 A 
ATOM      4  C   UNL     1      44.569   7.468  11.586  0.00  0.00    +0.000 A 
ATOM      5  C   UNL     1      45.062   6.274  11.066  0.00  0.00    +0.000 A 
ATOM      6  N   UNL     1      44.252   5.537  10.179  0.00  0.00    +0.000 N 
ATOM      7  N   UNL     1      46.315   5.857  11.341  0.00  0.00    +0.000 NA
ATOM      8  C   UNL     1      47.068   6.603  12.184  0.00  0.00    +0.000 A 
ATOM      9  H   UNL     1      43.275   5.678  10.416  0.00  0.00    +0.000 HD
BRANCH   6  10
ATOM     10  C   UNL     1      44.599   4.113  10.151  0.00  0.00    +0.000 C 
BRANCH  10  11
ATOM     11  C   UNL     1      44.550   3.510   8.736  0.00  0.00    +0.000 C 
ATOM     12  C   UNL     1      44.582   1.987   8.718  0.00  0.00    +0.000 C 
ATOM     13  C   UNL     1      46.037   1.661   8.460  0.00  0.00    +0.000 C 
ATOM     14  N   UNL     1      46.493   2.702   7.529  0.00  0.00    +0.000 NA
ATOM     15  C   UNL     1      45.724   3.917   7.844  0.00  0.00    +0.000 C 
ATOM     16  H   UNL     1      46.254   2.407   6.582  0.00  0.00    +0.000 HD
ENDBRANCH  10  11
ENDBRANCH   6  10
ENDBRANCH   1   2
BRANCH   1  19
ATOM     17  O   UNL     1      49.919   7.124  14.192  0.00  0.00    +0.000 OA
ATOM     18  C   UNL     1      49.054   7.044  15.059  0.00  0.00    +0.000 C 
ATOM     19  N   UNL     1      47.830   7.645  14.925  0.00  0.00    +0.000 N 
ATOM     20  H   UNL     1      47.207   7.692  15.724  0.00  0.00    +0.000 HD
BRANCH  18  21
ATOM     21  C   UNL     1      49.258   6.248  16.277  0.00  0.00    +0.000 A 
ATOM     22  C   UNL     1      50.235   6.624  17.189  0.00  0.00    +0.000 A 
ATOM     23  S   UNL     1      50.354   5.582  18.533  0.00  0.00    +0.000 S 
ATOM     24  C   UNL     1      49.075   4.616  17.966  0.00  0.00    +0.000 A 
ATOM     25  N   UNL     1      48.642   3.543  18.681  0.00  0.00    +0.000 NA
ATOM     26  C   UNL     1      47.635   2.925  18.159  0.00  0.00    +0.000 A 
ATOM     27  N   UNL     1      47.031   3.275  16.979  0.00  0.00    +0.000 N 
ATOM     28  C   UNL     1      47.482   4.301  16.186  0.00  0.00    +0.000 A 
ATOM     29  O   UNL     1      47.001   4.502  15.074  0.00  0.00    +0.000 OA
ATOM     30  C   UNL     1      48.581   5.063  16.753  0.00  0.00    +0.000 A 
ATOM     31  H   UNL     1      46.265   2.732  16.610  0.00  0.00    +0.000 HD
ENDBRANCH  18  21
ENDBRANCH   1  19
TORSDOF 5
ENDMDL
MODEL 3
REMARK VINA RESULT:    -7.696      2.389      3.592
REMARK INTER + INTRA:         -10.577
REMARK INTER:                  -9.546
REMARK INTRA:                  -1.031
REMARK UNBOUND:                -0.631
REMARK  Name = 
REMARK  5 active torsions:
REMARK  status: ('A' for Active; 'I' for Inactive)
REMARK    1  A    between atoms: C_2  and  C_18
REMARK    2  A    between atoms: N_3  and  C_4
REMARK    3  A    between atoms: C_4  and  C_5
REMARK    4  A    between atoms: N_9  and  C_10
REMARK    5  A    between atoms: C_10  and  C_11
REMARK                            x       y       z     vdW  Elec       q    Type
REMARK                         _______ _______ _______ _____ _____    ______ ____
ROOT
ATOM      1  C   UNL     1      44.166   5.719  13.243  0.00  0.00    +0.000 C 
ENDROOT
BRANCH   1   2
ATOM      2  C   UNL     1      44.131   4.817  12.047  0.00  0.00    +0.000 A 
ATOM      3  C   UNL     1      43.936   3.442  12.161  0.00  0.00    +0.000 A 
ATOM      4  C   UNL     1      43.945   2.648  11.013  0.00  0.00    +0.000 A 
ATOM      5  C   UNL     1      44.193   3.232   9.773  0.00  0.00    +0.000 A 
ATOM      6  N   UNL     1      44.222   2.407   8.631  0.00  0.00    +0.000 N 
ATOM      7  N   UNL     1      44.332   4.567   9.646  0.00  0.00    +0.000 NA
ATOM      8  C   UNL     1      44.280   5.327  10.766  0.00  0.00    +0.000 A 
ATOM      9  H   UNL     1      44.560   1.484   8.887  0.00  0.00    +0.000 HD
BRANCH   6  10
ATOM     10  C   UNL     1      45.012   2.985   7.539  0.00  0.00    +0.000 C 
BRANCH  10  11
ATOM     11  C   UNL     1      46.524   2.749   7.701  0.00  0.00    +0.000 C 
ATOM     12  C   UNL     1      47.374   3.528   6.705  0.00  0.00    +0.000 C 
ATOM     13  C   UNL     1      47.660   2.522   5.611  0.00  0.00    +0.000 C 
ATOM     14  N   UNL     1      47.826   1.243   6.314  0.00  0.00    +0.000 NA
ATOM     15  C   UNL     1      46.953   1.295   7.499  0.00  0.00    +0.000 C 
ATOM     16  H   UNL     1      48.794   1.179   6.631  0.00  0.00    +0.000 HD
ENDBRANCH  10  11
ENDBRANCH   6  10
ENDBRANCH   1   2
BRANCH   1  19
ATOM     17  O   UNL     1      46.313   4.399  14.479  0.00  0.00    +0.000 OA
ATOM     18  C   UNL     1      46.489   5.536  14.049  0.00  0.00    +0.000 C 
ATOM     19  N   UNL     1      45.481   6.259  13.466  0.00  0.00    +0.000 N 
ATOM     20  H   UNL     1      45.702   7.121  12.982  0.00  0.00    +0.000 HD
BRANCH  18  21
ATOM     21  C   UNL     1      47.783   6.216  14.183  0.00  0.00    +0.000 A 
ATOM     22  C   UNL     1      48.450   6.192  15.401  0.00  0.00    +0.000 A 
ATOM     23  S   UNL     1      49.925   7.047  15.391  0.00  0.00    +0.000 S 
ATOM     24  C   UNL     1      49.747   7.444  13.747  0.00  0.00    +0.000 A 
ATOM     25  N   UNL     1      50.701   8.160  13.096  0.00  0.00    +0.000 NA
ATOM     26  C   UNL     1      50.462   8.352  11.841  0.00  0.00    +0.000 A 
ATOM     27  N   UNL     1      49.346   7.904  11.183  0.00  0.00    +0.000 N 
ATOM     28  C   UNL     1      48.321   7.245  11.815  0.00  0.00    +0.000 A 
ATOM     29  O   UNL     1      47.279   6.976  11.224  0.00  0.00    +0.000 OA
ATOM     30  C   UNL     1      48.564   6.957  13.218  0.00  0.00    +0.000 A 
ATOM     31  H   UNL     1      49.204   8.113  10.206  0.00  0.00    +0.000 HD
ENDBRANCH  18  21
ENDBRANCH   1  19
TORSDOF 5
ENDMDL
MODEL 4
REMARK VINA RESULT:    -7.551      2.675      3.688
REMARK INTER + INTRA:         -10.390
REMARK INTER:                  -9.254
REMARK INTRA:                  -1.136
REMARK UNBOUND:                -0.631
REMARK  Name = 
REMARK  5 active torsions:
REMARK  status: ('A' for Active; 'I' for Inactive)
REMARK    1  A    between atoms: C_2  and  C_18
REMARK    2  A    between atoms: N_3  and  C_4
REMARK    3  A    between atoms: C_4  and  C_5
REMARK    4  A    between atoms: N_9  and  C_10
REMARK    5  A    between atoms: C_10  and  C_11
REMARK                            x       y       z     vdW  Elec       q    Type
REMARK                         _______ _______ _______ _____ _____    ______ ____
ROOT
ATOM      1  C   UNL     1      47.983   8.641  14.260  0.00  0.00    +0.000 C 
ENDROOT
BRANCH   1   2
ATOM      2  C   UNL     1      47.097   8.068  13.197  0.00  0.00    +0.000 A 
ATOM      3  C   UNL     1      45.910   8.686  12.807  0.00  0.00    +0.000 A 
ATOM      4  C   UNL     1      45.110   8.087  11.833  0.00  0.00    +0.000 A 
ATOM      5  C   UNL     1      45.484   6.859  11.293  0.00  0.00    +0.000 A 
ATOM      6  N   UNL     1      44.648   6.261  10.328  0.00  0.00    +0.000 N 
ATOM      7  N   UNL     1      46.654   6.278  11.625  0.00  0.00    +0.000 NA
ATOM      8  C   UNL     1      47.438   6.893  12.542  0.00  0.00    +0.000 A 
ATOM      9  H   UNL     1      43.682   6.516  10.512  0.00  0.00    +0.000 HD
BRANCH   6  10
ATOM     10  C   UNL     1      44.817   4.807  10.260  0.00  0.00    +0.000 C 
BRANCH  10  11
ATOM     11  C   UNL     1      43.674   4.036  10.944  0.00  0.00    +0.000 C 
ATOM     12  C   UNL     1      42.613   4.936  11.564  0.00  0.00    +0.000 C 
ATOM     13  C   UNL     1      43.009   5.008  13.023  0.00  0.00    +0.000 C 
ATOM     14  N   UNL     1      43.519   3.666  13.337  0.00  0.00    +0.000 NA
ATOM     15  C   UNL     1      44.129   3.146  12.102  0.00  0.00    +0.000 C 
ATOM     16  H   UNL     1      42.724   3.073  13.577  0.00  0.00    +0.000 HD
ENDBRANCH  10  11
ENDBRANCH   6  10
ENDBRANCH   1   2
BRANCH   1  19
ATOM     17  O   UNL     1      50.385   7.302  14.824  0.00  0.00    +0.000 OA
ATOM     18  C   UNL     1      49.420   7.118  15.561  0.00  0.00    +0.000 C 
ATOM     19  N   UNL     1      48.204   7.706  15.331  0.00  0.00    +0.000 N 
ATOM     20  H   UNL     1      47.485   7.660  16.044  0.00  0.00    +0.000 HD
BRANCH  18  21
ATOM     21  C   UNL     1      49.494   6.206  16.710  0.00  0.00    +0.000 A 
ATOM     22  C   UNL     1      50.361   6.489  17.758  0.00  0.00    +0.000 A 
ATOM     23  S   UNL     1      50.338   5.319  18.999  0.00  0.00    +0.000 S 
ATOM     24  C   UNL     1      49.138   4.416  18.202  0.00  0.00    +0.000 A 
ATOM     25  N   UNL     1      48.638   3.281  18.755  0.00  0.00    +0.000 NA
ATOM     26  C   UNL     1      47.700   2.718  18.067  0.00  0.00    +0.000 A 
ATOM     27  N   UNL     1      47.228   3.184  16.867  0.00  0.00    +0.000 N 
ATOM     28  C   UNL     1      47.756   4.281  16.233  0.00  0.00    +0.000 A 
ATOM     29  O   UNL     1      47.400   4.591  15.099  0.00  0.00    +0.000 OA
ATOM     30  C   UNL     1      48.778   4.981  16.990  0.00  0.00    +0.000 A 
ATOM     31  H   UNL     1      46.513   2.681  16.364  0.00  0.00    +0.000 HD
ENDBRANCH  18  21
ENDBRANCH   1  19
TORSDOF 5
ENDMDL
MODEL 5
REMARK VINA RESULT:    -7.520      3.264      8.042
REMARK INTER + INTRA:         -10.350
REMARK INTER:                  -9.379
REMARK INTRA:                  -0.971
REMARK UNBOUND:                -0.631
REMARK  Name = 
REMARK  5 active torsions:
REMARK  status: ('A' for Active; 'I' for Inactive)
REMARK    1  A    between atoms: C_2  and  C_18
REMARK    2  A    between atoms: N_3  and  C_4
REMARK    3  A    between atoms: C_4  and  C_5
REMARK    4  A    between atoms: N_9  and  C_10
REMARK    5  A    between atoms: C_10  and  C_11
REMARK                            x       y       z     vdW  Elec       q    Type
REMARK                         _______ _______ _______ _____ _____    ______ ____
ROOT
ATOM      1  C   UNL     1      48.237   8.020  12.178  0.00  0.00    +0.000 C 
ENDROOT
BRANCH   1   2
ATOM      2  C   UNL     1      48.661   7.732  13.586  0.00  0.00    +0.000 A 
ATOM      3  C   UNL     1      49.346   8.666  14.360  0.00  0.00    +0.000 A 
ATOM      4  C   UNL     1      49.744   8.329  15.655  0.00  0.00    +0.000 A 
ATOM      5  C   UNL     1      49.490   7.049  16.142  0.00  0.00    +0.000 A 
ATOM      6  N   UNL     1      49.922   6.722  17.443  0.00  0.00    +0.000 N 
ATOM      7  N   UNL     1      48.784   6.155  15.421  0.00  0.00    +0.000 NA
ATOM      8  C   UNL     1      48.371   6.513  14.182  0.00  0.00    +0.000 A 
ATOM      9  H   UNL     1      50.768   7.241  17.660  0.00  0.00    +0.000 HD
BRANCH   6  10
ATOM     10  C   UNL     1      50.114   5.281  17.628  0.00  0.00    +0.000 C 
BRANCH  10  11
ATOM     11  C   UNL     1      49.079   4.652  18.577  0.00  0.00    +0.000 C 
ATOM     12  C   UNL     1      48.435   3.385  18.028  0.00  0.00    +0.000 C 
ATOM     13  C   UNL     1      47.128   3.871  17.441  0.00  0.00    +0.000 C 
ATOM     14  N   UNL     1      46.679   4.930  18.354  0.00  0.00    +0.000 NA
ATOM     15  C   UNL     1      47.892   5.564  18.897  0.00  0.00    +0.000 C 
ATOM     16  H   UNL     1      46.175   4.491  19.125  0.00  0.00    +0.000 HD
ENDBRANCH  10  11
ENDBRANCH   6  10
ENDBRANCH   1   2
BRANCH   1  19
ATOM     17  O   UNL     1      45.458   7.868  11.811  0.00  0.00    +0.000 OA
ATOM     18  C   UNL     1      46.156   6.934  11.426  0.00  0.00    +0.000 C 
ATOM     19  N   UNL     1      47.515   6.917  11.603  0.00  0.00    +0.000 N 
ATOM     20  H   UNL     1      48.070   6.211  11.132  0.00  0.00    +0.000 HD
BRANCH  18  21
ATOM     21  C   UNL     1      45.567   5.743  10.800  0.00  0.00    +0.000 A 
ATOM     22  C   UNL     1      45.772   5.504   9.447  0.00  0.00    +0.000 A 
ATOM     23  S   UNL     1      45.003   4.094   8.876  0.00  0.00    +0.000 S 
ATOM     24  C   UNL     1      44.405   3.727  10.425  0.00  0.00    +0.000 A 
ATOM     25  N   UNL     1      43.671   2.604  10.641  0.00  0.00    +0.000 NA
ATOM     26  C   UNL     1      43.319   2.423  11.870  0.00  0.00    +0.000 A 
ATOM     27  N   UNL     1      43.625   3.272  12.902  0.00  0.00    +0.000 N 
ATOM     28  C   UNL     1      44.297   4.455  12.719  0.00  0.00    +0.000 A 
ATOM     29  O   UNL     1      44.437   5.255  13.641  0.00  0.00    +0.000 OA
ATOM     30  C   UNL     1      44.761   4.682  11.362  0.00  0.00    +0.000 A 
ATOM     31  H   UNL     1      43.295   3.089  13.837  0.00  0.00    +0.000 HD
ENDBRANCH  18  21
ENDBRANCH   1  19
TORSDOF 5
ENDMDL
MODEL 6
REMARK VINA RESULT:    -7.502      3.566      4.441
REMARK INTER + INTRA:         -10.325
REMARK INTER:                  -9.634
REMARK INTRA:                  -0.691
REMARK UNBOUND:                -0.631
REMARK  Name = 
REMARK  5 active torsions:
REMARK  status: ('A' for Active; 'I' for Inactive)
REMARK    1  A    between atoms: C_2  and  C_18
REMARK    2  A    between atoms: N_3  and  C_4
REMARK    3  A    between atoms: C_4  and  C_5
REMARK    4  A    between atoms: N_9  and  C_10
REMARK    5  A    between atoms: C_10  and  C_11
REMARK                            x       y       z     vdW  Elec       q    Type
REMARK                         _______ _______ _______ _____ _____    ______ ____
ROOT
ATOM      1  C   UNL     1      45.228   6.469  12.920  0.00  0.00    +0.000 C 
ENDROOT
BRANCH   1   2
ATOM      2  C   UNL     1      45.009   5.267  12.054  0.00  0.00    +0.000 A 
ATOM      3  C   UNL     1      45.024   3.971  12.567  0.00  0.00    +0.000 A 
ATOM      4  C   UNL     1      44.846   2.887  11.705  0.00  0.00    +0.000 A 
ATOM      5  C   UNL     1      44.700   3.111  10.338  0.00  0.00    +0.000 A 
ATOM      6  N   UNL     1      44.546   2.001   9.484  0.00  0.00    +0.000 N 
ATOM      7  N   UNL     1      44.633   4.361   9.839  0.00  0.00    +0.000 NA
ATOM      8  C   UNL     1      44.767   5.402  10.695  0.00  0.00    +0.000 A 
ATOM      9  H   UNL     1      45.051   1.206   9.866  0.00  0.00    +0.000 HD
BRANCH   6  10
ATOM     10  C   UNL     1      44.958   2.288   8.107  0.00  0.00    +0.000 C 
BRANCH  10  11
ATOM     11  C   UNL     1      46.483   2.416   7.950  0.00  0.00    +0.000 C 
ATOM     12  C   UNL     1      46.908   3.461   6.927  0.00  0.00    +0.000 C 
ATOM     13  C   UNL     1      47.169   2.653   5.674  0.00  0.00    +0.000 C 
ATOM     14  N   UNL     1      47.761   1.398   6.156  0.00  0.00    +0.000 NA
ATOM     15  C   UNL     1      47.172   1.134   7.479  0.00  0.00    +0.000 C 
ATOM     16  H   UNL     1      48.763   1.546   6.275  0.00  0.00    +0.000 HD
ENDBRANCH  10  11
ENDBRANCH   6  10
ENDBRANCH   1   2
BRANCH   1  19
ATOM     17  O   UNL     1      45.463   9.264  13.044  0.00  0.00    +0.000 OA
ATOM     18  C   UNL     1      46.405   8.612  12.603  0.00  0.00    +0.000 C 
ATOM     19  N   UNL     1      46.353   7.249  12.477  0.00  0.00    +0.000 N 
ATOM     20  H   UNL     1      47.200   6.735  12.262  0.00  0.00    +0.000 HD
BRANCH  18  21
ATOM     21  C   UNL     1      47.633   9.263  12.127  0.00  0.00    +0.000 A 
ATOM     22  C   UNL     1      47.556  10.492  11.485  0.00  0.00    +0.000 A 
ATOM     23  S   UNL     1      49.068  11.095  10.978  0.00  0.00    +0.000 S 
ATOM     24  C   UNL     1      49.884   9.757  11.637  0.00  0.00    +0.000 A 
ATOM     25  N   UNL     1      51.238   9.665  11.571  0.00  0.00    +0.000 NA
ATOM     26  C   UNL     1      51.733   8.622  12.150  0.00  0.00    +0.000 A 
ATOM     27  N   UNL     1      50.991   7.655  12.779  0.00  0.00    +0.000 N 
ATOM     28  C   UNL     1      49.619   7.666  12.804  0.00  0.00    +0.000 A 
ATOM     29  O   UNL     1      48.985   6.717  13.259  0.00  0.00    +0.000 OA
ATOM     30  C   UNL     1      49.015   8.846  12.211  0.00  0.00    +0.000 A 
ATOM     31  H   UNL     1      51.437   6.848  13.188  0.00  0.00    +0.000 HD
ENDBRANCH  18  21
ENDBRANCH   1  19
TORSDOF 5
ENDMDL
MODEL 7
REMARK VINA RESULT:    -7.279      2.361      3.154
REMARK INTER + INTRA:         -10.038
REMARK INTER:                  -9.326
REMARK INTRA:                  -0.712
REMARK UNBOUND:                -0.631
REMARK  Name = 
REMARK  5 active torsions:
REMARK  status: ('A' for Active; 'I' for Inactive)
REMARK    1  A    between atoms: C_2  and  C_18
REMARK    2  A    between atoms: N_3  and  C_4
REMARK    3  A    between atoms: C_4  and  C_5
REMARK    4  A    between atoms: N_9  and  C_10
REMARK    5  A    between atoms: C_10  and  C_11
REMARK                            x       y       z     vdW  Elec       q    Type
REMARK                         _______ _______ _______ _____ _____    ______ ____
ROOT
ATOM      1  C   UNL     1      45.436   5.033  13.358  0.00  0.00    +0.000 C 
ENDROOT
BRANCH   1   2
ATOM      2  C   UNL     1      45.129   4.550  11.973  0.00  0.00    +0.000 A 
ATOM      3  C   UNL     1      44.316   3.444  11.736  0.00  0.00    +0.000 A 
ATOM      4  C   UNL     1      44.092   3.021  10.425  0.00  0.00    +0.000 A 
ATOM      5  C   UNL     1      44.718   3.683   9.372  0.00  0.00    +0.000 A 
ATOM      6  N   UNL     1      44.497   3.225   8.057  0.00  0.00    +0.000 N 
ATOM      7  N   UNL     1      45.465   4.786   9.585  0.00  0.00    +0.000 NA
ATOM      8  C   UNL     1      45.638   5.205  10.862  0.00  0.00    +0.000 A 
ATOM      9  H   UNL     1      44.345   2.221   8.070  0.00  0.00    +0.000 HD
BRANCH   6  10
ATOM     10  C   UNL     1      45.582   3.593   7.142  0.00  0.00    +0.000 C 
BRANCH  10  11
ATOM     11  C   UNL     1      46.138   2.394   6.355  0.00  0.00    +0.000 C 
ATOM     12  C   UNL     1      47.023   1.474   7.186  0.00  0.00    +0.000 C 
ATOM     13  C   UNL     1      48.428   1.932   6.857  0.00  0.00    +0.000 C 
ATOM     14  N   UNL     1      48.379   2.288   5.433  0.00  0.00    +0.000 NA
ATOM     15  C   UNL     1      47.018   2.783   5.166  0.00  0.00    +0.000 C 
ATOM     16  H   UNL     1      48.524   1.438   4.888  0.00  0.00    +0.000 HD
ENDBRANCH  10  11
ENDBRANCH   6  10
ENDBRANCH   1   2
BRANCH   1  19
ATOM     17  O   UNL     1      45.843   7.804  13.173  0.00  0.00    +0.000 OA
ATOM     18  C   UNL     1      46.815   7.076  13.353  0.00  0.00    +0.000 C 
ATOM     19  N   UNL     1      46.702   5.712  13.418  0.00  0.00    +0.000 N 
ATOM     20  H   UNL     1      47.495   5.160  13.727  0.00  0.00    +0.000 HD
BRANCH  18  21
ATOM     21  C   UNL     1      48.175   7.621  13.455  0.00  0.00    +0.000 A 
ATOM     22  C   UNL     1      48.602   8.579  12.545  0.00  0.00    +0.000 A 
ATOM     23  S   UNL     1      50.211   9.088  12.791  0.00  0.00    +0.000 S 
ATOM     24  C   UNL     1      50.379   8.081  14.151  0.00  0.00    +0.000 A 
ATOM     25  N   UNL     1      51.536   8.060  14.863  0.00  0.00    +0.000 NA
ATOM     26  C   UNL     1      51.514   7.285  15.897  0.00  0.00    +0.000 A 
ATOM     27  N   UNL     1      50.441   6.519  16.274  0.00  0.00    +0.000 N 
ATOM     28  C   UNL     1      49.281   6.449  15.543  0.00  0.00    +0.000 A 
ATOM     29  O   UNL     1      48.393   5.653  15.836  0.00  0.00    +0.000 OA
ATOM     30  C   UNL     1      49.235   7.342  14.398  0.00  0.00    +0.000 A 
ATOM     31  H   UNL     1      50.497   5.912  17.077  0.00  0.00    +0.000 HD
ENDBRANCH  18  21
ENDBRANCH   1  19
TORSDOF 5
ENDMDL
MODEL 8
REMARK VINA RESULT:    -7.273      3.863      8.484
REMARK INTER + INTRA:         -10.030
REMARK INTER:                  -9.070
REMARK INTRA:                  -0.960
REMARK UNBOUND:                -0.631
REMARK  Name = 
REMARK  5 active torsions:
REMARK  status: ('A' for Active; 'I' for Inactive)
REMARK    1  A    between atoms: C_2  and  C_18
REMARK    2  A    between atoms: N_3  and  C_4
REMARK    3  A    between atoms: C_4  and  C_5
REMARK    4  A    between atoms: N_9  and  C_10
REMARK    5  A    between atoms: C_10  and  C_11
REMARK                            x       y       z     vdW  Elec       q    Type
REMARK                         _______ _______ _______ _____ _____    ______ ____
ROOT
ATOM      1  C   UNL     1      47.173   3.578  16.780  0.00  0.00    +0.000 C 
ENDROOT
BRANCH   1   2
ATOM      2  C   UNL     1      48.645   3.731  17.016  0.00  0.00    +0.000 A 
ATOM      3  C   UNL     1      49.484   2.634  17.204  0.00  0.00    +0.000 A 
ATOM      4  C   UNL     1      50.842   2.840  17.451  0.00  0.00    +0.000 A 
ATOM      5  C   UNL     1      51.335   4.139  17.551  0.00  0.00    +0.000 A 
ATOM      6  N   UNL     1      52.705   4.324  17.825  0.00  0.00    +0.000 N 
ATOM      7  N   UNL     1      50.543   5.205  17.319  0.00  0.00    +0.000 NA
ATOM      8  C   UNL     1      49.236   4.985  17.040  0.00  0.00    +0.000 A 
ATOM      9  H   UNL     1      53.042   3.557  18.399  0.00  0.00    +0.000 HD
BRANCH   6  10
ATOM     10  C   UNL     1      52.985   5.623  18.444  0.00  0.00    +0.000 C 
BRANCH  10  11
ATOM     11  C   UNL     1      53.908   6.510  17.590  0.00  0.00    +0.000 C 
ATOM     12  C   UNL     1      53.238   7.781  17.085  0.00  0.00    +0.000 C 
ATOM     13  C   UNL     1      52.808   7.427  15.677  0.00  0.00    +0.000 C 
ATOM     14  N   UNL     1      53.883   6.567  15.165  0.00  0.00    +0.000 NA
ATOM     15  C   UNL     1      54.424   5.832  16.320  0.00  0.00    +0.000 C 
ATOM     16  H   UNL     1      54.620   7.168  14.794  0.00  0.00    +0.000 HD
ENDBRANCH  10  11
ENDBRANCH   6  10
ENDBRANCH   1   2
BRANCH   1  19
ATOM     17  O   UNL     1      47.211   3.156  14.005  0.00  0.00    +0.000 OA
ATOM     18  C   UNL     1      46.719   4.194  14.437  0.00  0.00    +0.000 C 
ATOM     19  N   UNL     1      46.697   4.490  15.775  0.00  0.00    +0.000 N 
ATOM     20  H   UNL     1      46.143   5.273  16.103  0.00  0.00    +0.000 HD
BRANCH  18  21
ATOM     21  C   UNL     1      46.172   5.218  13.536  0.00  0.00    +0.000 A 
ATOM     22  C   UNL     1      46.943   6.324  13.202  0.00  0.00    +0.000 A 
ATOM     23  S   UNL     1      46.151   7.423  12.167  0.00  0.00    +0.000 S 
ATOM     24  C   UNL     1      44.766   6.439  12.092  0.00  0.00    +0.000 A 
ATOM     25  N   UNL     1      43.697   6.796  11.332  0.00  0.00    +0.000 NA
ATOM     26  C   UNL     1      42.732   5.937  11.329  0.00  0.00    +0.000 A 
ATOM     27  N   UNL     1      42.735   4.759  12.030  0.00  0.00    +0.000 N 
ATOM     28  C   UNL     1      43.757   4.393  12.870  0.00  0.00    +0.000 A 
ATOM     29  O   UNL     1      43.667   3.398  13.583  0.00  0.00    +0.000 OA
ATOM     30  C   UNL     1      44.892   5.300  12.869  0.00  0.00    +0.000 A 
ATOM     31  H   UNL     1      41.936   4.144  12.008  0.00  0.00    +0.000 HD
ENDBRANCH  18  21
ENDBRANCH   1  19
TORSDOF 5
ENDMDL
MODEL 9
REMARK VINA RESULT:    -7.140      3.848      8.873
REMARK INTER + INTRA:          -9.858
REMARK INTER:                  -8.915
REMARK INTRA:                  -0.943
REMARK UNBOUND:                -0.631
REMARK  Name = 
REMARK  5 active torsions:
REMARK  status: ('A' for Active; 'I' for Inactive)
REMARK    1  A    between atoms: C_2  and  C_18
REMARK    2  A    between atoms: N_3  and  C_4
REMARK    3  A    between atoms: C_4  and  C_5
REMARK    4  A    between atoms: N_9  and  C_10
REMARK    5  A    between atoms: C_10  and  C_11
REMARK                            x       y       z     vdW  Elec       q    Type
REMARK                         _______ _______ _______ _____ _____    ______ ____
ROOT
ATOM      1  C   UNL     1      47.147   3.400  16.951  0.00  0.00    +0.000 C 
ENDROOT
BRANCH   1   2
ATOM      2  C   UNL     1      48.513   3.675  17.503  0.00  0.00    +0.000 A 
ATOM      3  C   UNL     1      48.714   4.496  18.610  0.00  0.00    +0.000 A 
ATOM      4  C   UNL     1      50.013   4.741  19.060  0.00  0.00    +0.000 A 
ATOM      5  C   UNL     1      51.094   4.197  18.370  0.00  0.00    +0.000 A 
ATOM      6  N   UNL     1      52.398   4.477  18.827  0.00  0.00    +0.000 N 
ATOM      7  N   UNL     1      50.909   3.360  17.330  0.00  0.00    +0.000 NA
ATOM      8  C   UNL     1      49.640   3.102  16.932  0.00  0.00    +0.000 A 
ATOM      9  H   UNL     1      52.417   5.399  19.252  0.00  0.00    +0.000 HD
BRANCH   6  10
ATOM     10  C   UNL     1      53.405   4.351  17.769  0.00  0.00    +0.000 C 
BRANCH  10  11
ATOM     11  C   UNL     1      54.514   3.341  18.111  0.00  0.00    +0.000 C 
ATOM     12  C   UNL     1      54.462   2.068  17.276  0.00  0.00    +0.000 C 
ATOM     13  C   UNL     1      53.734   1.083  18.166  0.00  0.00    +0.000 C 
ATOM     14  N   UNL     1      54.198   1.394  19.524  0.00  0.00    +0.000 NA
ATOM     15  C   UNL     1      54.476   2.839  19.556  0.00  0.00    +0.000 C 
ATOM     16  H   UNL     1      55.074   0.895  19.681  0.00  0.00    +0.000 HD
ENDBRANCH  10  11
ENDBRANCH   6  10
ENDBRANCH   1   2
BRANCH   1  19
ATOM     17  O   UNL     1      47.316   3.088  14.166  0.00  0.00    +0.000 OA
ATOM     18  C   UNL     1      46.849   4.130  14.615  0.00  0.00    +0.000 C 
ATOM     19  N   UNL     1      46.767   4.373  15.962  0.00  0.00    +0.000 N 
ATOM     20  H   UNL     1      46.232   5.167  16.294  0.00  0.00    +0.000 HD
BRANCH  18  21
ATOM     21  C   UNL     1      46.397   5.213  13.732  0.00  0.00    +0.000 A 
ATOM     22  C   UNL     1      47.216   6.313  13.517  0.00  0.00    +0.000 A 
ATOM     23  S   UNL     1      46.532   7.485  12.484  0.00  0.00    +0.000 S 
ATOM     24  C   UNL     1      45.135   6.545  12.252  0.00  0.00    +0.000 A 
ATOM     25  N   UNL     1      44.137   6.970  11.433  0.00  0.00    +0.000 NA
ATOM     26  C   UNL     1      43.156   6.139  11.311  0.00  0.00    +0.000 A 
ATOM     27  N   UNL     1      43.077   4.927  11.946  0.00  0.00    +0.000 N 
ATOM     28  C   UNL     1      44.022   4.491  12.841  0.00  0.00    +0.000 A 
ATOM     29  O   UNL     1      43.854   3.462  13.491  0.00  0.00    +0.000 OA
ATOM     30  C   UNL     1      45.174   5.365  12.975  0.00  0.00    +0.000 A 
ATOM     31  H   UNL     1      42.268   4.336  11.831  0.00  0.00    +0.000 HD
ENDBRANCH  18  21
ENDBRANCH   1  19
TORSDOF 5
ENDMDL
