MODEL 1
REMARK VINA RESULT:    -7.722      0.000      0.000
REMARK INTER + INTRA:         -11.887
REMARK INTER:                 -10.882
REMARK INTRA:                  -1.005
REMARK UNBOUND:                -1.005
REMARK  Name = 
REMARK  7 active torsions:
REMARK  status: ('A' for Active; 'I' for Inactive)
REMARK    1  A    between atoms: C_2  and  C_19
REMARK    2  A    between atoms: N_3  and  C_4
REMARK    3  A    between atoms: C_4  and  C_5
REMARK    4  A    between atoms: C_8  and  C_9
REMARK    5  A    between atoms: C_9  and  O_10
REMARK    6  A    between atoms: O_10  and  C_11
REMARK    7  A    between atoms: C_11  and  C_12
REMARK                            x       y       z     vdW  Elec       q    Type
REMARK                         _______ _______ _______ _____ _____    ______ ____
ROOT
ATOM      1  C   UNL     1      46.696   7.808  12.996  0.00  0.00    +0.000 C 
ENDROOT
BRANCH   1   2
ATOM      2  C   UNL     1      45.895   6.699  12.367  0.00  0.00    +0.000 A 
ATOM      3  C   UNL     1      46.033   6.418  11.002  0.00  0.00    +0.000 A 
ATOM      4  C   UNL     1      45.311   5.378  10.417  0.00  0.00    +0.000 A 
ATOM      5  C   UNL     1      44.435   4.602  11.187  0.00  0.00    +0.000 A 
ATOM      6  C   UNL     1      44.267   4.907  12.544  0.00  0.00    +0.000 A 
ATOM      7  C   UNL     1      44.988   5.950  13.128  0.00  0.00    +0.000 A 
BRANCH   5   8
ATOM      8  C   UNL     1      43.729   3.419  10.574  0.00  0.00    +0.000 C 
BRANCH   8   9
ATOM      9  O   UNL     1      44.223   3.121   9.264  0.00  0.00    +0.000 OA
BRANCH   9  10
ATOM     10  C   UNL     1      44.814   1.815   9.198  0.00  0.00    +0.000 C 
BRANCH  10  11
ATOM     11  C   UNL     1      45.962   1.873   8.254  0.00  0.00    +0.000 A 
ATOM     12  N   UNL     1      46.694   0.859   7.833  0.00  0.00    +0.000 NA
ATOM     13  C   UNL     1      47.648   1.403   7.014  0.00  0.00    +0.000 A 
ATOM     14  C   UNL     1      47.490   2.766   6.918  0.00  0.00    +0.000 A 
ATOM     15  N   UNL     1      46.415   3.050   7.710  0.00  0.00    +0.000 N 
ATOM     16  H   UNL     1      46.007   3.956   7.902  0.00  0.00    +0.000 HD
ENDBRANCH  10  11
ENDBRANCH   9  10
ENDBRANCH   8   9
ENDBRANCH   5   8
ENDBRANCH   1   2
BRANCH   1  19
ATOM     17  O   UNL     1      49.031   6.297  13.368  0.00  0.00    +0.000 OA
ATOM     18  C   UNL     1      48.422   6.697  14.356  0.00  0.00    +0.000 C 
ATOM     19  N   UNL     1      47.248   7.398  14.261  0.00  0.00    +0.000 N 
ATOM     20  H   UNL     1      46.881   7.867  15.083  0.00  0.00    +0.000 HD
BRANCH  18  21
ATOM     21  C   UNL     1      48.893   6.396  15.714  0.00  0.00    +0.000 A 
ATOM     22  C   UNL     1      49.720   7.299  16.366  0.00  0.00    +0.000 A 
ATOM     23  S   UNL     1      50.183   6.798  17.928  0.00  0.00    +0.000 S 
ATOM     24  C   UNL     1      49.260   5.373  17.805  0.00  0.00    +0.000 A 
ATOM     25  N   UNL     1      49.188   4.497  18.839  0.00  0.00    +0.000 NA
ATOM     26  C   UNL     1      48.416   3.482  18.628  0.00  0.00    +0.000 A 
ATOM     27  N   UNL     1      47.723   3.261  17.467  0.00  0.00    +0.000 N 
ATOM     28  C   UNL     1      47.825   4.078  16.368  0.00  0.00    +0.000 A 
ATOM     29  O   UNL     1      47.298   3.777  15.300  0.00  0.00    +0.000 OA
ATOM     30  C   UNL     1      48.635   5.265  16.574  0.00  0.00    +0.000 A 
ATOM     31  H   UNL     1      47.161   2.429  17.354  0.00  0.00    +0.000 HD
ENDBRANCH  18  21
ENDBRANCH   1  19
TORSDOF 7
ENDMDL
MODEL 2
REMARK VINA RESULT:    -7.009      4.577      9.204
REMARK INTER + INTRA:         -10.883
REMARK INTER:                 -10.188
REMARK INTRA:                  -0.695
REMARK UNBOUND:                -1.005
REMARK  Name = 
REMARK  7 active torsions:
REMARK  status: ('A' for Active; 'I' for Inactive)
REMARK    1  A    between atoms: C_2  and  C_19
REMARK    2  A    between atoms: N_3  and  C_4
REMARK    3  A    between atoms: C_4  and  C_5
REMARK    4  A    between atoms: C_8  and  C_9
REMARK    5  A    between atoms: C_9  and  O_10
REMARK    6  A    between atoms: O_10  and  C_11
REMARK    7  A    between atoms: C_11  and  C_12
REMARK                            x       y       z     vdW  Elec       q    Type
REMARK                         _______ _______ _______ _____ _____    ______ ____
ROOT
ATOM      1  C   UNL     1      47.343   3.622  17.086  0.00  0.00    +0.000 C 
ENDROOT
BRANCH   1   2
ATOM      2  C   UNL     1      48.811   3.342  17.267  0.00  0.00    +0.000 A 
ATOM      3  C   UNL     1      49.665   4.343  17.746  0.00  0.00    +0.000 A 
ATOM      4  C   UNL     1      51.022   4.084  17.939  0.00  0.00    +0.000 A 
ATOM      5  C   UNL     1      51.550   2.818  17.652  0.00  0.00    +0.000 A 
ATOM      6  C   UNL     1      50.704   1.828  17.135  0.00  0.00    +0.000 A 
ATOM      7  C   UNL     1      49.347   2.089  16.941  0.00  0.00    +0.000 A 
BRANCH   5   8
ATOM      8  C   UNL     1      52.996   2.513  17.950  0.00  0.00    +0.000 C 
BRANCH   8   9
ATOM      9  O   UNL     1      53.154   1.235  18.577  0.00  0.00    +0.000 OA
BRANCH   9  10
ATOM     10  C   UNL     1      54.139   0.430  17.913  0.00  0.00    +0.000 C 
BRANCH  10  11
ATOM     11  C   UNL     1      54.174  -0.900  18.579  0.00  0.00    +0.000 A 
ATOM     12  N   UNL     1      55.246  -1.614  18.866  0.00  0.00    +0.000 NA
ATOM     13  C   UNL     1      54.782  -2.771  19.433  0.00  0.00    +0.000 A 
ATOM     14  C   UNL     1      53.409  -2.760  19.511  0.00  0.00    +0.000 A 
ATOM     15  N   UNL     1      53.037  -1.566  18.965  0.00  0.00    +0.000 N 
ATOM     16  H   UNL     1      52.099  -1.208  18.833  0.00  0.00    +0.000 HD
ENDBRANCH  10  11
ENDBRANCH   9  10
ENDBRANCH   8   9
ENDBRANCH   5   8
ENDBRANCH   1   2
BRANCH   1  19
ATOM     17  O   UNL     1      47.292   3.076  14.335  0.00  0.00    +0.000 OA
ATOM     18  C   UNL     1      47.068   4.221  14.714  0.00  0.00    +0.000 C 
ATOM     19  N   UNL     1      47.123   4.582  16.035  0.00  0.00    +0.000 N 
ATOM     20  H   UNL     1      46.751   5.481  16.321  0.00  0.00    +0.000 HD
BRANCH  18  21
ATOM     21  C   UNL     1      46.780   5.297  13.757  0.00  0.00    +0.000 A 
ATOM     22  C   UNL     1      47.734   6.276  13.522  0.00  0.00    +0.000 A 
ATOM     23  S   UNL     1      47.241   7.454  12.392  0.00  0.00    +0.000 S 
ATOM     24  C   UNL     1      45.749   6.673  12.145  0.00  0.00    +0.000 A 
ATOM     25  N   UNL     1      44.850   7.153  11.249  0.00  0.00    +0.000 NA
ATOM     26  C   UNL     1      43.780   6.439  11.127  0.00  0.00    +0.000 A 
ATOM     27  N   UNL     1      43.527   5.293  11.836  0.00  0.00    +0.000 N 
ATOM     28  C   UNL     1      44.371   4.812  12.806  0.00  0.00    +0.000 A 
ATOM     29  O   UNL     1      44.049   3.862  13.516  0.00  0.00    +0.000 OA
ATOM     30  C   UNL     1      45.615   5.548  12.940  0.00  0.00    +0.000 A 
ATOM     31  H   UNL     1      42.654   4.797  11.717  0.00  0.00    +0.000 HD
ENDBRANCH  18  21
ENDBRANCH   1  19
TORSDOF 7
ENDMDL
MODEL 3
REMARK VINA RESULT:    -6.804      2.097      3.705
REMARK INTER + INTRA:         -10.593
REMARK INTER:                  -9.541
REMARK INTRA:                  -1.052
REMARK UNBOUND:                -1.005
REMARK  Name = 
REMARK  7 active torsions:
REMARK  status: ('A' for Active; 'I' for Inactive)
REMARK    1  A    between atoms: C_2  and  C_19
REMARK    2  A    between atoms: N_3  and  C_4
REMARK    3  A    between atoms: C_4  and  C_5
REMARK    4  A    between atoms: C_8  and  C_9
REMARK    5  A    between atoms: C_9  and  O_10
REMARK    6  A    between atoms: O_10  and  C_11
REMARK    7  A    between atoms: C_11  and  C_12
REMARK                            x       y       z     vdW  Elec       q    Type
REMARK                         _______ _______ _______ _____ _____    ______ ____
ROOT
ATOM      1  C   UNL     1      47.159   4.532  14.738  0.00  0.00    +0.000 C 
ENDROOT
BRANCH   1   2
ATOM      2  C   UNL     1      46.255   4.471  13.535  0.00  0.00    +0.000 A 
ATOM      3  C   UNL     1      45.654   5.638  13.047  0.00  0.00    +0.000 A 
ATOM      4  C   UNL     1      44.835   5.593  11.919  0.00  0.00    +0.000 A 
ATOM      5  C   UNL     1      44.598   4.379  11.262  0.00  0.00    +0.000 A 
ATOM      6  C   UNL     1      45.168   3.205  11.773  0.00  0.00    +0.000 A 
ATOM      7  C   UNL     1      45.986   3.251  12.903  0.00  0.00    +0.000 A 
BRANCH   5   8
ATOM      8  C   UNL     1      43.790   4.349   9.990  0.00  0.00    +0.000 C 
BRANCH   8   9
ATOM      9  O   UNL     1      44.371   3.484   9.008  0.00  0.00    +0.000 OA
BRANCH   9  10
ATOM     10  C   UNL     1      45.413   4.135   8.268  0.00  0.00    +0.000 C 
BRANCH  10  11
ATOM     11  C   UNL     1      46.307   3.088   7.706  0.00  0.00    +0.000 A 
ATOM     12  N   UNL     1      46.294   1.799   7.992  0.00  0.00    +0.000 NA
ATOM     13  C   UNL     1      47.315   1.247   7.265  0.00  0.00    +0.000 A 
ATOM     14  C   UNL     1      47.953   2.205   6.511  0.00  0.00    +0.000 A 
ATOM     15  N   UNL     1      47.301   3.368   6.801  0.00  0.00    +0.000 N 
ATOM     16  H   UNL     1      47.498   4.296   6.447  0.00  0.00    +0.000 HD
ENDBRANCH  10  11
ENDBRANCH   9  10
ENDBRANCH   8   9
ENDBRANCH   5   8
ENDBRANCH   1   2
BRANCH   1  19
ATOM     17  O   UNL     1      49.364   5.379  16.251  0.00  0.00    +0.000 OA
ATOM     18  C   UNL     1      48.606   6.225  15.787  0.00  0.00    +0.000 C 
ATOM     19  N   UNL     1      47.480   5.893  15.079  0.00  0.00    +0.000 N 
ATOM     20  H   UNL     1      46.990   6.613  14.558  0.00  0.00    +0.000 HD
BRANCH  18  21
ATOM     21  C   UNL     1      48.835   7.658  16.013  0.00  0.00    +0.000 A 
ATOM     22  C   UNL     1      49.070   8.117  17.301  0.00  0.00    +0.000 A 
ATOM     23  S   UNL     1      49.308   9.803  17.392  0.00  0.00    +0.000 S 
ATOM     24  C   UNL     1      49.147   9.973  15.706  0.00  0.00    +0.000 A 
ATOM     25  N   UNL     1      49.286  11.185  15.111  0.00  0.00    +0.000 NA
ATOM     26  C   UNL     1      49.186  11.164  13.823  0.00  0.00    +0.000 A 
ATOM     27  N   UNL     1      48.945  10.038  13.081  0.00  0.00    +0.000 N 
ATOM     28  C   UNL     1      48.721   8.805  13.644  0.00  0.00    +0.000 A 
ATOM     29  O   UNL     1      48.373   7.846  12.959  0.00  0.00    +0.000 OA
ATOM     30  C   UNL     1      48.881   8.764  15.086  0.00  0.00    +0.000 A 
ATOM     31  H   UNL     1      48.845  10.094  12.077  0.00  0.00    +0.000 HD
ENDBRANCH  18  21
ENDBRANCH   1  19
TORSDOF 7
ENDMDL
MODEL 4
REMARK VINA RESULT:    -6.781      3.239      7.800
REMARK INTER + INTRA:         -10.560
REMARK INTER:                  -9.398
REMARK INTRA:                  -1.163
REMARK UNBOUND:                -1.005
REMARK  Name = 
REMARK  7 active torsions:
REMARK  status: ('A' for Active; 'I' for Inactive)
REMARK    1  A    between atoms: C_2  and  C_19
REMARK    2  A    between atoms: N_3  and  C_4
REMARK    3  A    between atoms: C_4  and  C_5
REMARK    4  A    between atoms: C_8  and  C_9
REMARK    5  A    between atoms: C_9  and  O_10
REMARK    6  A    between atoms: O_10  and  C_11
REMARK    7  A    between atoms: C_11  and  C_12
REMARK                            x       y       z     vdW  Elec       q    Type
REMARK                         _______ _______ _______ _____ _____    ______ ____
ROOT
ATOM      1  C   UNL     1      48.263   8.101  12.270  0.00  0.00    +0.000 C 
ENDROOT
BRANCH   1   2
ATOM      2  C   UNL     1      48.965   7.694  13.538  0.00  0.00    +0.000 A 
ATOM      3  C   UNL     1      48.280   6.968  14.520  0.00  0.00    +0.000 A 
ATOM      4  C   UNL     1      48.930   6.568  15.687  0.00  0.00    +0.000 A 
ATOM      5  C   UNL     1      50.277   6.890  15.895  0.00  0.00    +0.000 A 
ATOM      6  C   UNL     1      50.953   7.650  14.931  0.00  0.00    +0.000 A 
ATOM      7  C   UNL     1      50.301   8.052  13.764  0.00  0.00    +0.000 A 
BRANCH   5   8
ATOM      8  C   UNL     1      51.003   6.375  17.112  0.00  0.00    +0.000 C 
BRANCH   8   9
ATOM      9  O   UNL     1      51.434   5.020  16.945  0.00  0.00    +0.000 OA
BRANCH   9  10
ATOM     10  C   UNL     1      50.967   4.173  18.005  0.00  0.00    +0.000 C 
BRANCH  10  11
ATOM     11  C   UNL     1      49.683   3.558  17.575  0.00  0.00    +0.000 A 
ATOM     12  N   UNL     1      49.512   2.675  16.609  0.00  0.00    +0.000 NA
ATOM     13  C   UNL     1      48.164   2.436  16.559  0.00  0.00    +0.000 A 
ATOM     14  C   UNL     1      47.501   3.168  17.515  0.00  0.00    +0.000 A 
ATOM     15  N   UNL     1      48.479   3.875  18.153  0.00  0.00    +0.000 N 
ATOM     16  H   UNL     1      48.372   4.540  18.910  0.00  0.00    +0.000 HD
ENDBRANCH  10  11
ENDBRANCH   9  10
ENDBRANCH   8   9
ENDBRANCH   5   8
ENDBRANCH   1   2
BRANCH   1  19
ATOM     17  O   UNL     1      45.486   7.891  11.937  0.00  0.00    +0.000 OA
ATOM     18  C   UNL     1      46.201   6.986  11.517  0.00  0.00    +0.000 C 
ATOM     19  N   UNL     1      47.561   6.989  11.684  0.00  0.00    +0.000 N 
ATOM     20  H   UNL     1      48.127   6.326  11.164  0.00  0.00    +0.000 HD
BRANCH  18  21
ATOM     21  C   UNL     1      45.628   5.809  10.853  0.00  0.00    +0.000 A 
ATOM     22  C   UNL     1      45.890   5.588   9.509  0.00  0.00    +0.000 A 
ATOM     23  S   UNL     1      45.146   4.185   8.890  0.00  0.00    +0.000 S 
ATOM     24  C   UNL     1      44.480   3.800  10.408  0.00  0.00    +0.000 A 
ATOM     25  N   UNL     1      43.745   2.672  10.582  0.00  0.00    +0.000 NA
ATOM     26  C   UNL     1      43.339   2.478  11.794  0.00  0.00    +0.000 A 
ATOM     27  N   UNL     1      43.594   3.323  12.842  0.00  0.00    +0.000 N 
ATOM     28  C   UNL     1      44.266   4.512  12.698  0.00  0.00    +0.000 A 
ATOM     29  O   UNL     1      44.356   5.309  13.629  0.00  0.00    +0.000 OA
ATOM     30  C   UNL     1      44.793   4.748  11.367  0.00  0.00    +0.000 A 
ATOM     31  H   UNL     1      43.220   3.131  13.761  0.00  0.00    +0.000 HD
ENDBRANCH  18  21
ENDBRANCH   1  19
TORSDOF 7
ENDMDL
MODEL 5
REMARK VINA RESULT:    -6.771      2.122      2.683
REMARK INTER + INTRA:         -10.547
REMARK INTER:                  -9.618
REMARK INTRA:                  -0.929
REMARK UNBOUND:                -1.005
REMARK  Name = 
REMARK  7 active torsions:
REMARK  status: ('A' for Active; 'I' for Inactive)
REMARK    1  A    between atoms: C_2  and  C_19
REMARK    2  A    between atoms: N_3  and  C_4
REMARK    3  A    between atoms: C_4  and  C_5
REMARK    4  A    between atoms: C_8  and  C_9
REMARK    5  A    between atoms: C_9  and  O_10
REMARK    6  A    between atoms: O_10  and  C_11
REMARK    7  A    between atoms: C_11  and  C_12
REMARK                            x       y       z     vdW  Elec       q    Type
REMARK                         _______ _______ _______ _____ _____    ______ ____
ROOT
ATOM      1  C   UNL     1      47.878   7.624  13.841  0.00  0.00    +0.000 C 
ENDROOT
BRANCH   1   2
ATOM      2  C   UNL     1      46.955   6.783  12.999  0.00  0.00    +0.000 A 
ATOM      3  C   UNL     1      46.257   7.360  11.931  0.00  0.00    +0.000 A 
ATOM      4  C   UNL     1      45.418   6.583  11.132  0.00  0.00    +0.000 A 
ATOM      5  C   UNL     1      45.259   5.215  11.391  0.00  0.00    +0.000 A 
ATOM      6  C   UNL     1      45.927   4.646  12.484  0.00  0.00    +0.000 A 
ATOM      7  C   UNL     1      46.764   5.425  13.284  0.00  0.00    +0.000 A 
BRANCH   5   8
ATOM      8  C   UNL     1      44.427   4.359  10.471  0.00  0.00    +0.000 C 
BRANCH   8   9
ATOM      9  O   UNL     1      44.952   3.032  10.354  0.00  0.00    +0.000 OA
BRANCH   9  10
ATOM     10  C   UNL     1      44.582   2.415   9.113  0.00  0.00    +0.000 C 
BRANCH  10  11
ATOM     11  C   UNL     1      45.785   2.372   8.240  0.00  0.00    +0.000 A 
ATOM     12  N   UNL     1      46.334   3.385   7.597  0.00  0.00    +0.000 NA
ATOM     13  C   UNL     1      47.388   2.855   6.899  0.00  0.00    +0.000 A 
ATOM     14  C   UNL     1      47.497   1.504   7.130  0.00  0.00    +0.000 A 
ATOM     15  N   UNL     1      46.473   1.211   7.984  0.00  0.00    +0.000 N 
ATOM     16  H   UNL     1      46.222   0.308   8.367  0.00  0.00    +0.000 HD
ENDBRANCH  10  11
ENDBRANCH   9  10
ENDBRANCH   8   9
ENDBRANCH   5   8
ENDBRANCH   1   2
BRANCH   1  19
ATOM     17  O   UNL     1      50.099   6.626  15.235  0.00  0.00    +0.000 OA
ATOM     18  C   UNL     1      49.031   6.743  15.829  0.00  0.00    +0.000 C 
ATOM     19  N   UNL     1      47.889   7.175  15.209  0.00  0.00    +0.000 N 
ATOM     20  H   UNL     1      47.085   7.435  15.771  0.00  0.00    +0.000 HD
BRANCH  18  21
ATOM     21  C   UNL     1      48.903   6.369  17.243  0.00  0.00    +0.000 A 
ATOM     22  C   UNL     1      49.285   5.099  17.651  0.00  0.00    +0.000 A 
ATOM     23  S   UNL     1      49.066   4.822  19.319  0.00  0.00    +0.000 S 
ATOM     24  C   UNL     1      48.492   6.406  19.563  0.00  0.00    +0.000 A 
ATOM     25  N   UNL     1      48.156   6.843  20.803  0.00  0.00    +0.000 NA
ATOM     26  C   UNL     1      47.780   8.078  20.853  0.00  0.00    +0.000 A 
ATOM     27  N   UNL     1      47.698   8.909  19.767  0.00  0.00    +0.000 N 
ATOM     28  C   UNL     1      47.953   8.489  18.484  0.00  0.00    +0.000 A 
ATOM     29  O   UNL     1      47.737   9.221  17.521  0.00  0.00    +0.000 OA
ATOM     30  C   UNL     1      48.435   7.125  18.382  0.00  0.00    +0.000 A 
ATOM     31  H   UNL     1      47.365   9.857  19.868  0.00  0.00    +0.000 HD
ENDBRANCH  18  21
ENDBRANCH   1  19
TORSDOF 7
ENDMDL
MODEL 6
REMARK VINA RESULT:    -6.764      2.789      8.158
REMARK INTER + INTRA:         -10.536
REMARK INTER:                  -9.242
REMARK INTRA:                  -1.294
REMARK UNBOUND:                -1.005
REMARK  Name = 
REMARK  7 active torsions:
REMARK  status: ('A' for Active; 'I' for Inactive)
REMARK    1  A    between atoms: C_2  and  C_19
REMARK    2  A    between atoms: N_3  and  C_4
REMARK    3  A    between atoms: C_4  and  C_5
REMARK    4  A    between atoms: C_8  and  C_9
REMARK    5  A    between atoms: C_9  and  O_10
REMARK    6  A    between atoms: O_10  and  C_11
REMARK    7  A    between atoms: C_11  and  C_12
REMARK                            x       y       z     vdW  Elec       q    Type
REMARK                         _______ _______ _______ _____ _____    ______ ____
ROOT
ATOM      1  C   UNL     1      47.672   7.899  11.853  0.00  0.00    +0.000 C 
ENDROOT
BRANCH   1   2
ATOM      2  C   UNL     1      48.302   8.006  13.216  0.00  0.00    +0.000 A 
ATOM      3  C   UNL     1      47.712   8.804  14.204  0.00  0.00    +0.000 A 
ATOM      4  C   UNL     1      48.277   8.890  15.476  0.00  0.00    +0.000 A 
ATOM      5  C   UNL     1      49.446   8.182  15.782  0.00  0.00    +0.000 A 
ATOM      6  C   UNL     1      50.060   7.415  14.783  0.00  0.00    +0.000 A 
ATOM      7  C   UNL     1      49.494   7.331  13.509  0.00  0.00    +0.000 A 
BRANCH   5   8
ATOM      8  C   UNL     1      50.002   8.201  17.183  0.00  0.00    +0.000 C 
BRANCH   8   9
ATOM      9  O   UNL     1      50.114   6.884  17.732  0.00  0.00    +0.000 OA
BRANCH   9  10
ATOM     10  C   UNL     1      48.911   6.477  18.401  0.00  0.00    +0.000 C 
BRANCH  10  11
ATOM     11  C   UNL     1      48.488   5.168  17.835  0.00  0.00    +0.000 A 
ATOM     12  N   UNL     1      49.173   4.406  17.004  0.00  0.00    +0.000 NA
ATOM     13  C   UNL     1      48.367   3.330  16.736  0.00  0.00    +0.000 A 
ATOM     14  C   UNL     1      47.180   3.426  17.423  0.00  0.00    +0.000 A 
ATOM     15  N   UNL     1      47.271   4.597  18.118  0.00  0.00    +0.000 N 
ATOM     16  H   UNL     1      46.579   5.014  18.728  0.00  0.00    +0.000 HD
ENDBRANCH  10  11
ENDBRANCH   9  10
ENDBRANCH   8   9
ENDBRANCH   5   8
ENDBRANCH   1   2
BRANCH   1  19
ATOM     17  O   UNL     1      44.903   7.558  12.145  0.00  0.00    +0.000 OA
ATOM     18  C   UNL     1      45.587   6.591  11.825  0.00  0.00    +0.000 C 
ATOM     19  N   UNL     1      46.950   6.661  11.710  0.00  0.00    +0.000 N 
ATOM     20  H   UNL     1      47.452   5.899  11.265  0.00  0.00    +0.000 HD
BRANCH  18  21
ATOM     21  C   UNL     1      44.981   5.272  11.597  0.00  0.00    +0.000 A 
ATOM     22  C   UNL     1      44.274   4.660  12.622  0.00  0.00    +0.000 A 
ATOM     23  S   UNL     1      43.643   3.134  12.199  0.00  0.00    +0.000 S 
ATOM     24  C   UNL     1      44.257   3.256  10.616  0.00  0.00    +0.000 A 
ATOM     25  N   UNL     1      44.031   2.278   9.703  0.00  0.00    +0.000 NA
ATOM     26  C   UNL     1      44.513   2.520   8.528  0.00  0.00    +0.000 A 
ATOM     27  N   UNL     1      45.215   3.648   8.194  0.00  0.00    +0.000 N 
ATOM     28  C   UNL     1      45.534   4.627   9.104  0.00  0.00    +0.000 A 
ATOM     29  O   UNL     1      46.280   5.556   8.803  0.00  0.00    +0.000 OA
ATOM     30  C   UNL     1      44.964   4.430  10.424  0.00  0.00    +0.000 A 
ATOM     31  H   UNL     1      45.595   3.762   7.265  0.00  0.00    +0.000 HD
ENDBRANCH  18  21
ENDBRANCH   1  19
TORSDOF 7
ENDMDL
MODEL 7
REMARK VINA RESULT:    -6.686      2.519      3.247
REMARK INTER + INTRA:         -10.426
REMARK INTER:                  -9.640
REMARK INTRA:                  -0.787
REMARK UNBOUND:                -1.005
REMARK  Name = 
REMARK  7 active torsions:
REMARK  status: ('A' for Active; 'I' for Inactive)
REMARK    1  A    between atoms: C_2  and  C_19
REMARK    2  A    between atoms: N_3  and  C_4
REMARK    3  A    between atoms: C_4  and  C_5
REMARK    4  A    between atoms: C_8  and  C_9
REMARK    5  A    between atoms: C_9  and  O_10
REMARK    6  A    between atoms: O_10  and  C_11
REMARK    7  A    between atoms: C_11  and  C_12
REMARK                            x       y       z     vdW  Elec       q    Type
REMARK                         _______ _______ _______ _____ _____    ______ ____
ROOT
ATOM      1  C   UNL     1      47.221   4.551  14.766  0.00  0.00    +0.000 C 
ENDROOT
BRANCH   1   2
ATOM      2  C   UNL     1      46.317   4.502  13.563  0.00  0.00    +0.000 A 
ATOM      3  C   UNL     1      45.767   5.683  13.048  0.00  0.00    +0.000 A 
ATOM      4  C   UNL     1      44.947   5.648  11.920  0.00  0.00    +0.000 A 
ATOM      5  C   UNL     1      44.659   4.431  11.290  0.00  0.00    +0.000 A 
ATOM      6  C   UNL     1      45.177   3.245  11.828  0.00  0.00    +0.000 A 
ATOM      7  C   UNL     1      45.995   3.280  12.958  0.00  0.00    +0.000 A 
BRANCH   5   8
ATOM      8  C   UNL     1      43.851   4.406  10.018  0.00  0.00    +0.000 C 
BRANCH   8   9
ATOM      9  O   UNL     1      44.408   3.513   9.048  0.00  0.00    +0.000 OA
BRANCH   9  10
ATOM     10  C   UNL     1      45.432   4.141   8.263  0.00  0.00    +0.000 C 
BRANCH  10  11
ATOM     11  C   UNL     1      46.307   3.076   7.705  0.00  0.00    +0.000 A 
ATOM     12  N   UNL     1      46.306   1.798   8.032  0.00  0.00    +0.000 NA
ATOM     13  C   UNL     1      47.303   1.223   7.289  0.00  0.00    +0.000 A 
ATOM     14  C   UNL     1      47.913   2.156   6.484  0.00  0.00    +0.000 A 
ATOM     15  N   UNL     1      47.269   3.329   6.758  0.00  0.00    +0.000 N 
ATOM     16  H   UNL     1      47.453   4.244   6.368  0.00  0.00    +0.000 HD
ENDBRANCH  10  11
ENDBRANCH   9  10
ENDBRANCH   8   9
ENDBRANCH   5   8
ENDBRANCH   1   2
BRANCH   1  19
ATOM     17  O   UNL     1      49.422   5.398  16.286  0.00  0.00    +0.000 OA
ATOM     18  C   UNL     1      48.650   6.243  15.843  0.00  0.00    +0.000 C 
ATOM     19  N   UNL     1      47.526   5.910  15.134  0.00  0.00    +0.000 N 
ATOM     20  H   UNL     1      47.023   6.633  14.629  0.00  0.00    +0.000 HD
BRANCH  18  21
ATOM     21  C   UNL     1      48.860   7.673  16.097  0.00  0.00    +0.000 A 
ATOM     22  C   UNL     1      49.449   8.462  15.118  0.00  0.00    +0.000 A 
ATOM     23  S   UNL     1      49.627  10.095  15.572  0.00  0.00    +0.000 S 
ATOM     24  C   UNL     1      48.886   9.815  17.079  0.00  0.00    +0.000 A 
ATOM     25  N   UNL     1      48.687  10.830  17.957  0.00  0.00    +0.000 NA
ATOM     26  C   UNL     1      48.072  10.488  19.042  0.00  0.00    +0.000 A 
ATOM     27  N   UNL     1      47.654   9.215  19.328  0.00  0.00    +0.000 N 
ATOM     28  C   UNL     1      47.902   8.143  18.505  0.00  0.00    +0.000 A 
ATOM     29  O   UNL     1      47.635   6.997  18.856  0.00  0.00    +0.000 OA
ATOM     30  C   UNL     1      48.538   8.486  17.246  0.00  0.00    +0.000 A 
ATOM     31  H   UNL     1      47.207   9.006  20.210  0.00  0.00    +0.000 HD
ENDBRANCH  18  21
ENDBRANCH   1  19
TORSDOF 7
ENDMDL
MODEL 8
REMARK VINA RESULT:    -6.557      3.747      8.604
REMARK INTER + INTRA:         -10.245
REMARK INTER:                  -9.267
REMARK INTRA:                  -0.978
REMARK UNBOUND:                -1.005
REMARK  Name = 
REMARK  7 active torsions:
REMARK  status: ('A' for Active; 'I' for Inactive)
REMARK    1  A    between atoms: C_2  and  C_19
REMARK    2  A    between atoms: N_3  and  C_4
REMARK    3  A    between atoms: C_4  and  C_5
REMARK    4  A    between atoms: C_8  and  C_9
REMARK    5  A    between atoms: C_9  and  O_10
REMARK    6  A    between atoms: O_10  and  C_11
REMARK    7  A    between atoms: C_11  and  C_12
REMARK                            x       y       z     vdW  Elec       q    Type
REMARK                         _______ _______ _______ _____ _____    ______ ____
ROOT
ATOM      1  C   UNL     1      47.197   3.442  16.824  0.00  0.00    +0.000 C 
ENDROOT
BRANCH   1   2
ATOM      2  C   UNL     1      48.671   3.528  17.117  0.00  0.00    +0.000 A 
ATOM      3  C   UNL     1      49.261   4.766  17.403  0.00  0.00    +0.000 A 
ATOM      4  C   UNL     1      50.621   4.851  17.698  0.00  0.00    +0.000 A 
ATOM      5  C   UNL     1      51.418   3.699  17.710  0.00  0.00    +0.000 A 
ATOM      6  C   UNL     1      50.837   2.465  17.386  0.00  0.00    +0.000 A 
ATOM      7  C   UNL     1      49.476   2.382  17.088  0.00  0.00    +0.000 A 
BRANCH   5   8
ATOM      8  C   UNL     1      52.865   3.780  18.121  0.00  0.00    +0.000 C 
BRANCH   8   9
ATOM      9  O   UNL     1      53.395   5.100  17.959  0.00  0.00    +0.000 OA
BRANCH   9  10
ATOM     10  C   UNL     1      54.302   5.182  16.850  0.00  0.00    +0.000 C 
BRANCH  10  11
ATOM     11  C   UNL     1      54.036   6.456  16.128  0.00  0.00    +0.000 A 
ATOM     12  N   UNL     1      54.877   7.457  15.953  0.00  0.00    +0.000 NA
ATOM     13  C   UNL     1      54.177   8.416  15.269  0.00  0.00    +0.000 A 
ATOM     14  C   UNL     1      52.895   7.991  15.008  0.00  0.00    +0.000 A 
ATOM     15  N   UNL     1      52.821   6.745  15.559  0.00  0.00    +0.000 N 
ATOM     16  H   UNL     1      52.023   6.122  15.580  0.00  0.00    +0.000 HD
ENDBRANCH  10  11
ENDBRANCH   9  10
ENDBRANCH   8   9
ENDBRANCH   5   8
ENDBRANCH   1   2
BRANCH   1  19
ATOM     17  O   UNL     1      47.286   3.116  14.039  0.00  0.00    +0.000 OA
ATOM     18  C   UNL     1      46.836   4.162  14.498  0.00  0.00    +0.000 C 
ATOM     19  N   UNL     1      46.804   4.420  15.843  0.00  0.00    +0.000 N 
ATOM     20  H   UNL     1      46.258   5.204  16.186  0.00  0.00    +0.000 HD
BRANCH  18  21
ATOM     21  C   UNL     1      46.352   5.233  13.617  0.00  0.00    +0.000 A 
ATOM     22  C   UNL     1      47.174   6.317  13.345  0.00  0.00    +0.000 A 
ATOM     23  S   UNL     1      46.461   7.473  12.315  0.00  0.00    +0.000 S 
ATOM     24  C   UNL     1      45.043   6.544  12.161  0.00  0.00    +0.000 A 
ATOM     25  N   UNL     1      44.022   6.955  11.367  0.00  0.00    +0.000 NA
ATOM     26  C   UNL     1      43.027   6.133  11.305  0.00  0.00    +0.000 A 
ATOM     27  N   UNL     1      42.960   4.942  11.981  0.00  0.00    +0.000 N 
ATOM     28  C   UNL     1      43.933   4.523  12.854  0.00  0.00    +0.000 A 
ATOM     29  O   UNL     1      43.777   3.519  13.545  0.00  0.00    +0.000 OA
ATOM     30  C   UNL     1      45.100   5.383  12.914  0.00  0.00    +0.000 A 
ATOM     31  H   UNL     1      42.137   4.359  11.915  0.00  0.00    +0.000 HD
ENDBRANCH  18  21
ENDBRANCH   1  19
TORSDOF 7
ENDMDL
MODEL 9
REMARK VINA RESULT:    -6.347      4.472      7.410
REMARK INTER + INTRA:          -9.950
REMARK INTER:                  -9.107
REMARK INTRA:                  -0.843
REMARK UNBOUND:                -1.005
REMARK  Name = 
REMARK  7 active torsions:
REMARK  status: ('A' for Active; 'I' for Inactive)
REMARK    1  A    between atoms: C_2  and  C_19
REMARK    2  A    between atoms: N_3  and  C_4
REMARK    3  A    between atoms: C_4  and  C_5
REMARK    4  A    between atoms: C_8  and  C_9
REMARK    5  A    between atoms: C_9  and  O_10
REMARK    6  A    between atoms: O_10  and  C_11
REMARK    7  A    between atoms: C_11  and  C_12
REMARK                            x       y       z     vdW  Elec       q    Type
REMARK                         _______ _______ _______ _____ _____    ______ ____
ROOT
ATOM      1  C   UNL     1      46.420   8.309  12.971  0.00  0.00    +0.000 C 
ENDROOT
BRANCH   1   2
ATOM      2  C   UNL     1      47.816   8.430  12.421  0.00  0.00    +0.000 A 
ATOM      3  C   UNL     1      48.591   7.283  12.208  0.00  0.00    +0.000 A 
ATOM      4  C   UNL     1      49.876   7.385  11.677  0.00  0.00    +0.000 A 
ATOM      5  C   UNL     1      50.412   8.638  11.353  0.00  0.00    +0.000 A 
ATOM      6  C   UNL     1      49.653   9.789  11.602  0.00  0.00    +0.000 A 
ATOM      7  C   UNL     1      48.367   9.686  12.135  0.00  0.00    +0.000 A 
BRANCH   5   8
ATOM      8  C   UNL     1      51.763   8.739  10.692  0.00  0.00    +0.000 C 
BRANCH   8   9
ATOM      9  O   UNL     1      52.091   7.552   9.960  0.00  0.00    +0.000 OA
BRANCH   9  10
ATOM     10  C   UNL     1      52.740   7.851   8.716  0.00  0.00    +0.000 C 
BRANCH  10  11
ATOM     11  C   UNL     1      53.162   6.567   8.094  0.00  0.00    +0.000 A 
ATOM     12  N   UNL     1      52.597   5.962   7.067  0.00  0.00    +0.000 NA
ATOM     13  C   UNL     1      53.304   4.803   6.883  0.00  0.00    +0.000 A 
ATOM     14  C   UNL     1      54.325   4.703   7.798  0.00  0.00    +0.000 A 
ATOM     15  N   UNL     1      54.223   5.831   8.561  0.00  0.00    +0.000 N 
ATOM     16  H   UNL     1      54.797   6.102   9.349  0.00  0.00    +0.000 HD
ENDBRANCH  10  11
ENDBRANCH   9  10
ENDBRANCH   8   9
ENDBRANCH   5   8
ENDBRANCH   1   2
BRANCH   1  19
ATOM     17  O   UNL     1      44.496   7.652  11.037  0.00  0.00    +0.000 OA
ATOM     18  C   UNL     1      44.970   6.755  11.728  0.00  0.00    +0.000 C 
ATOM     19  N   UNL     1      45.876   6.998  12.727  0.00  0.00    +0.000 N 
ATOM     20  H   UNL     1      46.379   6.221  13.143  0.00  0.00    +0.000 HD
BRANCH  18  21
ATOM     21  C   UNL     1      44.545   5.360  11.559  0.00  0.00    +0.000 A 
ATOM     22  C   UNL     1      43.814   4.742  12.564  0.00  0.00    +0.000 A 
ATOM     23  S   UNL     1      43.408   3.123  12.216  0.00  0.00    +0.000 S 
ATOM     24  C   UNL     1      44.159   3.204  10.691  0.00  0.00    +0.000 A 
ATOM     25  N   UNL     1      44.139   2.142   9.846  0.00  0.00    +0.000 NA
ATOM     26  C   UNL     1      44.705   2.354   8.704  0.00  0.00    +0.000 A 
ATOM     27  N   UNL     1      45.303   3.532   8.341  0.00  0.00    +0.000 N 
ATOM     28  C   UNL     1      45.415   4.606   9.190  0.00  0.00    +0.000 A 
ATOM     29  O   UNL     1      46.075   5.595   8.880  0.00  0.00    +0.000 OA
ATOM     30  C   UNL     1      44.742   4.439  10.465  0.00  0.00    +0.000 A 
ATOM     31  H   UNL     1      45.758   3.623   7.443  0.00  0.00    +0.000 HD
ENDBRANCH  18  21
ENDBRANCH   1  19
TORSDOF 7
ENDMDL
