MODEL 1
REMARK VINA RESULT:    -8.169      0.000      0.000
REMARK INTER + INTRA:         -11.421
REMARK INTER:                 -10.556
REMARK INTRA:                  -0.864
REMARK UNBOUND:                -0.864
REMARK  Name = 
REMARK  5 active torsions:
REMARK  status: ('A' for Active; 'I' for Inactive)
REMARK    1  A    between atoms: C_2  and  C_4
REMARK    2  A    between atoms: C_7  and  O_8
REMARK    3  A    between atoms: O_8  and  C_9
REMARK    4  A    between atoms: C_9  and  C_10
REMARK    5  A    between atoms: C_14  and  C_15
REMARK                            x       y       z     vdW  Elec       q    Type
REMARK                         _______ _______ _______ _____ _____    ______ ____
ROOT
ATOM      1  C   UNL     1      43.797   4.876  11.203  0.00  0.00    +0.000 C 
ATOM      2  C   UNL     1      42.467   5.236  11.856  0.00  0.00    +0.000 C 
ATOM      3  C   UNL     1      43.121   6.202  10.927  0.00  0.00    +0.000 C 
ENDROOT
BRANCH   1   4
ATOM      4  C   UNL     1      45.030   4.787  12.085  0.00  0.00    +0.000 A 
ATOM      5  C   UNL     1      45.314   3.610  12.794  0.00  0.00    +0.000 A 
ATOM      6  C   UNL     1      46.490   3.470  13.525  0.00  0.00    +0.000 A 
ATOM      7  C   UNL     1      47.416   4.513  13.559  0.00  0.00    +0.000 A 
ATOM      8  C   UNL     1      47.189   5.712  12.864  0.00  0.00    +0.000 A 
ATOM      9  C   UNL     1      45.978   5.828  12.152  0.00  0.00    +0.000 A 
BRANCH   8  10
ATOM     10  C   UNL     1      48.214   6.776  12.820  0.00  0.00    +0.000 A 
ATOM     11  C   UNL     1      48.375   7.593  11.690  0.00  0.00    +0.000 A 
ATOM     12  C   UNL     1      49.311   8.627  11.681  0.00  0.00    +0.000 A 
ATOM     13  C   UNL     1      50.075   8.826  12.815  0.00  0.00    +0.000 A 
ATOM     14  N   UNL     1      49.973   8.067  13.925  0.00  0.00    +0.000 NA
ATOM     15  C   UNL     1      49.052   7.069  13.898  0.00  0.00    +0.000 A 
ENDBRANCH   8  10
ENDBRANCH   1   4
BRANCH   1  16
ATOM     16  O   UNL     1      43.622   3.792  10.261  0.00  0.00    +0.000 OA
BRANCH  16  20
ATOM     17  C   UNL     1      46.499   2.743   7.607  0.00  0.00    +0.000 A 
ATOM     18  C   UNL     1      46.135   4.080   7.729  0.00  0.00    +0.000 A 
ATOM     19  N   UNL     1      45.198   4.506   8.621  0.00  0.00    +0.000 NA
ATOM     20  C   UNL     1      44.660   3.531   9.389  0.00  0.00    +0.000 A 
ATOM     21  C   UNL     1      45.051   2.199   9.288  0.00  0.00    +0.000 A 
ATOM     22  N   UNL     1      45.971   1.762   8.395  0.00  0.00    +0.000 NA
BRANCH  17  24
ATOM     23  N   UNL     1      47.421   3.081   5.398  0.00  0.00    +0.000 N 
ATOM     24  C   UNL     1      47.443   2.320   6.540  0.00  0.00    +0.000 C 
ATOM     25  O   UNL     1      48.206   1.374   6.670  0.00  0.00    +0.000 OA
ATOM     26  H   UNL     1      48.078   2.888   4.656  0.00  0.00    +0.000 HD
ATOM     27  H   UNL     1      46.806   3.885   5.338  0.00  0.00    +0.000 HD
ENDBRANCH  17  24
ENDBRANCH  16  20
ENDBRANCH   1  16
TORSDOF 5
ENDMDL
MODEL 2
REMARK VINA RESULT:    -7.948      1.639      2.817
REMARK INTER + INTRA:         -11.136
REMARK INTER:                 -11.653
REMARK INTRA:                   0.517
REMARK UNBOUND:                -0.864
REMARK  Name = 
REMARK  5 active torsions:
REMARK  status: ('A' for Active; 'I' for Inactive)
REMARK    1  A    between atoms: C_2  and  C_4
REMARK    2  A    between atoms: C_7  and  O_8
REMARK    3  A    between atoms: O_8  and  C_9
REMARK    4  A    between atoms: C_9  and  C_10
REMARK    5  A    between atoms: C_14  and  C_15
REMARK                            x       y       z     vdW  Elec       q    Type
REMARK                         _______ _______ _______ _____ _____    ______ ____
ROOT
ATOM      1  C   UNL     1      43.886   4.839  11.211  0.00  0.00    +0.000 C 
ATOM      2  C   UNL     1      43.278   3.648  11.944  0.00  0.00    +0.000 C 
ATOM      3  C   UNL     1      42.633   4.989  12.049  0.00  0.00    +0.000 C 
ENDROOT
BRANCH   1   4
ATOM      4  C   UNL     1      45.225   5.370  11.689  0.00  0.00    +0.000 A 
ATOM      5  C   UNL     1      45.883   6.385  10.979  0.00  0.00    +0.000 A 
ATOM      6  C   UNL     1      47.058   6.958  11.455  0.00  0.00    +0.000 A 
ATOM      7  C   UNL     1      47.602   6.527  12.665  0.00  0.00    +0.000 A 
ATOM      8  C   UNL     1      46.985   5.518  13.423  0.00  0.00    +0.000 A 
ATOM      9  C   UNL     1      45.807   4.945  12.901  0.00  0.00    +0.000 A 
BRANCH   8  10
ATOM     10  C   UNL     1      47.507   5.132  14.750  0.00  0.00    +0.000 A 
ATOM     11  C   UNL     1      47.093   3.951  15.387  0.00  0.00    +0.000 A 
ATOM     12  C   UNL     1      47.633   3.572  16.615  0.00  0.00    +0.000 A 
ATOM     13  C   UNL     1      48.587   4.390  17.190  0.00  0.00    +0.000 A 
ATOM     14  N   UNL     1      49.014   5.540  16.633  0.00  0.00    +0.000 NA
ATOM     15  C   UNL     1      48.467   5.879  15.436  0.00  0.00    +0.000 A 
ENDBRANCH   8  10
ENDBRANCH   1   4
BRANCH   1  16
ATOM     16  O   UNL     1      43.753   4.673   9.779  0.00  0.00    +0.000 OA
BRANCH  16  20
ATOM     17  C   UNL     1      46.430   2.360   7.804  0.00  0.00    +0.000 A 
ATOM     18  C   UNL     1      46.426   3.734   7.592  0.00  0.00    +0.000 A 
ATOM     19  N   UNL     1      45.575   4.574   8.244  0.00  0.00    +0.000 NA
ATOM     20  C   UNL     1      44.744   3.969   9.124  0.00  0.00    +0.000 A 
ATOM     21  C   UNL     1      44.775   2.598   9.359  0.00  0.00    +0.000 A 
ATOM     22  N   UNL     1      45.607   1.752   8.706  0.00  0.00    +0.000 NA
BRANCH  17  24
ATOM     23  N   UNL     1      48.407   2.086   6.440  0.00  0.00    +0.000 N 
ATOM     24  C   UNL     1      47.302   1.480   6.982  0.00  0.00    +0.000 C 
ATOM     25  O   UNL     1      47.069   0.292   6.812  0.00  0.00    +0.000 OA
ATOM     26  H   UNL     1      49.075   1.534   5.920  0.00  0.00    +0.000 HD
ATOM     27  H   UNL     1      48.594   3.063   6.634  0.00  0.00    +0.000 HD
ENDBRANCH  17  24
ENDBRANCH  16  20
ENDBRANCH   1  16
TORSDOF 5
ENDMDL
MODEL 3
REMARK VINA RESULT:    -7.660      3.032      7.072
REMARK INTER + INTRA:         -10.764
REMARK INTER:                 -10.351
REMARK INTRA:                  -0.412
REMARK UNBOUND:                -0.864
REMARK  Name = 
REMARK  5 active torsions:
REMARK  status: ('A' for Active; 'I' for Inactive)
REMARK    1  A    between atoms: C_2  and  C_4
REMARK    2  A    between atoms: C_7  and  O_8
REMARK    3  A    between atoms: O_8  and  C_9
REMARK    4  A    between atoms: C_9  and  C_10
REMARK    5  A    between atoms: C_14  and  C_15
REMARK                            x       y       z     vdW  Elec       q    Type
REMARK                         _______ _______ _______ _____ _____    ______ ____
ROOT
ATOM      1  C   UNL     1      46.250   7.105  12.343  0.00  0.00    +0.000 C 
ATOM      2  C   UNL     1      46.443   8.507  11.775  0.00  0.00    +0.000 C 
ATOM      3  C   UNL     1      45.682   8.321  13.044  0.00  0.00    +0.000 C 
ENDROOT
BRANCH   1   4
ATOM      4  C   UNL     1      45.355   6.140  11.586  0.00  0.00    +0.000 A 
ATOM      5  C   UNL     1      43.961   6.197  11.734  0.00  0.00    +0.000 A 
ATOM      6  C   UNL     1      43.118   5.393  10.973  0.00  0.00    +0.000 A 
ATOM      7  C   UNL     1      43.656   4.510  10.037  0.00  0.00    +0.000 A 
ATOM      8  C   UNL     1      45.043   4.414   9.841  0.00  0.00    +0.000 A 
ATOM      9  C   UNL     1      45.869   5.227  10.643  0.00  0.00    +0.000 A 
BRANCH   8  10
ATOM     10  C   UNL     1      45.608   3.551   8.781  0.00  0.00    +0.000 A 
ATOM     11  C   UNL     1      46.181   4.094   7.620  0.00  0.00    +0.000 A 
ATOM     12  C   UNL     1      46.756   3.271   6.653  0.00  0.00    +0.000 A 
ATOM     13  C   UNL     1      46.746   1.906   6.866  0.00  0.00    +0.000 A 
ATOM     14  N   UNL     1      46.200   1.327   7.955  0.00  0.00    +0.000 NA
ATOM     15  C   UNL     1      45.649   2.158   8.877  0.00  0.00    +0.000 A 
ENDBRANCH   8  10
ENDBRANCH   1   4
BRANCH   1  16
ATOM     16  O   UNL     1      47.513   6.564  12.796  0.00  0.00    +0.000 OA
BRANCH  16  20
ATOM     17  C   UNL     1      47.531   4.169  16.064  0.00  0.00    +0.000 A 
ATOM     18  C   UNL     1      48.253   5.358  16.083  0.00  0.00    +0.000 A 
ATOM     19  N   UNL     1      48.268   6.223  15.032  0.00  0.00    +0.000 NA
ATOM     20  C   UNL     1      47.513   5.845  13.974  0.00  0.00    +0.000 A 
ATOM     21  C   UNL     1      46.764   4.673  13.973  0.00  0.00    +0.000 A 
ATOM     22  N   UNL     1      46.754   3.797  15.006  0.00  0.00    +0.000 NA
BRANCH  17  24
ATOM     23  N   UNL     1      48.912   3.015  17.678  0.00  0.00    +0.000 N 
ATOM     24  C   UNL     1      47.644   3.209  17.194  0.00  0.00    +0.000 C 
ATOM     25  O   UNL     1      46.674   2.644  17.679  0.00  0.00    +0.000 OA
ATOM     26  H   UNL     1      49.054   2.422  18.483  0.00  0.00    +0.000 HD
ATOM     27  H   UNL     1      49.689   3.531  17.281  0.00  0.00    +0.000 HD
ENDBRANCH  17  24
ENDBRANCH  16  20
ENDBRANCH   1  16
TORSDOF 5
ENDMDL
MODEL 4
REMARK VINA RESULT:    -6.825      2.899      7.206
REMARK INTER + INTRA:          -9.684
REMARK INTER:                  -9.141
REMARK INTRA:                  -0.544
REMARK UNBOUND:                -0.864
REMARK  Name = 
REMARK  5 active torsions:
REMARK  status: ('A' for Active; 'I' for Inactive)
REMARK    1  A    between atoms: C_2  and  C_4
REMARK    2  A    between atoms: C_7  and  O_8
REMARK    3  A    between atoms: O_8  and  C_9
REMARK    4  A    between atoms: C_9  and  C_10
REMARK    5  A    between atoms: C_14  and  C_15
REMARK                            x       y       z     vdW  Elec       q    Type
REMARK                         _______ _______ _______ _____ _____    ______ ____
ROOT
ATOM      1  C   UNL     1      45.078   5.484  11.710  0.00  0.00    +0.000 C 
ATOM      2  C   UNL     1      44.168   6.654  11.354  0.00  0.00    +0.000 C 
ATOM      3  C   UNL     1      44.006   5.963  12.667  0.00  0.00    +0.000 C 
ENDROOT
BRANCH   1   4
ATOM      4  C   UNL     1      44.922   4.189  10.934  0.00  0.00    +0.000 A 
ATOM      5  C   UNL     1      43.916   3.272  11.274  0.00  0.00    +0.000 A 
ATOM      6  C   UNL     1      43.689   2.129  10.513  0.00  0.00    +0.000 A 
ATOM      7  C   UNL     1      44.467   1.881   9.382  0.00  0.00    +0.000 A 
ATOM      8  C   UNL     1      45.485   2.766   8.989  0.00  0.00    +0.000 A 
ATOM      9  C   UNL     1      45.702   3.902   9.795  0.00  0.00    +0.000 A 
BRANCH   8  10
ATOM     10  C   UNL     1      46.242   2.553   7.738  0.00  0.00    +0.000 A 
ATOM     11  C   UNL     1      46.195   3.479   6.684  0.00  0.00    +0.000 A 
ATOM     12  C   UNL     1      46.955   3.291   5.530  0.00  0.00    +0.000 A 
ATOM     13  C   UNL     1      47.757   2.169   5.451  0.00  0.00    +0.000 A 
ATOM     14  N   UNL     1      47.835   1.240   6.425  0.00  0.00    +0.000 NA
ATOM     15  C   UNL     1      47.081   1.454   7.535  0.00  0.00    +0.000 A 
ENDBRANCH   8  10
ENDBRANCH   1   4
BRANCH   1  16
ATOM     16  O   UNL     1      46.438   5.941  11.900  0.00  0.00    +0.000 OA
BRANCH  16  20
ATOM     17  C   UNL     1      48.061   5.653  15.602  0.00  0.00    +0.000 A 
ATOM     18  C   UNL     1      47.300   4.600  15.104  0.00  0.00    +0.000 A 
ATOM     19  N   UNL     1      46.751   4.618  13.858  0.00  0.00    +0.000 NA
ATOM     20  C   UNL     1      47.015   5.731  13.136  0.00  0.00    +0.000 A 
ATOM     21  C   UNL     1      47.806   6.767  13.624  0.00  0.00    +0.000 A 
ATOM     22  N   UNL     1      48.344   6.767  14.867  0.00  0.00    +0.000 NA
BRANCH  17  24
ATOM     23  N   UNL     1      47.567   5.445  17.958  0.00  0.00    +0.000 N 
ATOM     24  C   UNL     1      48.540   5.629  17.008  0.00  0.00    +0.000 C 
ATOM     25  O   UNL     1      49.720   5.741  17.307  0.00  0.00    +0.000 OA
ATOM     26  H   UNL     1      47.828   5.358  18.930  0.00  0.00    +0.000 HD
ATOM     27  H   UNL     1      46.603   5.313  17.676  0.00  0.00    +0.000 HD
ENDBRANCH  17  24
ENDBRANCH  16  20
ENDBRANCH   1  16
TORSDOF 5
ENDMDL
MODEL 5
REMARK VINA RESULT:    -6.425      3.481      7.790
REMARK INTER + INTRA:          -9.167
REMARK INTER:                  -8.605
REMARK INTRA:                  -0.563
REMARK UNBOUND:                -0.864
REMARK  Name = 
REMARK  5 active torsions:
REMARK  status: ('A' for Active; 'I' for Inactive)
REMARK    1  A    between atoms: C_2  and  C_4
REMARK    2  A    between atoms: C_7  and  O_8
REMARK    3  A    between atoms: O_8  and  C_9
REMARK    4  A    between atoms: C_9  and  C_10
REMARK    5  A    between atoms: C_14  and  C_15
REMARK                            x       y       z     vdW  Elec       q    Type
REMARK                         _______ _______ _______ _____ _____    ______ ____
ROOT
ATOM      1  C   UNL     1      48.135   7.809  12.912  0.00  0.00    +0.000 C 
ATOM      2  C   UNL     1      48.987   8.836  12.175  0.00  0.00    +0.000 C 
ATOM      3  C   UNL     1      48.422   9.168  13.515  0.00  0.00    +0.000 C 
ENDROOT
BRANCH   1   4
ATOM      4  C   UNL     1      46.768   7.470  12.345  0.00  0.00    +0.000 A 
ATOM      5  C   UNL     1      45.712   8.391  12.433  0.00  0.00    +0.000 A 
ATOM      6  C   UNL     1      44.483   8.143  11.830  0.00  0.00    +0.000 A 
ATOM      7  C   UNL     1      44.283   6.962  11.116  0.00  0.00    +0.000 A 
ATOM      8  C   UNL     1      45.304   6.006  10.989  0.00  0.00    +0.000 A 
ATOM      9  C   UNL     1      46.530   6.278  11.630  0.00  0.00    +0.000 A 
BRANCH   8  10
ATOM     10  C   UNL     1      45.124   4.801  10.151  0.00  0.00    +0.000 A 
ATOM     11  C   UNL     1      45.637   4.732   8.846  0.00  0.00    +0.000 A 
ATOM     12  C   UNL     1      45.505   3.570   8.086  0.00  0.00    +0.000 A 
ATOM     13  C   UNL     1      44.856   2.489   8.651  0.00  0.00    +0.000 A 
ATOM     14  N   UNL     1      44.333   2.501   9.894  0.00  0.00    +0.000 NA
ATOM     15  C   UNL     1      44.480   3.649  10.606  0.00  0.00    +0.000 A 
ENDBRANCH   8  10
ENDBRANCH   1   4
BRANCH   1  16
ATOM     16  O   UNL     1      48.942   6.679  13.319  0.00  0.00    +0.000 OA
BRANCH  16  20
ATOM     17  C   UNL     1      48.129   5.346  17.059  0.00  0.00    +0.000 A 
ATOM     18  C   UNL     1      47.573   4.694  15.964  0.00  0.00    +0.000 A 
ATOM     19  N   UNL     1      47.827   5.069  14.680  0.00  0.00    +0.000 NA
ATOM     20  C   UNL     1      48.674   6.116  14.551  0.00  0.00    +0.000 A 
ATOM     21  C   UNL     1      49.256   6.745  15.648  0.00  0.00    +0.000 A 
ATOM     22  N   UNL     1      48.999   6.389  16.929  0.00  0.00    +0.000 NA
BRANCH  17  24
ATOM     23  N   UNL     1      46.565   5.536  18.892  0.00  0.00    +0.000 N 
ATOM     24  C   UNL     1      47.727   4.966  18.438  0.00  0.00    +0.000 C 
ATOM     25  O   UNL     1      48.370   4.182  19.121  0.00  0.00    +0.000 OA
ATOM     26  H   UNL     1      46.201   5.276  19.797  0.00  0.00    +0.000 HD
ATOM     27  H   UNL     1      46.033   6.150  18.286  0.00  0.00    +0.000 HD
ENDBRANCH  17  24
ENDBRANCH  16  20
ENDBRANCH   1  16
TORSDOF 5
ENDMDL
MODEL 6
REMARK VINA RESULT:    -6.236      3.118      5.637
REMARK INTER + INTRA:          -8.923
REMARK INTER:                  -8.352
REMARK INTRA:                  -0.571
REMARK UNBOUND:                -0.864
REMARK  Name = 
REMARK  5 active torsions:
REMARK  status: ('A' for Active; 'I' for Inactive)
REMARK    1  A    between atoms: C_2  and  C_4
REMARK    2  A    between atoms: C_7  and  O_8
REMARK    3  A    between atoms: O_8  and  C_9
REMARK    4  A    between atoms: C_9  and  C_10
REMARK    5  A    between atoms: C_14  and  C_15
REMARK                            x       y       z     vdW  Elec       q    Type
REMARK                         _______ _______ _______ _____ _____    ______ ____
ROOT
ATOM      1  C   UNL     1      47.931   8.116  12.594  0.00  0.00    +0.000 C 
ATOM      2  C   UNL     1      48.594   9.215  11.772  0.00  0.00    +0.000 C 
ATOM      3  C   UNL     1      48.953   7.788  11.525  0.00  0.00    +0.000 C 
ENDROOT
BRANCH   1   4
ATOM      4  C   UNL     1      48.274   8.017  14.070  0.00  0.00    +0.000 A 
ATOM      5  C   UNL     1      48.176   9.144  14.900  0.00  0.00    +0.000 A 
ATOM      6  C   UNL     1      48.385   9.052  16.273  0.00  0.00    +0.000 A 
ATOM      7  C   UNL     1      48.695   7.820  16.850  0.00  0.00    +0.000 A 
ATOM      8  C   UNL     1      48.800   6.657  16.069  0.00  0.00    +0.000 A 
ATOM      9  C   UNL     1      48.604   6.789  14.679  0.00  0.00    +0.000 A 
BRANCH   8  10
ATOM     10  C   UNL     1      49.031   5.336  16.693  0.00  0.00    +0.000 A 
ATOM     11  C   UNL     1      48.072   4.313  16.621  0.00  0.00    +0.000 A 
ATOM     12  C   UNL     1      48.324   3.056  17.168  0.00  0.00    +0.000 A 
ATOM     13  C   UNL     1      49.543   2.843  17.784  0.00  0.00    +0.000 A 
ATOM     14  N   UNL     1      50.496   3.790  17.894  0.00  0.00    +0.000 NA
ATOM     15  C   UNL     1      50.217   5.003  17.350  0.00  0.00    +0.000 A 
ENDBRANCH   8  10
ENDBRANCH   1   4
BRANCH   1  16
ATOM     16  O   UNL     1      46.524   8.019  12.270  0.00  0.00    +0.000 OA
BRANCH  16  20
ATOM     17  C   UNL     1      44.801   4.409  11.622  0.00  0.00    +0.000 A 
ATOM     18  C   UNL     1      45.328   5.118  10.548  0.00  0.00    +0.000 A 
ATOM     19  N   UNL     1      45.947   6.322  10.698  0.00  0.00    +0.000 NA
ATOM     20  C   UNL     1      46.023   6.767  11.973  0.00  0.00    +0.000 A 
ATOM     21  C   UNL     1      45.525   6.039  13.049  0.00  0.00    +0.000 A 
ATOM     22  N   UNL     1      44.895   4.848  12.911  0.00  0.00    +0.000 NA
BRANCH  17  24
ATOM     23  N   UNL     1      43.685   2.459  12.515  0.00  0.00    +0.000 N 
ATOM     24  C   UNL     1      44.036   3.157  11.387  0.00  0.00    +0.000 C 
ATOM     25  O   UNL     1      43.718   2.778  10.269  0.00  0.00    +0.000 OA
ATOM     26  H   UNL     1      43.113   1.631  12.432  0.00  0.00    +0.000 HD
ATOM     27  H   UNL     1      43.928   2.822  13.429  0.00  0.00    +0.000 HD
ENDBRANCH  17  24
ENDBRANCH  16  20
ENDBRANCH   1  16
TORSDOF 5
ENDMDL
MODEL 7
REMARK VINA RESULT:    -5.918      5.475      7.710
REMARK INTER + INTRA:          -8.512
REMARK INTER:                  -8.016
REMARK INTRA:                  -0.496
REMARK UNBOUND:                -0.864
REMARK  Name = 
REMARK  5 active torsions:
REMARK  status: ('A' for Active; 'I' for Inactive)
REMARK    1  A    between atoms: C_2  and  C_4
REMARK    2  A    between atoms: C_7  and  O_8
REMARK    3  A    between atoms: O_8  and  C_9
REMARK    4  A    between atoms: C_9  and  C_10
REMARK    5  A    between atoms: C_14  and  C_15
REMARK                            x       y       z     vdW  Elec       q    Type
REMARK                         _______ _______ _______ _____ _____    ______ ____
ROOT
ATOM      1  C   UNL     1      48.035   3.859  16.639  0.00  0.00    +0.000 C 
ATOM      2  C   UNL     1      47.237   2.890  17.503  0.00  0.00    +0.000 C 
ATOM      3  C   UNL     1      46.847   4.329  17.452  0.00  0.00    +0.000 C 
ENDROOT
BRANCH   1   4
ATOM      4  C   UNL     1      49.457   4.190  17.056  0.00  0.00    +0.000 A 
ATOM      5  C   UNL     1      49.832   5.516  17.318  0.00  0.00    +0.000 A 
ATOM      6  C   UNL     1      51.100   5.830  17.800  0.00  0.00    +0.000 A 
ATOM      7  C   UNL     1      52.025   4.813  18.036  0.00  0.00    +0.000 A 
ATOM      8  C   UNL     1      51.705   3.466  17.798  0.00  0.00    +0.000 A 
ATOM      9  C   UNL     1      50.420   3.186  17.289  0.00  0.00    +0.000 A 
BRANCH   8  10
ATOM     10  C   UNL     1      52.650   2.383  18.141  0.00  0.00    +0.000 A 
ATOM     11  C   UNL     1      52.560   1.115  17.547  0.00  0.00    +0.000 A 
ATOM     12  C   UNL     1      53.490   0.118  17.841  0.00  0.00    +0.000 A 
ATOM     13  C   UNL     1      54.503   0.412  18.734  0.00  0.00    +0.000 A 
ATOM     14  N   UNL     1      54.633   1.607  19.345  0.00  0.00    +0.000 NA
ATOM     15  C   UNL     1      53.710   2.555  19.035  0.00  0.00    +0.000 A 
ENDBRANCH   8  10
ENDBRANCH   1   4
BRANCH   1  16
ATOM     16  O   UNL     1      47.847   3.559  15.236  0.00  0.00    +0.000 OA
BRANCH  16  20
ATOM     17  C   UNL     1      45.858   6.204  12.897  0.00  0.00    +0.000 A 
ATOM     18  C   UNL     1      45.270   4.981  13.200  0.00  0.00    +0.000 A 
ATOM     19  N   UNL     1      45.868   4.058  14.003  0.00  0.00    +0.000 NA
ATOM     20  C   UNL     1      47.072   4.430  14.496  0.00  0.00    +0.000 A 
ATOM     21  C   UNL     1      47.641   5.669  14.220  0.00  0.00    +0.000 A 
ATOM     22  N   UNL     1      47.062   6.588  13.411  0.00  0.00    +0.000 NA
BRANCH  17  24
ATOM     23  N   UNL     1      44.413   6.521  10.986  0.00  0.00    +0.000 N 
ATOM     24  C   UNL     1      45.211   7.124  11.925  0.00  0.00    +0.000 C 
ATOM     25  O   UNL     1      45.357   8.337  11.966  0.00  0.00    +0.000 OA
ATOM     26  H   UNL     1      43.895   7.090  10.331  0.00  0.00    +0.000 HD
ATOM     27  H   UNL     1      44.280   5.517  11.005  0.00  0.00    +0.000 HD
ENDBRANCH  17  24
ENDBRANCH  16  20
ENDBRANCH   1  16
TORSDOF 5
ENDMDL
MODEL 8
REMARK VINA RESULT:    -5.888      5.288      8.503
REMARK INTER + INTRA:          -8.474
REMARK INTER:                  -8.473
REMARK INTRA:                  -0.001
REMARK UNBOUND:                -0.864
REMARK  Name = 
REMARK  5 active torsions:
REMARK  status: ('A' for Active; 'I' for Inactive)
REMARK    1  A    between atoms: C_2  and  C_4
REMARK    2  A    between atoms: C_7  and  O_8
REMARK    3  A    between atoms: O_8  and  C_9
REMARK    4  A    between atoms: C_9  and  C_10
REMARK    5  A    between atoms: C_14  and  C_15
REMARK                            x       y       z     vdW  Elec       q    Type
REMARK                         _______ _______ _______ _____ _____    ______ ____
ROOT
ATOM      1  C   UNL     1      48.181   4.660  16.882  0.00  0.00    +0.000 C 
ATOM      2  C   UNL     1      47.148   4.782  17.996  0.00  0.00    +0.000 C 
ATOM      3  C   UNL     1      47.383   3.460  17.347  0.00  0.00    +0.000 C 
ENDROOT
BRANCH   1   4
ATOM      4  C   UNL     1      47.889   5.335  15.554  0.00  0.00    +0.000 A 
ATOM      5  C   UNL     1      48.688   6.398  15.105  0.00  0.00    +0.000 A 
ATOM      6  C   UNL     1      48.502   6.963  13.846  0.00  0.00    +0.000 A 
ATOM      7  C   UNL     1      47.508   6.468  13.002  0.00  0.00    +0.000 A 
ATOM      8  C   UNL     1      46.682   5.403  13.394  0.00  0.00    +0.000 A 
ATOM      9  C   UNL     1      46.882   4.869  14.684  0.00  0.00    +0.000 A 
BRANCH   8  10
ATOM     10  C   UNL     1      45.696   4.816  12.462  0.00  0.00    +0.000 A 
ATOM     11  C   UNL     1      45.333   3.462  12.535  0.00  0.00    +0.000 A 
ATOM     12  C   UNL     1      44.364   2.933  11.683  0.00  0.00    +0.000 A 
ATOM     13  C   UNL     1      43.769   3.778  10.765  0.00  0.00    +0.000 A 
ATOM     14  N   UNL     1      44.085   5.083  10.641  0.00  0.00    +0.000 NA
ATOM     15  C   UNL     1      45.034   5.564  11.486  0.00  0.00    +0.000 A 
ENDBRANCH   8  10
ENDBRANCH   1   4
BRANCH   1  16
ATOM     16  O   UNL     1      49.516   4.858  17.405  0.00  0.00    +0.000 OA
BRANCH  16  20
ATOM     17  C   UNL     1      52.140   1.779  17.632  0.00  0.00    +0.000 A 
ATOM     18  C   UNL     1      50.913   1.587  17.007  0.00  0.00    +0.000 A 
ATOM     19  N   UNL     1      49.997   2.585  16.868  0.00  0.00    +0.000 NA
ATOM     20  C   UNL     1      50.379   3.781  17.373  0.00  0.00    +0.000 A 
ATOM     21  C   UNL     1      51.621   3.978  17.967  0.00  0.00    +0.000 A 
ATOM     22  N   UNL     1      52.534   2.989  18.124  0.00  0.00    +0.000 NA
BRANCH  17  24
ATOM     23  N   UNL     1      52.480  -0.473  18.443  0.00  0.00    +0.000 N 
ATOM     24  C   UNL     1      53.052   0.627  17.856  0.00  0.00    +0.000 C 
ATOM     25  O   UNL     1      54.228   0.641  17.522  0.00  0.00    +0.000 OA
ATOM     26  H   UNL     1      53.026  -1.313  18.570  0.00  0.00    +0.000 HD
ATOM     27  H   UNL     1      51.492  -0.469  18.669  0.00  0.00    +0.000 HD
ENDBRANCH  17  24
ENDBRANCH  16  20
ENDBRANCH   1  16
TORSDOF 5
ENDMDL
MODEL 9
REMARK VINA RESULT:    -5.562      4.509      8.681
REMARK INTER + INTRA:          -8.052
REMARK INTER:                  -7.397
REMARK INTRA:                  -0.655
REMARK UNBOUND:                -0.864
REMARK  Name = 
REMARK  5 active torsions:
REMARK  status: ('A' for Active; 'I' for Inactive)
REMARK    1  A    between atoms: C_2  and  C_4
REMARK    2  A    between atoms: C_7  and  O_8
REMARK    3  A    between atoms: O_8  and  C_9
REMARK    4  A    between atoms: C_9  and  C_10
REMARK    5  A    between atoms: C_14  and  C_15
REMARK                            x       y       z     vdW  Elec       q    Type
REMARK                         _______ _______ _______ _____ _____    ______ ____
ROOT
ATOM      1  C   UNL     1      49.048   8.383  15.221  0.00  0.00    +0.000 C 
ATOM      2  C   UNL     1      49.243   9.871  15.488  0.00  0.00    +0.000 C 
ATOM      3  C   UNL     1      48.137   9.136  16.168  0.00  0.00    +0.000 C 
ENDROOT
BRANCH   1   4
ATOM      4  C   UNL     1      48.574   7.956  13.843  0.00  0.00    +0.000 A 
ATOM      5  C   UNL     1      49.311   8.299  12.699  0.00  0.00    +0.000 A 
ATOM      6  C   UNL     1      48.952   7.831  11.439  0.00  0.00    +0.000 A 
ATOM      7  C   UNL     1      47.842   7.000  11.295  0.00  0.00    +0.000 A 
ATOM      8  C   UNL     1      47.069   6.618  12.405  0.00  0.00    +0.000 A 
ATOM      9  C   UNL     1      47.448   7.127  13.664  0.00  0.00    +0.000 A 
BRANCH   8  10
ATOM     10  C   UNL     1      45.953   5.659  12.266  0.00  0.00    +0.000 A 
ATOM     11  C   UNL     1      45.414   5.337  11.010  0.00  0.00    +0.000 A 
ATOM     12  C   UNL     1      44.396   4.391  10.889  0.00  0.00    +0.000 A 
ATOM     13  C   UNL     1      43.932   3.780  12.038  0.00  0.00    +0.000 A 
ATOM     14  N   UNL     1      44.402   4.057  13.271  0.00  0.00    +0.000 NA
ATOM     15  C   UNL     1      45.393   4.983  13.352  0.00  0.00    +0.000 A 
ENDBRANCH   8  10
ENDBRANCH   1   4
BRANCH   1  16
ATOM     16  O   UNL     1      50.150   7.622  15.768  0.00  0.00    +0.000 OA
BRANCH  16  20
ATOM     17  C   UNL     1      49.198   5.109  18.802  0.00  0.00    +0.000 A 
ATOM     18  C   UNL     1      48.858   4.766  17.497  0.00  0.00    +0.000 A 
ATOM     19  N   UNL     1      49.174   5.549  16.428  0.00  0.00    +0.000 NA
ATOM     20  C   UNL     1      49.856   6.677  16.731  0.00  0.00    +0.000 A 
ATOM     21  C   UNL     1      50.225   6.999  18.034  0.00  0.00    +0.000 A 
ATOM     22  N   UNL     1      49.903   6.236  19.106  0.00  0.00    +0.000 NA
BRANCH  17  24
ATOM     23  N   UNL     1      48.298   3.015  19.607  0.00  0.00    +0.000 N 
ATOM     24  C   UNL     1      48.728   4.275  19.939  0.00  0.00    +0.000 C 
ATOM     25  O   UNL     1      48.742   4.668  21.096  0.00  0.00    +0.000 OA
ATOM     26  H   UNL     1      48.022   2.373  20.337  0.00  0.00    +0.000 HD
ATOM     27  H   UNL     1      48.339   2.704  18.644  0.00  0.00    +0.000 HD
ENDBRANCH  17  24
ENDBRANCH  16  20
ENDBRANCH   1  16
TORSDOF 5
ENDMDL
