MODEL 1
REMARK VINA RESULT:    -6.918      0.000      0.000
REMARK INTER + INTRA:          -9.498
REMARK INTER:                  -8.940
REMARK INTRA:                  -0.558
REMARK UNBOUND:                -0.558
REMARK  Name = 
REMARK  8 active torsions:
REMARK  status: ('A' for Active; 'I' for Inactive)
REMARK    1  A    between atoms: C_1  and  C_2
REMARK    2  A    between atoms: C_2  and  N_3
REMARK    3  A    between atoms: C_4  and  C_6
REMARK    4  A    between atoms: N_10  and  C_11
REMARK    5  A    between atoms: C_11  and  C_12
REMARK    6  A    between atoms: C_12  and  C_13
REMARK    7  A    between atoms: C_12  and  C_14
REMARK    8  A    between atoms: C_12  and  C_15
REMARK                            x       y       z     vdW  Elec       q    Type
REMARK                         _______ _______ _______ _____ _____    ______ ____
ROOT
ATOM      1  C   UNL     1      45.335   4.175  11.389  0.00  0.00    +0.000 A 
ATOM      2  C   UNL     1      45.607   5.516  11.643  0.00  0.00    +0.000 A 
ATOM      3  C   UNL     1      46.097   5.875  12.905  0.00  0.00    +0.000 A 
ATOM      4  C   UNL     1      46.316   4.901  13.879  0.00  0.00    +0.000 A 
ATOM      5  N   UNL     1      46.926   5.296  15.061  0.00  0.00    +0.000 N 
ATOM      6  N   UNL     1      46.051   3.603  13.640  0.00  0.00    +0.000 NA
ATOM      7  C   UNL     1      45.552   3.277  12.416  0.00  0.00    +0.000 A 
ATOM      8  H   UNL     1      46.571   6.152  15.466  0.00  0.00    +0.000 HD
ENDROOT
BRANCH   1  10
ATOM      9  N   UNL     1      45.419   4.089   8.947  0.00  0.00    +0.000 N 
ATOM     10  C   UNL     1      44.785   3.675  10.105  0.00  0.00    +0.000 C 
ATOM     11  O   UNL     1      43.823   2.923  10.107  0.00  0.00    +0.000 OA
ATOM     12  H   UNL     1      46.310   4.560   9.000  0.00  0.00    +0.000 HD
BRANCH   9  14
ATOM     13  C   UNL     1      46.078   3.133   6.772  0.00  0.00    +0.000 C 
ATOM     14  C   UNL     1      44.951   3.649   7.646  0.00  0.00    +0.000 C 
ENDBRANCH   9  14
ENDBRANCH   1  10
BRANCH   5  15
ATOM     15  C   UNL     1      47.490   4.282  15.952  0.00  0.00    +0.000 C 
BRANCH  15  16
ATOM     16  C   UNL     1      48.439   4.881  17.036  0.00  0.00    +0.000 C 
ATOM     17  C   UNL     1      48.958   6.264  16.568  0.00  0.00    +0.000 C 
ATOM     18  C   UNL     1      47.686   5.075  18.371  0.00  0.00    +0.000 C 
BRANCH  16  19
ATOM     19  C   UNL     1      49.625   3.924  17.268  0.00  0.00    +0.000 A 
ATOM     20  C   UNL     1      50.785   4.341  17.925  0.00  0.00    +0.000 A 
ATOM     21  C   UNL     1      51.839   3.445  18.092  0.00  0.00    +0.000 A 
ATOM     22  C   UNL     1      51.723   2.150  17.604  0.00  0.00    +0.000 A 
ATOM     23  C   UNL     1      50.548   1.806  16.966  0.00  0.00    +0.000 A 
ATOM     24  N   UNL     1      49.512   2.657  16.791  0.00  0.00    +0.000 NA
ENDBRANCH  16  19
ENDBRANCH  15  16
ENDBRANCH   5  15
TORSDOF 5
ENDMDL
MODEL 2
REMARK VINA RESULT:    -6.773      1.234      1.746
REMARK INTER + INTRA:          -9.311
REMARK INTER:                  -8.570
REMARK INTRA:                  -0.741
REMARK UNBOUND:                -0.558
REMARK  Name = 
REMARK  8 active torsions:
REMARK  status: ('A' for Active; 'I' for Inactive)
REMARK    1  A    between atoms: C_1  and  C_2
REMARK    2  A    between atoms: C_2  and  N_3
REMARK    3  A    between atoms: C_4  and  C_6
REMARK    4  A    between atoms: N_10  and  C_11
REMARK    5  A    between atoms: C_11  and  C_12
REMARK    6  A    between atoms: C_12  and  C_13
REMARK    7  A    between atoms: C_12  and  C_14
REMARK    8  A    between atoms: C_12  and  C_15
REMARK                            x       y       z     vdW  Elec       q    Type
REMARK                         _______ _______ _______ _____ _____    ______ ____
ROOT
ATOM      1  C   UNL     1      45.323   4.684  11.508  0.00  0.00    +0.000 A 
ATOM      2  C   UNL     1      45.829   5.914  11.919  0.00  0.00    +0.000 A 
ATOM      3  C   UNL     1      46.384   6.020  13.199  0.00  0.00    +0.000 A 
ATOM      4  C   UNL     1      46.438   4.906  14.038  0.00  0.00    +0.000 A 
ATOM      5  N   UNL     1      47.118   5.036  15.240  0.00  0.00    +0.000 N 
ATOM      6  N   UNL     1      45.947   3.714  13.648  0.00  0.00    +0.000 NA
ATOM      7  C   UNL     1      45.388   3.638  12.410  0.00  0.00    +0.000 A 
ATOM      8  H   UNL     1      46.922   5.882  15.759  0.00  0.00    +0.000 HD
ENDROOT
BRANCH   1  10
ATOM      9  N   UNL     1      45.472   3.901   9.197  0.00  0.00    +0.000 N 
ATOM     10  C   UNL     1      44.683   4.453  10.190  0.00  0.00    +0.000 C 
ATOM     11  O   UNL     1      43.507   4.738  10.027  0.00  0.00    +0.000 OA
ATOM     12  H   UNL     1      46.378   3.519   9.426  0.00  0.00    +0.000 HD
BRANCH   9  14
ATOM     13  C   UNL     1      46.008   3.264   6.876  0.00  0.00    +0.000 C 
ATOM     14  C   UNL     1      44.931   3.640   7.877  0.00  0.00    +0.000 C 
ENDBRANCH   9  14
ENDBRANCH   1  10
BRANCH   5  15
ATOM     15  C   UNL     1      47.503   3.834  15.981  0.00  0.00    +0.000 C 
BRANCH  15  16
ATOM     16  C   UNL     1      48.103   4.150  17.387  0.00  0.00    +0.000 C 
ATOM     17  C   UNL     1      47.200   5.173  18.121  0.00  0.00    +0.000 C 
ATOM     18  C   UNL     1      48.178   2.869  18.246  0.00  0.00    +0.000 C 
BRANCH  16  19
ATOM     19  C   UNL     1      49.524   4.724  17.223  0.00  0.00    +0.000 A 
ATOM     20  C   UNL     1      50.640   4.083  17.768  0.00  0.00    +0.000 A 
ATOM     21  C   UNL     1      51.902   4.653  17.611  0.00  0.00    +0.000 A 
ATOM     22  C   UNL     1      52.035   5.846  16.915  0.00  0.00    +0.000 A 
ATOM     23  C   UNL     1      50.891   6.423  16.402  0.00  0.00    +0.000 A 
ATOM     24  N   UNL     1      49.655   5.892  16.542  0.00  0.00    +0.000 NA
ENDBRANCH  16  19
ENDBRANCH  15  16
ENDBRANCH   5  15
TORSDOF 5
ENDMDL
MODEL 3
REMARK VINA RESULT:    -6.578      2.861      8.510
REMARK INTER + INTRA:          -9.059
REMARK INTER:                  -8.482
REMARK INTRA:                  -0.577
REMARK UNBOUND:                -0.558
REMARK  Name = 
REMARK  8 active torsions:
REMARK  status: ('A' for Active; 'I' for Inactive)
REMARK    1  A    between atoms: C_1  and  C_2
REMARK    2  A    between atoms: C_2  and  N_3
REMARK    3  A    between atoms: C_4  and  C_6
REMARK    4  A    between atoms: N_10  and  C_11
REMARK    5  A    between atoms: C_11  and  C_12
REMARK    6  A    between atoms: C_12  and  C_13
REMARK    7  A    between atoms: C_12  and  C_14
REMARK    8  A    between atoms: C_12  and  C_15
REMARK                            x       y       z     vdW  Elec       q    Type
REMARK                         _______ _______ _______ _____ _____    ______ ____
ROOT
ATOM      1  C   UNL     1      48.279   4.716  16.786  0.00  0.00    +0.000 A 
ATOM      2  C   UNL     1      48.525   5.854  16.022  0.00  0.00    +0.000 A 
ATOM      3  C   UNL     1      47.910   5.969  14.770  0.00  0.00    +0.000 A 
ATOM      4  C   UNL     1      47.058   4.966  14.308  0.00  0.00    +0.000 A 
ATOM      5  N   UNL     1      46.374   5.195  13.123  0.00  0.00    +0.000 N 
ATOM      6  N   UNL     1      46.819   3.862  15.040  0.00  0.00    +0.000 NA
ATOM      7  C   UNL     1      47.446   3.755  16.243  0.00  0.00    +0.000 A 
ATOM      8  H   UNL     1      46.928   5.586  12.372  0.00  0.00    +0.000 HD
ENDROOT
BRANCH   1  10
ATOM      9  N   UNL     1      48.127   4.754  19.225  0.00  0.00    +0.000 N 
ATOM     10  C   UNL     1      48.894   4.463  18.112  0.00  0.00    +0.000 C 
ATOM     11  O   UNL     1      50.025   4.007  18.180  0.00  0.00    +0.000 OA
ATOM     12  H   UNL     1      47.143   4.956  19.122  0.00  0.00    +0.000 HD
BRANCH   9  14
ATOM     13  C   UNL     1      49.362   5.760  21.107  0.00  0.00    +0.000 C 
ATOM     14  C   UNL     1      48.646   4.538  20.562  0.00  0.00    +0.000 C 
ENDBRANCH   9  14
ENDBRANCH   1  10
BRANCH   5  15
ATOM     15  C   UNL     1      45.228   4.353  12.781  0.00  0.00    +0.000 C 
BRANCH  15  16
ATOM     16  C   UNL     1      44.420   4.889  11.558  0.00  0.00    +0.000 C 
ATOM     17  C   UNL     1      42.901   4.753  11.836  0.00  0.00    +0.000 C 
ATOM     18  C   UNL     1      44.733   6.382  11.311  0.00  0.00    +0.000 C 
BRANCH  16  19
ATOM     19  C   UNL     1      44.800   4.085  10.298  0.00  0.00    +0.000 A 
ATOM     20  C   UNL     1      45.437   4.687   9.210  0.00  0.00    +0.000 A 
ATOM     21  C   UNL     1      45.740   3.923   8.085  0.00  0.00    +0.000 A 
ATOM     22  C   UNL     1      45.408   2.575   8.060  0.00  0.00    +0.000 A 
ATOM     23  C   UNL     1      44.780   2.046   9.171  0.00  0.00    +0.000 A 
ATOM     24  N   UNL     1      44.474   2.767  10.274  0.00  0.00    +0.000 NA
ENDBRANCH  16  19
ENDBRANCH  15  16
ENDBRANCH   5  15
TORSDOF 5
ENDMDL
MODEL 4
REMARK VINA RESULT:    -6.263      5.174      7.725
REMARK INTER + INTRA:          -8.651
REMARK INTER:                  -7.747
REMARK INTRA:                  -0.904
REMARK UNBOUND:                -0.558
REMARK  Name = 
REMARK  8 active torsions:
REMARK  status: ('A' for Active; 'I' for Inactive)
REMARK    1  A    between atoms: C_1  and  C_2
REMARK    2  A    between atoms: C_2  and  N_3
REMARK    3  A    between atoms: C_4  and  C_6
REMARK    4  A    between atoms: N_10  and  C_11
REMARK    5  A    between atoms: C_11  and  C_12
REMARK    6  A    between atoms: C_12  and  C_13
REMARK    7  A    between atoms: C_12  and  C_14
REMARK    8  A    between atoms: C_12  and  C_15
REMARK                            x       y       z     vdW  Elec       q    Type
REMARK                         _______ _______ _______ _____ _____    ______ ____
ROOT
ATOM      1  C   UNL     1      48.254   8.739  12.087  0.00  0.00    +0.000 A 
ATOM      2  C   UNL     1      47.072   9.306  12.557  0.00  0.00    +0.000 A 
ATOM      3  C   UNL     1      45.942   8.491  12.690  0.00  0.00    +0.000 A 
ATOM      4  C   UNL     1      46.009   7.135  12.369  0.00  0.00    +0.000 A 
ATOM      5  N   UNL     1      44.899   6.350  12.646  0.00  0.00    +0.000 N 
ATOM      6  N   UNL     1      47.148   6.582  11.911  0.00  0.00    +0.000 NA
ATOM      7  C   UNL     1      48.229   7.396  11.763  0.00  0.00    +0.000 A 
ATOM      8  H   UNL     1      44.009   6.751  12.381  0.00  0.00    +0.000 HD
ENDROOT
BRANCH   1  10
ATOM      9  N   UNL     1      50.569   8.822  11.307  0.00  0.00    +0.000 N 
ATOM     10  C   UNL     1      49.507   9.504  11.874  0.00  0.00    +0.000 C 
ATOM     11  O   UNL     1      49.560  10.684  12.184  0.00  0.00    +0.000 OA
ATOM     12  H   UNL     1      50.425   7.908  10.905  0.00  0.00    +0.000 HD
BRANCH   9  14
ATOM     13  C   UNL     1      52.596   8.871   9.904  0.00  0.00    +0.000 C 
ATOM     14  C   UNL     1      51.833   9.490  11.061  0.00  0.00    +0.000 C 
ENDBRANCH   9  14
ENDBRANCH   1  10
BRANCH   5  15
ATOM     15  C   UNL     1      45.035   4.893  12.660  0.00  0.00    +0.000 C 
BRANCH  15  16
ATOM     16  C   UNL     1      43.970   4.173  11.777  0.00  0.00    +0.000 C 
ATOM     17  C   UNL     1      43.489   2.883  12.488  0.00  0.00    +0.000 C 
ATOM     18  C   UNL     1      42.744   5.085  11.550  0.00  0.00    +0.000 C 
BRANCH  16  19
ATOM     19  C   UNL     1      44.589   3.821  10.409  0.00  0.00    +0.000 A 
ATOM     20  C   UNL     1      44.599   2.510   9.925  0.00  0.00    +0.000 A 
ATOM     21  C   UNL     1      45.189   2.239   8.692  0.00  0.00    +0.000 A 
ATOM     22  C   UNL     1      45.759   3.273   7.961  0.00  0.00    +0.000 A 
ATOM     23  C   UNL     1      45.712   4.544   8.500  0.00  0.00    +0.000 A 
ATOM     24  N   UNL     1      45.146   4.832   9.694  0.00  0.00    +0.000 NA
ENDBRANCH  16  19
ENDBRANCH  15  16
ENDBRANCH   5  15
TORSDOF 5
ENDMDL
MODEL 5
REMARK VINA RESULT:    -5.974      1.620      2.445
REMARK INTER + INTRA:          -8.278
REMARK INTER:                  -7.527
REMARK INTRA:                  -0.751
REMARK UNBOUND:                -0.558
REMARK  Name = 
REMARK  8 active torsions:
REMARK  status: ('A' for Active; 'I' for Inactive)
REMARK    1  A    between atoms: C_1  and  C_2
REMARK    2  A    between atoms: C_2  and  N_3
REMARK    3  A    between atoms: C_4  and  C_6
REMARK    4  A    between atoms: N_10  and  C_11
REMARK    5  A    between atoms: C_11  and  C_12
REMARK    6  A    between atoms: C_12  and  C_13
REMARK    7  A    between atoms: C_12  and  C_14
REMARK    8  A    between atoms: C_12  and  C_15
REMARK                            x       y       z     vdW  Elec       q    Type
REMARK                         _______ _______ _______ _____ _____    ______ ____
ROOT
ATOM      1  C   UNL     1      45.458   5.939  11.679  0.00  0.00    +0.000 A 
ATOM      2  C   UNL     1      45.288   7.275  12.032  0.00  0.00    +0.000 A 
ATOM      3  C   UNL     1      46.113   7.818  13.024  0.00  0.00    +0.000 A 
ATOM      4  C   UNL     1      47.093   7.034  13.634  0.00  0.00    +0.000 A 
ATOM      5  N   UNL     1      47.967   7.659  14.511  0.00  0.00    +0.000 N 
ATOM      6  N   UNL     1      47.260   5.740  13.298  0.00  0.00    +0.000 NA
ATOM      7  C   UNL     1      46.432   5.223  12.351  0.00  0.00    +0.000 A 
ATOM      8  H   UNL     1      47.537   8.294  15.171  0.00  0.00    +0.000 HD
ENDROOT
BRANCH   1  10
ATOM      9  N   UNL     1      45.270   4.799   9.524  0.00  0.00    +0.000 N 
ATOM     10  C   UNL     1      44.627   5.242  10.666  0.00  0.00    +0.000 C 
ATOM     11  O   UNL     1      43.435   5.073  10.870  0.00  0.00    +0.000 OA
ATOM     12  H   UNL     1      46.278   4.800   9.480  0.00  0.00    +0.000 HD
BRANCH   9  14
ATOM     13  C   UNL     1      45.456   3.374   7.521  0.00  0.00    +0.000 C 
ATOM     14  C   UNL     1      44.538   4.106   8.482  0.00  0.00    +0.000 C 
ENDBRANCH   9  14
ENDBRANCH   1  10
BRANCH   5  15
ATOM     15  C   UNL     1      49.205   6.981  14.898  0.00  0.00    +0.000 C 
BRANCH  15  16
ATOM     16  C   UNL     1      49.333   6.778  16.439  0.00  0.00    +0.000 C 
ATOM     17  C   UNL     1      50.807   6.988  16.872  0.00  0.00    +0.000 C 
ATOM     18  C   UNL     1      48.457   7.799  17.198  0.00  0.00    +0.000 C 
BRANCH  16  19
ATOM     19  C   UNL     1      48.873   5.354  16.811  0.00  0.00    +0.000 A 
ATOM     20  C   UNL     1      47.519   5.019  16.893  0.00  0.00    +0.000 A 
ATOM     21  C   UNL     1      47.153   3.724  17.253  0.00  0.00    +0.000 A 
ATOM     22  C   UNL     1      48.137   2.783  17.525  0.00  0.00    +0.000 A 
ATOM     23  C   UNL     1      49.455   3.182  17.423  0.00  0.00    +0.000 A 
ATOM     24  N   UNL     1      49.835   4.432  17.077  0.00  0.00    +0.000 NA
ENDBRANCH  16  19
ENDBRANCH  15  16
ENDBRANCH   5  15
TORSDOF 5
ENDMDL
MODEL 6
REMARK VINA RESULT:    -5.797      3.360      4.386
REMARK INTER + INTRA:          -8.049
REMARK INTER:                  -7.143
REMARK INTRA:                  -0.906
REMARK UNBOUND:                -0.558
REMARK  Name = 
REMARK  8 active torsions:
REMARK  status: ('A' for Active; 'I' for Inactive)
REMARK    1  A    between atoms: C_1  and  C_2
REMARK    2  A    between atoms: C_2  and  N_3
REMARK    3  A    between atoms: C_4  and  C_6
REMARK    4  A    between atoms: N_10  and  C_11
REMARK    5  A    between atoms: C_11  and  C_12
REMARK    6  A    between atoms: C_12  and  C_13
REMARK    7  A    between atoms: C_12  and  C_14
REMARK    8  A    between atoms: C_12  and  C_15
REMARK                            x       y       z     vdW  Elec       q    Type
REMARK                         _______ _______ _______ _____ _____    ______ ____
ROOT
ATOM      1  C   UNL     1      45.064   4.240  11.454  0.00  0.00    +0.000 A 
ATOM      2  C   UNL     1      45.097   4.178  12.844  0.00  0.00    +0.000 A 
ATOM      3  C   UNL     1      45.625   5.264  13.553  0.00  0.00    +0.000 A 
ATOM      4  C   UNL     1      46.097   6.387  12.874  0.00  0.00    +0.000 A 
ATOM      5  N   UNL     1      46.485   7.484  13.631  0.00  0.00    +0.000 N 
ATOM      6  N   UNL     1      46.071   6.451  11.529  0.00  0.00    +0.000 NA
ATOM      7  C   UNL     1      45.578   5.376  10.856  0.00  0.00    +0.000 A 
ATOM      8  H   UNL     1      47.056   7.272  14.438  0.00  0.00    +0.000 HD
ENDROOT
BRANCH   1  10
ATOM      9  N   UNL     1      45.403   2.689   9.595  0.00  0.00    +0.000 N 
ATOM     10  C   UNL     1      44.559   3.144  10.591  0.00  0.00    +0.000 C 
ATOM     11  O   UNL     1      43.446   2.680  10.788  0.00  0.00    +0.000 OA
ATOM     12  H   UNL     1      46.371   2.975   9.584  0.00  0.00    +0.000 HD
BRANCH   9  14
ATOM     13  C   UNL     1      46.172   0.965   8.009  0.00  0.00    +0.000 C 
ATOM     14  C   UNL     1      44.993   1.620   8.705  0.00  0.00    +0.000 C 
ENDBRANCH   9  14
ENDBRANCH   1  10
BRANCH   5  15
ATOM     15  C   UNL     1      46.648   8.784  12.980  0.00  0.00    +0.000 C 
BRANCH  15  16
ATOM     16  C   UNL     1      48.134   9.255  12.922  0.00  0.00    +0.000 C 
ATOM     17  C   UNL     1      48.798   8.727  11.625  0.00  0.00    +0.000 C 
ATOM     18  C   UNL     1      48.216  10.798  12.911  0.00  0.00    +0.000 C 
BRANCH  16  19
ATOM     19  C   UNL     1      48.890   8.725  14.156  0.00  0.00    +0.000 A 
ATOM     20  C   UNL     1      50.101   8.039  14.034  0.00  0.00    +0.000 A 
ATOM     21  C   UNL     1      50.737   7.559  15.178  0.00  0.00    +0.000 A 
ATOM     22  C   UNL     1      50.160   7.771  16.423  0.00  0.00    +0.000 A 
ATOM     23  C   UNL     1      48.963   8.458  16.469  0.00  0.00    +0.000 A 
ATOM     24  N   UNL     1      48.327   8.932  15.374  0.00  0.00    +0.000 NA
ENDBRANCH  16  19
ENDBRANCH  15  16
ENDBRANCH   5  15
TORSDOF 5
ENDMDL
MODEL 7
REMARK VINA RESULT:    -5.485      2.340      3.294
REMARK INTER + INTRA:          -7.647
REMARK INTER:                  -6.832
REMARK INTRA:                  -0.814
REMARK UNBOUND:                -0.558
REMARK  Name = 
REMARK  8 active torsions:
REMARK  status: ('A' for Active; 'I' for Inactive)
REMARK    1  A    between atoms: C_1  and  C_2
REMARK    2  A    between atoms: C_2  and  N_3
REMARK    3  A    between atoms: C_4  and  C_6
REMARK    4  A    between atoms: N_10  and  C_11
REMARK    5  A    between atoms: C_11  and  C_12
REMARK    6  A    between atoms: C_12  and  C_13
REMARK    7  A    between atoms: C_12  and  C_14
REMARK    8  A    between atoms: C_12  and  C_15
REMARK                            x       y       z     vdW  Elec       q    Type
REMARK                         _______ _______ _______ _____ _____    ______ ____
ROOT
ATOM      1  C   UNL     1      46.017   4.902  12.476  0.00  0.00    +0.000 A 
ATOM      2  C   UNL     1      46.088   4.173  13.659  0.00  0.00    +0.000 A 
ATOM      3  C   UNL     1      46.908   4.645  14.691  0.00  0.00    +0.000 A 
ATOM      4  C   UNL     1      47.627   5.830  14.534  0.00  0.00    +0.000 A 
ATOM      5  N   UNL     1      48.316   6.318  15.635  0.00  0.00    +0.000 N 
ATOM      6  N   UNL     1      47.565   6.538  13.391  0.00  0.00    +0.000 NA
ATOM      7  C   UNL     1      46.783   6.050  12.389  0.00  0.00    +0.000 A 
ATOM      8  H   UNL     1      48.845   5.629  16.154  0.00  0.00    +0.000 HD
ENDROOT
BRANCH   1  10
ATOM      9  N   UNL     1      44.986   3.135  11.137  0.00  0.00    +0.000 N 
ATOM     10  C   UNL     1      45.210   4.491  11.301  0.00  0.00    +0.000 C 
ATOM     11  O   UNL     1      44.769   5.337  10.539  0.00  0.00    +0.000 OA
ATOM     12  H   UNL     1      45.215   2.492  11.881  0.00  0.00    +0.000 HD
BRANCH   9  14
ATOM     13  C   UNL     1      45.079   2.056   8.922  0.00  0.00    +0.000 C 
ATOM     14  C   UNL     1      44.207   2.641  10.018  0.00  0.00    +0.000 C 
ENDBRANCH   9  14
ENDBRANCH   1  10
BRANCH   5  15
ATOM     15  C   UNL     1      48.785   7.704  15.633  0.00  0.00    +0.000 C 
BRANCH  15  16
ATOM     16  C   UNL     1      48.992   8.280  17.069  0.00  0.00    +0.000 C 
ATOM     17  C   UNL     1      50.420   8.870  17.192  0.00  0.00    +0.000 C 
ATOM     18  C   UNL     1      47.977   9.409  17.354  0.00  0.00    +0.000 C 
BRANCH  16  19
ATOM     19  C   UNL     1      48.794   7.157  18.107  0.00  0.00    +0.000 A 
ATOM     20  C   UNL     1      47.693   7.141  18.967  0.00  0.00    +0.000 A 
ATOM     21  C   UNL     1      47.568   6.117  19.904  0.00  0.00    +0.000 A 
ATOM     22  C   UNL     1      48.538   5.126  19.969  0.00  0.00    +0.000 A 
ATOM     23  C   UNL     1      49.599   5.203  19.088  0.00  0.00    +0.000 A 
ATOM     24  N   UNL     1      49.742   6.187  18.172  0.00  0.00    +0.000 NA
ENDBRANCH  16  19
ENDBRANCH  15  16
ENDBRANCH   5  15
TORSDOF 5
ENDMDL
MODEL 8
REMARK VINA RESULT:    -5.239      2.216      2.874
REMARK INTER + INTRA:          -7.328
REMARK INTER:                  -6.736
REMARK INTRA:                  -0.593
REMARK UNBOUND:                -0.558
REMARK  Name = 
REMARK  8 active torsions:
REMARK  status: ('A' for Active; 'I' for Inactive)
REMARK    1  A    between atoms: C_1  and  C_2
REMARK    2  A    between atoms: C_2  and  N_3
REMARK    3  A    between atoms: C_4  and  C_6
REMARK    4  A    between atoms: N_10  and  C_11
REMARK    5  A    between atoms: C_11  and  C_12
REMARK    6  A    between atoms: C_12  and  C_13
REMARK    7  A    between atoms: C_12  and  C_14
REMARK    8  A    between atoms: C_12  and  C_15
REMARK                            x       y       z     vdW  Elec       q    Type
REMARK                         _______ _______ _______ _____ _____    ______ ____
ROOT
ATOM      1  C   UNL     1      46.120   4.808  12.689  0.00  0.00    +0.000 A 
ATOM      2  C   UNL     1      46.447   6.081  12.229  0.00  0.00    +0.000 A 
ATOM      3  C   UNL     1      47.304   6.875  13.000  0.00  0.00    +0.000 A 
ATOM      4  C   UNL     1      47.827   6.389  14.199  0.00  0.00    +0.000 A 
ATOM      5  N   UNL     1      48.774   7.166  14.851  0.00  0.00    +0.000 N 
ATOM      6  N   UNL     1      47.512   5.161  14.651  0.00  0.00    +0.000 NA
ATOM      7  C   UNL     1      46.657   4.413  13.901  0.00  0.00    +0.000 A 
ATOM      8  H   UNL     1      48.556   8.151  14.914  0.00  0.00    +0.000 HD
ENDROOT
BRANCH   1  10
ATOM      9  N   UNL     1      45.058   4.067  10.616  0.00  0.00    +0.000 N 
ATOM     10  C   UNL     1      45.200   3.886  11.980  0.00  0.00    +0.000 C 
ATOM     11  O   UNL     1      44.619   3.009  12.602  0.00  0.00    +0.000 OA
ATOM     12  H   UNL     1      45.687   4.681  10.120  0.00  0.00    +0.000 HD
BRANCH   9  14
ATOM     13  C   UNL     1      44.938   2.124   9.103  0.00  0.00    +0.000 C 
ATOM     14  C   UNL     1      44.180   3.212   9.841  0.00  0.00    +0.000 C 
ENDBRANCH   9  14
ENDBRANCH   1  10
BRANCH   5  15
ATOM     15  C   UNL     1      49.598   6.563  15.899  0.00  0.00    +0.000 C 
BRANCH  15  16
ATOM     16  C   UNL     1      50.956   7.303  16.109  0.00  0.00    +0.000 C 
ATOM     17  C   UNL     1      51.430   7.914  14.766  0.00  0.00    +0.000 C 
ATOM     18  C   UNL     1      50.797   8.451  17.131  0.00  0.00    +0.000 C 
BRANCH  16  19
ATOM     19  C   UNL     1      52.008   6.308  16.637  0.00  0.00    +0.000 A 
ATOM     20  C   UNL     1      53.371   6.475  16.375  0.00  0.00    +0.000 A 
ATOM     21  C   UNL     1      54.282   5.537  16.856  0.00  0.00    +0.000 A 
ATOM     22  C   UNL     1      53.825   4.450  17.589  0.00  0.00    +0.000 A 
ATOM     23  C   UNL     1      52.466   4.348  17.810  0.00  0.00    +0.000 A 
ATOM     24  N   UNL     1      51.562   5.244  17.354  0.00  0.00    +0.000 NA
ENDBRANCH  16  19
ENDBRANCH  15  16
ENDBRANCH   5  15
TORSDOF 5
ENDMDL
MODEL 9
REMARK VINA RESULT:    -5.114      3.662      4.615
REMARK INTER + INTRA:          -7.167
REMARK INTER:                  -6.548
REMARK INTRA:                  -0.619
REMARK UNBOUND:                -0.558
REMARK  Name = 
REMARK  8 active torsions:
REMARK  status: ('A' for Active; 'I' for Inactive)
REMARK    1  A    between atoms: C_1  and  C_2
REMARK    2  A    between atoms: C_2  and  N_3
REMARK    3  A    between atoms: C_4  and  C_6
REMARK    4  A    between atoms: N_10  and  C_11
REMARK    5  A    between atoms: C_11  and  C_12
REMARK    6  A    between atoms: C_12  and  C_13
REMARK    7  A    between atoms: C_12  and  C_14
REMARK    8  A    between atoms: C_12  and  C_15
REMARK                            x       y       z     vdW  Elec       q    Type
REMARK                         _______ _______ _______ _____ _____    ______ ____
ROOT
ATOM      1  C   UNL     1      45.104   5.337  10.792  0.00  0.00    +0.000 A 
ATOM      2  C   UNL     1      44.343   5.574  11.933  0.00  0.00    +0.000 A 
ATOM      3  C   UNL     1      44.842   6.450  12.904  0.00  0.00    +0.000 A 
ATOM      4  C   UNL     1      46.073   7.080  12.720  0.00  0.00    +0.000 A 
ATOM      5  N   UNL     1      46.454   8.037  13.649  0.00  0.00    +0.000 N 
ATOM      6  N   UNL     1      46.815   6.852  11.620  0.00  0.00    +0.000 NA
ATOM      7  C   UNL     1      46.326   5.977  10.699  0.00  0.00    +0.000 A 
ATOM      8  H   UNL     1      46.309   7.781  14.617  0.00  0.00    +0.000 HD
ENDROOT
BRANCH   1  10
ATOM      9  N   UNL     1      45.595   4.226   8.670  0.00  0.00    +0.000 N 
ATOM     10  C   UNL     1      44.699   4.408   9.708  0.00  0.00    +0.000 C 
ATOM     11  O   UNL     1      43.621   3.837   9.769  0.00  0.00    +0.000 OA
ATOM     12  H   UNL     1      46.538   4.575   8.750  0.00  0.00    +0.000 HD
BRANCH   9  14
ATOM     13  C   UNL     1      46.390   3.294   6.530  0.00  0.00    +0.000 C 
ATOM     14  C   UNL     1      45.283   3.336   7.568  0.00  0.00    +0.000 C 
ENDBRANCH   9  14
ENDBRANCH   1  10
BRANCH   5  15
ATOM     15  C   UNL     1      47.540   8.961  13.323  0.00  0.00    +0.000 C 
BRANCH  15  16
ATOM     16  C   UNL     1      48.829   8.709  14.167  0.00  0.00    +0.000 C 
ATOM     17  C   UNL     1      49.063   9.901  15.130  0.00  0.00    +0.000 C 
ATOM     18  C   UNL     1      48.683   7.425  15.014  0.00  0.00    +0.000 C 
BRANCH  16  19
ATOM     19  C   UNL     1      50.038   8.549  13.224  0.00  0.00    +0.000 A 
ATOM     20  C   UNL     1      51.314   8.987  13.587  0.00  0.00    +0.000 A 
ATOM     21  C   UNL     1      52.371   8.839  12.691  0.00  0.00    +0.000 A 
ATOM     22  C   UNL     1      52.144   8.257  11.451  0.00  0.00    +0.000 A 
ATOM     23  C   UNL     1      50.858   7.846  11.160  0.00  0.00    +0.000 A 
ATOM     24  N   UNL     1      49.816   7.979  12.011  0.00  0.00    +0.000 NA
ENDBRANCH  16  19
ENDBRANCH  15  16
ENDBRANCH   5  15
TORSDOF 5
ENDMDL
