MODEL 1
REMARK VINA RESULT:    -7.039      0.000      0.000
REMARK INTER + INTRA:          -9.641
REMARK INTER:                  -9.097
REMARK INTRA:                  -0.544
REMARK UNBOUND:                -0.544
REMARK  Name = 
REMARK  6 active torsions:
REMARK  status: ('A' for Active; 'I' for Inactive)
REMARK    1  A    between atoms: C_1  and  N_2
REMARK    2  A    between atoms: N_2  and  C_3
REMARK    3  A    between atoms: C_3  and  C_4
REMARK    4  A    between atoms: C_4  and  C_5
REMARK    5  A    between atoms: C_8  and  C_9
REMARK    6  A    between atoms: C_9  and  N_10
REMARK                            x       y       z     vdW  Elec       q    Type
REMARK                         _______ _______ _______ _____ _____    ______ ____
ROOT
ATOM      1  C   UNL     1      45.801   2.564   7.972  0.00  0.00    +0.000 A 
ATOM      2  C   UNL     1      45.053   2.053   9.033  0.00  0.00    +0.000 A 
ATOM      3  C   UNL     1      44.550   2.915  10.007  0.00  0.00    +0.000 A 
ATOM      4  C   UNL     1      44.821   4.278   9.905  0.00  0.00    +0.000 A 
ATOM      5  N   UNL     1      45.536   4.797   8.878  0.00  0.00    +0.000 NA
ATOM      6  C   UNL     1      45.992   3.941   7.937  0.00  0.00    +0.000 A 
ENDROOT
BRANCH   1   7
ATOM      7  C   UNL     1      46.374   1.675   6.898  0.00  0.00    +0.000 C 
BRANCH   7   8
ATOM      8  C   UNL     1      47.901   1.535   7.018  0.00  0.00    +0.000 C 
BRANCH   8  10
ATOM      9  C   UNL     1      47.615   2.511   4.839  0.00  0.00    +0.000 C 
ATOM     10  N   UNL     1      48.562   1.898   5.761  0.00  0.00    +0.000 NA
ATOM     11  H   UNL     1      49.321   2.553   5.948  0.00  0.00    +0.000 HD
ENDBRANCH   8  10
ENDBRANCH   7   8
ENDBRANCH   1   7
BRANCH   4  12
ATOM     12  C   UNL     1      44.305   5.254  10.931  0.00  0.00    +0.000 C 
BRANCH  12  13
ATOM     13  N   UNL     1      45.142   5.272  12.117  0.00  0.00    +0.000 N 
ATOM     14  C   UNL     1      44.891   4.563  13.260  0.00  0.00    +0.000 A 
ATOM     15  N   UNL     1      45.817   4.763  14.168  0.00  0.00    +0.000 NA
ATOM     16  C   UNL     1      46.703   5.653  13.602  0.00  0.00    +0.000 A 
ATOM     17  C   UNL     1      47.890   6.226  14.093  0.00  0.00    +0.000 A 
ATOM     18 CL   UNL     1      48.387   5.752  15.657  0.00  0.00    +0.000 Cl
ATOM     19  C   UNL     1      48.619   7.132  13.324  0.00  0.00    +0.000 A 
ATOM     20  C   UNL     1      48.161   7.486  12.055  0.00  0.00    +0.000 A 
ATOM     21  C   UNL     1      46.987   6.935  11.524  0.00  0.00    +0.000 A 
ATOM     22  C   UNL     1      46.285   6.012  12.316  0.00  0.00    +0.000 A 
ENDBRANCH  12  13
ENDBRANCH   4  12
TORSDOF 5
ENDMDL
MODEL 2
REMARK VINA RESULT:    -7.011      1.786      2.166
REMARK INTER + INTRA:          -9.604
REMARK INTER:                  -9.063
REMARK INTRA:                  -0.541
REMARK UNBOUND:                -0.544
REMARK  Name = 
REMARK  6 active torsions:
REMARK  status: ('A' for Active; 'I' for Inactive)
REMARK    1  A    between atoms: C_1  and  N_2
REMARK    2  A    between atoms: N_2  and  C_3
REMARK    3  A    between atoms: C_3  and  C_4
REMARK    4  A    between atoms: C_4  and  C_5
REMARK    5  A    between atoms: C_8  and  C_9
REMARK    6  A    between atoms: C_9  and  N_10
REMARK                            x       y       z     vdW  Elec       q    Type
REMARK                         _______ _______ _______ _____ _____    ______ ____
ROOT
ATOM      1  C   UNL     1      45.755   2.415   8.221  0.00  0.00    +0.000 A 
ATOM      2  C   UNL     1      45.986   3.788   8.130  0.00  0.00    +0.000 A 
ATOM      3  C   UNL     1      45.321   4.662   8.989  0.00  0.00    +0.000 A 
ATOM      4  C   UNL     1      44.422   4.141   9.917  0.00  0.00    +0.000 A 
ATOM      5  N   UNL     1      44.190   2.811  10.029  0.00  0.00    +0.000 NA
ATOM      6  C   UNL     1      44.865   1.986   9.199  0.00  0.00    +0.000 A 
ENDROOT
BRANCH   1   7
ATOM      7  C   UNL     1      46.442   1.429   7.311  0.00  0.00    +0.000 C 
BRANCH   7   8
ATOM      8  C   UNL     1      47.939   1.740   7.148  0.00  0.00    +0.000 C 
BRANCH   8  10
ATOM      9  C   UNL     1      47.480   2.662   4.974  0.00  0.00    +0.000 C 
ATOM     10  N   UNL     1      48.324   1.746   5.734  0.00  0.00    +0.000 NA
ATOM     11  H   UNL     1      49.297   2.034   5.643  0.00  0.00    +0.000 HD
ENDBRANCH   8  10
ENDBRANCH   7   8
ENDBRANCH   1   7
BRANCH   4  12
ATOM     12  C   UNL     1      43.673   5.040  10.867  0.00  0.00    +0.000 C 
BRANCH  12  13
ATOM     13  N   UNL     1      44.579   5.755  11.749  0.00  0.00    +0.000 N 
ATOM     14  C   UNL     1      45.359   5.167  12.708  0.00  0.00    +0.000 A 
ATOM     15  N   UNL     1      46.085   6.050  13.352  0.00  0.00    +0.000 NA
ATOM     16  C   UNL     1      45.754   7.270  12.803  0.00  0.00    +0.000 A 
ATOM     17  C   UNL     1      46.211   8.571  13.079  0.00  0.00    +0.000 A 
ATOM     18 CL   UNL     1      47.410   8.728  14.285  0.00  0.00    +0.000 Cl
ATOM     19  C   UNL     1      45.703   9.670  12.388  0.00  0.00    +0.000 A 
ATOM     20  C   UNL     1      44.720   9.481  11.417  0.00  0.00    +0.000 A 
ATOM     21  C   UNL     1      44.239   8.202  11.106  0.00  0.00    +0.000 A 
ATOM     22  C   UNL     1      44.784   7.113  11.807  0.00  0.00    +0.000 A 
ENDBRANCH  12  13
ENDBRANCH   4  12
TORSDOF 5
ENDMDL
MODEL 3
REMARK VINA RESULT:    -6.658      1.478      2.105
REMARK INTER + INTRA:          -9.148
REMARK INTER:                  -8.741
REMARK INTRA:                  -0.407
REMARK UNBOUND:                -0.544
REMARK  Name = 
REMARK  6 active torsions:
REMARK  status: ('A' for Active; 'I' for Inactive)
REMARK    1  A    between atoms: C_1  and  N_2
REMARK    2  A    between atoms: N_2  and  C_3
REMARK    3  A    between atoms: C_3  and  C_4
REMARK    4  A    between atoms: C_4  and  C_5
REMARK    5  A    between atoms: C_8  and  C_9
REMARK    6  A    between atoms: C_9  and  N_10
REMARK                            x       y       z     vdW  Elec       q    Type
REMARK                         _______ _______ _______ _____ _____    ______ ____
ROOT
ATOM      1  C   UNL     1      45.675   2.483   8.100  0.00  0.00    +0.000 A 
ATOM      2  C   UNL     1      45.870   3.865   8.091  0.00  0.00    +0.000 A 
ATOM      3  C   UNL     1      45.199   4.666   9.015  0.00  0.00    +0.000 A 
ATOM      4  C   UNL     1      44.331   4.065   9.923  0.00  0.00    +0.000 A 
ATOM      5  N   UNL     1      44.135   2.725   9.956  0.00  0.00    +0.000 NA
ATOM      6  C   UNL     1      44.815   1.971   9.065  0.00  0.00    +0.000 A 
ENDROOT
BRANCH   1   7
ATOM      7  C   UNL     1      46.370   1.573   7.119  0.00  0.00    +0.000 C 
BRANCH   7   8
ATOM      8  C   UNL     1      47.901   1.673   7.222  0.00  0.00    +0.000 C 
BRANCH   8  10
ATOM      9  C   UNL     1      47.464   2.580   5.038  0.00  0.00    +0.000 C 
ATOM     10  N   UNL     1      48.455   2.431   6.097  0.00  0.00    +0.000 NA
ATOM     11  H   UNL     1      48.748   3.354   6.415  0.00  0.00    +0.000 HD
ENDBRANCH   8  10
ENDBRANCH   7   8
ENDBRANCH   1   7
BRANCH   4  12
ATOM     12  C   UNL     1      43.578   4.884  10.940  0.00  0.00    +0.000 C 
BRANCH  12  13
ATOM     13  N   UNL     1      44.436   5.872  11.569  0.00  0.00    +0.000 N 
ATOM     14  C   UNL     1      44.352   7.223  11.362  0.00  0.00    +0.000 A 
ATOM     15  N   UNL     1      45.246   7.878  12.064  0.00  0.00    +0.000 NA
ATOM     16  C   UNL     1      45.957   6.915  12.748  0.00  0.00    +0.000 A 
ATOM     17  C   UNL     1      47.025   7.015  13.656  0.00  0.00    +0.000 A 
ATOM     18 CL   UNL     1      47.568   8.589  14.040  0.00  0.00    +0.000 Cl
ATOM     19  C   UNL     1      47.600   5.875  14.213  0.00  0.00    +0.000 A 
ATOM     20  C   UNL     1      47.118   4.614  13.859  0.00  0.00    +0.000 A 
ATOM     21  C   UNL     1      46.052   4.469  12.961  0.00  0.00    +0.000 A 
ATOM     22  C   UNL     1      45.482   5.638  12.431  0.00  0.00    +0.000 A 
ENDBRANCH  12  13
ENDBRANCH   4  12
TORSDOF 5
ENDMDL
MODEL 4
REMARK VINA RESULT:    -6.444      2.839      6.869
REMARK INTER + INTRA:          -8.872
REMARK INTER:                  -8.324
REMARK INTRA:                  -0.547
REMARK UNBOUND:                -0.544
REMARK  Name = 
REMARK  6 active torsions:
REMARK  status: ('A' for Active; 'I' for Inactive)
REMARK    1  A    between atoms: C_1  and  N_2
REMARK    2  A    between atoms: N_2  and  C_3
REMARK    3  A    between atoms: C_3  and  C_4
REMARK    4  A    between atoms: C_4  and  C_5
REMARK    5  A    between atoms: C_8  and  C_9
REMARK    6  A    between atoms: C_9  and  N_10
REMARK                            x       y       z     vdW  Elec       q    Type
REMARK                         _______ _______ _______ _____ _____    ______ ____
ROOT
ATOM      1  C   UNL     1      46.797   6.273  12.911  0.00  0.00    +0.000 A 
ATOM      2  C   UNL     1      46.984   6.718  11.602  0.00  0.00    +0.000 A 
ATOM      3  C   UNL     1      46.168   6.235  10.580  0.00  0.00    +0.000 A 
ATOM      4  C   UNL     1      45.184   5.298  10.890  0.00  0.00    +0.000 A 
ATOM      5  N   UNL     1      44.978   4.860  12.155  0.00  0.00    +0.000 NA
ATOM      6  C   UNL     1      45.769   5.362  13.129  0.00  0.00    +0.000 A 
ENDROOT
BRANCH   1   7
ATOM      7  C   UNL     1      47.657   6.758  14.050  0.00  0.00    +0.000 C 
BRANCH   7   8
ATOM      8  C   UNL     1      49.102   7.035  13.605  0.00  0.00    +0.000 C 
BRANCH   8  10
ATOM      9  C   UNL     1      49.325   6.557  15.951  0.00  0.00    +0.000 C 
ATOM     10  N   UNL     1      50.022   6.988  14.745  0.00  0.00    +0.000 NA
ATOM     11  H   UNL     1      50.783   6.339  14.547  0.00  0.00    +0.000 HD
ENDBRANCH   8  10
ENDBRANCH   7   8
ENDBRANCH   1   7
BRANCH   4  12
ATOM     12  C   UNL     1      44.276   4.740   9.825  0.00  0.00    +0.000 C 
BRANCH  12  13
ATOM     13  N   UNL     1      44.734   3.442   9.362  0.00  0.00    +0.000 N 
ATOM     14  C   UNL     1      44.267   2.241   9.825  0.00  0.00    +0.000 A 
ATOM     15  N   UNL     1      44.851   1.230   9.225  0.00  0.00    +0.000 NA
ATOM     16  C   UNL     1      45.750   1.793   8.345  0.00  0.00    +0.000 A 
ATOM     17  C   UNL     1      46.648   1.212   7.432  0.00  0.00    +0.000 A 
ATOM     18 CL   UNL     1      46.653  -0.494   7.332  0.00  0.00    +0.000 Cl
ATOM     19  C   UNL     1      47.483   2.005   6.647  0.00  0.00    +0.000 A 
ATOM     20  C   UNL     1      47.439   3.393   6.774  0.00  0.00    +0.000 A 
ATOM     21  C   UNL     1      46.556   4.014   7.669  0.00  0.00    +0.000 A 
ATOM     22  C   UNL     1      45.714   3.189   8.432  0.00  0.00    +0.000 A 
ENDBRANCH  12  13
ENDBRANCH   4  12
TORSDOF 5
ENDMDL
MODEL 5
REMARK VINA RESULT:    -5.948      1.996      2.574
REMARK INTER + INTRA:          -8.230
REMARK INTER:                  -7.957
REMARK INTRA:                  -0.273
REMARK UNBOUND:                -0.544
REMARK  Name = 
REMARK  6 active torsions:
REMARK  status: ('A' for Active; 'I' for Inactive)
REMARK    1  A    between atoms: C_1  and  N_2
REMARK    2  A    between atoms: N_2  and  C_3
REMARK    3  A    between atoms: C_3  and  C_4
REMARK    4  A    between atoms: C_4  and  C_5
REMARK    5  A    between atoms: C_8  and  C_9
REMARK    6  A    between atoms: C_9  and  N_10
REMARK                            x       y       z     vdW  Elec       q    Type
REMARK                         _______ _______ _______ _____ _____    ______ ____
ROOT
ATOM      1  C   UNL     1      45.528   3.400   8.497  0.00  0.00    +0.000 A 
ATOM      2  C   UNL     1      45.902   4.743   8.558  0.00  0.00    +0.000 A 
ATOM      3  C   UNL     1      45.565   5.508   9.674  0.00  0.00    +0.000 A 
ATOM      4  C   UNL     1      44.842   4.912  10.705  0.00  0.00    +0.000 A 
ATOM      5  N   UNL     1      44.478   3.608  10.672  0.00  0.00    +0.000 NA
ATOM      6  C   UNL     1      44.837   2.885   9.589  0.00  0.00    +0.000 A 
ENDROOT
BRANCH   1   7
ATOM      7  C   UNL     1      45.861   2.532   7.310  0.00  0.00    +0.000 C 
BRANCH   7   8
ATOM      8  C   UNL     1      46.763   1.347   7.696  0.00  0.00    +0.000 C 
BRANCH   8  10
ATOM      9  C   UNL     1      47.880   2.303   5.793  0.00  0.00    +0.000 C 
ATOM     10  N   UNL     1      47.950   1.290   6.840  0.00  0.00    +0.000 NA
ATOM     11  H   UNL     1      48.787   1.445   7.401  0.00  0.00    +0.000 HD
ENDBRANCH   8  10
ENDBRANCH   7   8
ENDBRANCH   1   7
BRANCH   4  12
ATOM     12  C   UNL     1      44.448   5.693  11.933  0.00  0.00    +0.000 C 
BRANCH  12  13
ATOM     13  N   UNL     1      45.180   6.944  12.026  0.00  0.00    +0.000 N 
ATOM     14  C   UNL     1      44.690   8.164  11.643  0.00  0.00    +0.000 A 
ATOM     15  N   UNL     1      45.563   9.122  11.846  0.00  0.00    +0.000 NA
ATOM     16  C   UNL     1      46.678   8.501  12.368  0.00  0.00    +0.000 A 
ATOM     17  C   UNL     1      47.919   9.013  12.787  0.00  0.00    +0.000 A 
ATOM     18 CL   UNL     1      48.134  10.704  12.675  0.00  0.00    +0.000 Cl
ATOM     19  C   UNL     1      48.914   8.167  13.273  0.00  0.00    +0.000 A 
ATOM     20  C   UNL     1      48.683   6.793  13.336  0.00  0.00    +0.000 A 
ATOM     21  C   UNL     1      47.459   6.241  12.934  0.00  0.00    +0.000 A 
ATOM     22  C   UNL     1      46.470   7.121  12.466  0.00  0.00    +0.000 A 
ENDBRANCH  12  13
ENDBRANCH   4  12
TORSDOF 5
ENDMDL
MODEL 6
REMARK VINA RESULT:    -5.884      4.160      6.826
REMARK INTER + INTRA:          -8.148
REMARK INTER:                  -7.591
REMARK INTRA:                  -0.557
REMARK UNBOUND:                -0.544
REMARK  Name = 
REMARK  6 active torsions:
REMARK  status: ('A' for Active; 'I' for Inactive)
REMARK    1  A    between atoms: C_1  and  N_2
REMARK    2  A    between atoms: N_2  and  C_3
REMARK    3  A    between atoms: C_3  and  C_4
REMARK    4  A    between atoms: C_4  and  C_5
REMARK    5  A    between atoms: C_8  and  C_9
REMARK    6  A    between atoms: C_9  and  N_10
REMARK                            x       y       z     vdW  Elec       q    Type
REMARK                         _______ _______ _______ _____ _____    ______ ____
ROOT
ATOM      1  C   UNL     1      46.883   5.773  13.013  0.00  0.00    +0.000 A 
ATOM      2  C   UNL     1      47.848   6.346  13.843  0.00  0.00    +0.000 A 
ATOM      3  C   UNL     1      48.075   5.814  15.113  0.00  0.00    +0.000 A 
ATOM      4  C   UNL     1      47.317   4.724  15.533  0.00  0.00    +0.000 A 
ATOM      5  N   UNL     1      46.383   4.146  14.739  0.00  0.00    +0.000 NA
ATOM      6  C   UNL     1      46.200   4.667  13.506  0.00  0.00    +0.000 A 
ENDROOT
BRANCH   1   7
ATOM      7  C   UNL     1      46.593   6.313  11.636  0.00  0.00    +0.000 C 
BRANCH   7   8
ATOM      8  C   UNL     1      45.364   5.643  11.000  0.00  0.00    +0.000 C 
BRANCH   8  10
ATOM      9  C   UNL     1      42.985   5.790  11.320  0.00  0.00    +0.000 C 
ATOM     10  N   UNL     1      44.203   6.537  11.033  0.00  0.00    +0.000 NA
ATOM     11  H   UNL     1      44.337   7.249  11.750  0.00  0.00    +0.000 HD
ENDBRANCH   8  10
ENDBRANCH   7   8
ENDBRANCH   1   7
BRANCH   4  12
ATOM     12  C   UNL     1      47.519   4.113  16.895  0.00  0.00    +0.000 C 
BRANCH  12  13
ATOM     13  N   UNL     1      48.745   3.337  16.954  0.00  0.00    +0.000 N 
ATOM     14  C   UNL     1      48.924   2.115  16.363  0.00  0.00    +0.000 A 
ATOM     15  N   UNL     1      50.132   1.647  16.572  0.00  0.00    +0.000 NA
ATOM     16  C   UNL     1      50.765   2.594  17.348  0.00  0.00    +0.000 A 
ATOM     17  C   UNL     1      52.067   2.647  17.875  0.00  0.00    +0.000 A 
ATOM     18 CL   UNL     1      53.106   1.343  17.501  0.00  0.00    +0.000 Cl
ATOM     19  C   UNL     1      52.478   3.722  18.660  0.00  0.00    +0.000 A 
ATOM     20  C   UNL     1      51.585   4.757  18.937  0.00  0.00    +0.000 A 
ATOM     21  C   UNL     1      50.279   4.747  18.428  0.00  0.00    +0.000 A 
ATOM     22  C   UNL     1      49.901   3.659  17.626  0.00  0.00    +0.000 A 
ENDBRANCH  12  13
ENDBRANCH   4  12
TORSDOF 5
ENDMDL
MODEL 7
REMARK VINA RESULT:    -5.692      3.168      6.957
REMARK INTER + INTRA:          -7.900
REMARK INTER:                  -7.616
REMARK INTRA:                  -0.284
REMARK UNBOUND:                -0.544
REMARK  Name = 
REMARK  6 active torsions:
REMARK  status: ('A' for Active; 'I' for Inactive)
REMARK    1  A    between atoms: C_1  and  N_2
REMARK    2  A    between atoms: N_2  and  C_3
REMARK    3  A    between atoms: C_3  and  C_4
REMARK    4  A    between atoms: C_4  and  C_5
REMARK    5  A    between atoms: C_8  and  C_9
REMARK    6  A    between atoms: C_9  and  N_10
REMARK                            x       y       z     vdW  Elec       q    Type
REMARK                         _______ _______ _______ _____ _____    ______ ____
ROOT
ATOM      1  C   UNL     1      48.012   7.053  13.863  0.00  0.00    +0.000 A 
ATOM      2  C   UNL     1      47.558   5.734  13.885  0.00  0.00    +0.000 A 
ATOM      3  C   UNL     1      46.289   5.428  13.393  0.00  0.00    +0.000 A 
ATOM      4  C   UNL     1      45.491   6.458  12.900  0.00  0.00    +0.000 A 
ATOM      5  N   UNL     1      45.915   7.744  12.861  0.00  0.00    +0.000 NA
ATOM      6  C   UNL     1      47.157   8.008  13.323  0.00  0.00    +0.000 A 
ENDROOT
BRANCH   1   7
ATOM      7  C   UNL     1      49.371   7.438  14.390  0.00  0.00    +0.000 C 
BRANCH   7   8
ATOM      8  C   UNL     1      49.644   6.835  15.778  0.00  0.00    +0.000 C 
BRANCH   8  10
ATOM      9  C   UNL     1      48.394   6.012  17.661  0.00  0.00    +0.000 C 
ATOM     10  N   UNL     1      48.529   7.093  16.692  0.00  0.00    +0.000 NA
ATOM     11  H   UNL     1      48.686   7.970  17.189  0.00  0.00    +0.000 HD
ENDBRANCH   8  10
ENDBRANCH   7   8
ENDBRANCH   1   7
BRANCH   4  12
ATOM     12  C   UNL     1      44.111   6.184  12.360  0.00  0.00    +0.000 C 
BRANCH  12  13
ATOM     13  N   UNL     1      44.058   4.918  11.652  0.00  0.00    +0.000 N 
ATOM     14  C   UNL     1      43.389   3.807  12.090  0.00  0.00    +0.000 A 
ATOM     15  N   UNL     1      43.504   2.807  11.248  0.00  0.00    +0.000 NA
ATOM     16  C   UNL     1      44.296   3.278  10.223  0.00  0.00    +0.000 A 
ATOM     17  C   UNL     1      44.752   2.667   9.042  0.00  0.00    +0.000 A 
ATOM     18 CL   UNL     1      44.247   1.059   8.760  0.00  0.00    +0.000 Cl
ATOM     19  C   UNL     1      45.572   3.355   8.150  0.00  0.00    +0.000 A 
ATOM     20  C   UNL     1      45.957   4.665   8.435  0.00  0.00    +0.000 A 
ATOM     21  C   UNL     1      45.521   5.315   9.598  0.00  0.00    +0.000 A 
ATOM     22  C   UNL     1      44.681   4.601  10.467  0.00  0.00    +0.000 A 
ENDBRANCH  12  13
ENDBRANCH   4  12
TORSDOF 5
ENDMDL
MODEL 8
REMARK VINA RESULT:    -5.391      2.985      7.061
REMARK INTER + INTRA:          -7.511
REMARK INTER:                  -7.185
REMARK INTRA:                  -0.326
REMARK UNBOUND:                -0.544
REMARK  Name = 
REMARK  6 active torsions:
REMARK  status: ('A' for Active; 'I' for Inactive)
REMARK    1  A    between atoms: C_1  and  N_2
REMARK    2  A    between atoms: N_2  and  C_3
REMARK    3  A    between atoms: C_3  and  C_4
REMARK    4  A    between atoms: C_4  and  C_5
REMARK    5  A    between atoms: C_8  and  C_9
REMARK    6  A    between atoms: C_9  and  N_10
REMARK                            x       y       z     vdW  Elec       q    Type
REMARK                         _______ _______ _______ _____ _____    ______ ____
ROOT
ATOM      1  C   UNL     1      47.092   7.720  13.125  0.00  0.00    +0.000 A 
ATOM      2  C   UNL     1      46.191   8.504  12.404  0.00  0.00    +0.000 A 
ATOM      3  C   UNL     1      45.049   7.921  11.854  0.00  0.00    +0.000 A 
ATOM      4  C   UNL     1      44.841   6.555  12.024  0.00  0.00    +0.000 A 
ATOM      5  N   UNL     1      45.698   5.776  12.729  0.00  0.00    +0.000 NA
ATOM      6  C   UNL     1      46.784   6.372  13.270  0.00  0.00    +0.000 A 
ENDROOT
BRANCH   1   7
ATOM      7  C   UNL     1      48.344   8.299  13.733  0.00  0.00    +0.000 C 
BRANCH   7   8
ATOM      8  C   UNL     1      48.107   8.810  15.164  0.00  0.00    +0.000 C 
BRANCH   8  10
ATOM      9  C   UNL     1      49.821  10.498  15.196  0.00  0.00    +0.000 C 
ATOM     10  N   UNL     1      48.386  10.246  15.262  0.00  0.00    +0.000 NA
ATOM     11  H   UNL     1      47.924  10.739  14.499  0.00  0.00    +0.000 HD
ENDBRANCH   8  10
ENDBRANCH   7   8
ENDBRANCH   1   7
BRANCH   4  12
ATOM     12  C   UNL     1      43.627   5.873  11.448  0.00  0.00    +0.000 C 
BRANCH  12  13
ATOM     13  N   UNL     1      43.970   4.599  10.841  0.00  0.00    +0.000 N 
ATOM     14  C   UNL     1      43.492   3.385  11.255  0.00  0.00    +0.000 A 
ATOM     15  N   UNL     1      43.961   2.403  10.522  0.00  0.00    +0.000 NA
ATOM     16  C   UNL     1      44.795   2.997   9.600  0.00  0.00    +0.000 A 
ATOM     17  C   UNL     1      45.566   2.456   8.556  0.00  0.00    +0.000 A 
ATOM     18 CL   UNL     1      45.475   0.766   8.325  0.00  0.00    +0.000 Cl
ATOM     19  C   UNL     1      46.358   3.275   7.752  0.00  0.00    +0.000 A 
ATOM     20  C   UNL     1      46.397   4.648   7.991  0.00  0.00    +0.000 A 
ATOM     21  C   UNL     1      45.640   5.230   9.017  0.00  0.00    +0.000 A 
ATOM     22  C   UNL     1      44.838   4.382   9.797  0.00  0.00    +0.000 A 
ENDBRANCH  12  13
ENDBRANCH   4  12
TORSDOF 5
ENDMDL
MODEL 9
REMARK VINA RESULT:    -5.120      3.489      6.179
REMARK INTER + INTRA:          -7.161
REMARK INTER:                  -6.608
REMARK INTRA:                  -0.552
REMARK UNBOUND:                -0.544
REMARK  Name = 
REMARK  6 active torsions:
REMARK  status: ('A' for Active; 'I' for Inactive)
REMARK    1  A    between atoms: C_1  and  N_2
REMARK    2  A    between atoms: N_2  and  C_3
REMARK    3  A    between atoms: C_3  and  C_4
REMARK    4  A    between atoms: C_4  and  C_5
REMARK    5  A    between atoms: C_8  and  C_9
REMARK    6  A    between atoms: C_9  and  N_10
REMARK                            x       y       z     vdW  Elec       q    Type
REMARK                         _______ _______ _______ _____ _____    ______ ____
ROOT
ATOM      1  C   UNL     1      45.374   5.803  12.665  0.00  0.00    +0.000 A 
ATOM      2  C   UNL     1      45.829   7.121  12.698  0.00  0.00    +0.000 A 
ATOM      3  C   UNL     1      47.030   7.426  13.338  0.00  0.00    +0.000 A 
ATOM      4  C   UNL     1      47.746   6.400  13.950  0.00  0.00    +0.000 A 
ATOM      5  N   UNL     1      47.328   5.111  13.922  0.00  0.00    +0.000 NA
ATOM      6  C   UNL     1      46.173   4.842  13.275  0.00  0.00    +0.000 A 
ENDROOT
BRANCH   1   7
ATOM      7  C   UNL     1      44.079   5.422  11.993  0.00  0.00    +0.000 C 
BRANCH   7   8
ATOM      8  C   UNL     1      43.508   4.105  12.545  0.00  0.00    +0.000 C 
BRANCH   8  10
ATOM      9  C   UNL     1      44.049   2.904  10.533  0.00  0.00    +0.000 C 
ATOM     10  N   UNL     1      42.986   3.265  11.464  0.00  0.00    +0.000 NA
ATOM     11  H   UNL     1      42.580   2.415  11.854  0.00  0.00    +0.000 HD
ENDBRANCH   8  10
ENDBRANCH   7   8
ENDBRANCH   1   7
BRANCH   4  12
ATOM     12  C   UNL     1      49.048   6.673  14.659  0.00  0.00    +0.000 C 
BRANCH  12  13
ATOM     13  N   UNL     1      48.843   6.905  16.077  0.00  0.00    +0.000 N 
ATOM     14  C   UNL     1      48.681   8.138  16.650  0.00  0.00    +0.000 A 
ATOM     15  N   UNL     1      48.506   8.051  17.948  0.00  0.00    +0.000 NA
ATOM     16  C   UNL     1      48.574   6.705  18.240  0.00  0.00    +0.000 A 
ATOM     17  C   UNL     1      48.451   6.009  19.454  0.00  0.00    +0.000 A 
ATOM     18 CL   UNL     1      48.138   6.941  20.851  0.00  0.00    +0.000 Cl
ATOM     19  C   UNL     1      48.576   4.621  19.499  0.00  0.00    +0.000 A 
ATOM     20  C   UNL     1      48.837   3.912  18.327  0.00  0.00    +0.000 A 
ATOM     21  C   UNL     1      48.962   4.566  17.093  0.00  0.00    +0.000 A 
ATOM     22  C   UNL     1      48.812   5.962  17.078  0.00  0.00    +0.000 A 
ENDBRANCH  12  13
ENDBRANCH   4  12
TORSDOF 5
ENDMDL
