MODEL 1
REMARK VINA RESULT:    -8.515      0.000      0.000
REMARK INTER + INTRA:         -12.662
REMARK INTER:                 -11.501
REMARK INTRA:                  -1.161
REMARK UNBOUND:                -1.161
REMARK  Name = 
REMARK  8 active torsions:
REMARK  status: ('A' for Active; 'I' for Inactive)
REMARK    1  A    between atoms: C_1  and  C_2
REMARK    2  A    between atoms: N_4  and  C_5
REMARK    3  A    between atoms: C_7  and  C_8
REMARK    4  A    between atoms: C_8  and  C_9
REMARK    5  A    between atoms: C_9  and  N_10
REMARK    6  A    between atoms: C_14  and  C_15
REMARK    7  A    between atoms: C_21  and  C_22
REMARK    8  A    between atoms: C_28  and  C_29
REMARK                            x       y       z     vdW  Elec       q    Type
REMARK                         _______ _______ _______ _____ _____    ______ ____
ROOT
ATOM      1  C   UNL     1      46.774   7.010  12.727  0.00  0.00    +0.000 A 
ATOM      2  C   UNL     1      45.460   6.743  12.309  0.00  0.00    +0.000 A 
ATOM      3  C   UNL     1      44.707   5.677  12.827  0.00  0.00    +0.000 A 
ATOM      4  C   UNL     1      45.274   4.861  13.812  0.00  0.00    +0.000 A 
ATOM      5  C   UNL     1      46.579   5.090  14.256  0.00  0.00    +0.000 A 
ATOM      6  C   UNL     1      47.305   6.161  13.710  0.00  0.00    +0.000 A 
ENDROOT
BRANCH   1  10
ATOM      7  C   UNL     1      48.500  10.056  14.463  0.00  0.00    +0.000 C 
ATOM      8  C   UNL     1      48.380  10.226  12.951  0.00  0.00    +0.000 C 
ATOM      9  C   UNL     1      47.174   9.458  12.363  0.00  0.00    +0.000 C 
ATOM     10  N   UNL     1      47.513   8.039  12.192  0.00  0.00    +0.000 N 
ATOM     11  C   UNL     1      48.720   7.826  11.384  0.00  0.00    +0.000 C 
ATOM     12  C   UNL     1      49.914   8.576  12.002  0.00  0.00    +0.000 C 
ATOM     13  C   UNL     1      50.504   7.861  13.213  0.00  0.00    +0.000 C 
ATOM     14  O   UNL     1      49.623   9.958  12.275  0.00  0.00    +0.000 OA
ENDBRANCH   1  10
BRANCH   5  15
ATOM     15  C   UNL     1      47.233   4.199  15.280  0.00  0.00    +0.000 C 
ATOM     16  F   UNL     1      46.444   3.942  16.360  0.00  0.00    +0.000 F 
ATOM     17  F   UNL     1      47.562   2.980  14.765  0.00  0.00    +0.000 F 
ATOM     18  F   UNL     1      48.390   4.719  15.773  0.00  0.00    +0.000 F 
ENDBRANCH   5  15
BRANCH   3  19
ATOM     19  C   UNL     1      43.342   5.348  12.261  0.00  0.00    +0.000 C 
BRANCH  19  20
ATOM     20  C   UNL     1      43.447   4.220  11.230  0.00  0.00    +0.000 C 
BRANCH  20  21
ATOM     21  N   UNL     1      43.800   4.719   9.908  0.00  0.00    +0.000 N 
ATOM     22  C   UNL     1      44.715   3.967   9.176  0.00  0.00    +0.000 A 
ATOM     23  C   UNL     1      44.815   2.569   9.252  0.00  0.00    +0.000 A 
ATOM     24  N   UNL     1      45.695   1.811   8.550  0.00  0.00    +0.000 NA
ATOM     25  C   UNL     1      46.473   2.524   7.694  0.00  0.00    +0.000 A 
ATOM     26  C   UNL     1      46.368   3.904   7.577  0.00  0.00    +0.000 A 
ATOM     27  N   UNL     1      45.500   4.648   8.315  0.00  0.00    +0.000 NA
ATOM     28  H   UNL     1      44.084   5.697   9.842  0.00  0.00    +0.000 HD
BRANCH  25  29
ATOM     29  C   UNL     1      47.462   1.768   6.888  0.00  0.00    +0.000 C 
ATOM     30  N   UNL     1      48.564   2.457   6.454  0.00  0.00    +0.000 N 
ATOM     31  O   UNL     1      47.304   0.581   6.617  0.00  0.00    +0.000 OA
ATOM     32  H   UNL     1      48.686   3.439   6.678  0.00  0.00    +0.000 HD
ATOM     33  H   UNL     1      49.264   1.974   5.912  0.00  0.00    +0.000 HD
ENDBRANCH  25  29
ENDBRANCH  20  21
ENDBRANCH  19  20
ENDBRANCH   3  19
TORSDOF 6
ENDMDL
MODEL 2
REMARK VINA RESULT:    -8.357      2.955      3.656
REMARK INTER + INTRA:         -12.449
REMARK INTER:                 -11.335
REMARK INTRA:                  -1.114
REMARK UNBOUND:                -1.161
REMARK  Name = 
REMARK  8 active torsions:
REMARK  status: ('A' for Active; 'I' for Inactive)
REMARK    1  A    between atoms: C_1  and  C_2
REMARK    2  A    between atoms: N_4  and  C_5
REMARK    3  A    between atoms: C_7  and  C_8
REMARK    4  A    between atoms: C_8  and  C_9
REMARK    5  A    between atoms: C_9  and  N_10
REMARK    6  A    between atoms: C_14  and  C_15
REMARK    7  A    between atoms: C_21  and  C_22
REMARK    8  A    between atoms: C_28  and  C_29
REMARK                            x       y       z     vdW  Elec       q    Type
REMARK                         _______ _______ _______ _____ _____    ______ ____
ROOT
ATOM      1  C   UNL     1      46.684   7.051  12.735  0.00  0.00    +0.000 A 
ATOM      2  C   UNL     1      45.679   6.069  12.741  0.00  0.00    +0.000 A 
ATOM      3  C   UNL     1      44.383   6.316  12.259  0.00  0.00    +0.000 A 
ATOM      4  C   UNL     1      44.083   7.577  11.734  0.00  0.00    +0.000 A 
ATOM      5  C   UNL     1      45.052   8.583  11.710  0.00  0.00    +0.000 A 
ATOM      6  C   UNL     1      46.335   8.303  12.207  0.00  0.00    +0.000 A 
ENDROOT
BRANCH   1  10
ATOM      7  C   UNL     1      49.804   9.392  12.989  0.00  0.00    +0.000 C 
ATOM      8  C   UNL     1      50.149   7.918  13.192  0.00  0.00    +0.000 C 
ATOM      9  C   UNL     1      49.174   6.974  12.453  0.00  0.00    +0.000 C 
ATOM     10  N   UNL     1      47.942   6.808  13.236  0.00  0.00    +0.000 N 
ATOM     11  C   UNL     1      48.186   6.348  14.608  0.00  0.00    +0.000 C 
ATOM     12  C   UNL     1      49.137   7.316  15.333  0.00  0.00    +0.000 C 
ATOM     13  C   UNL     1      48.445   8.592  15.802  0.00  0.00    +0.000 C 
ATOM     14  O   UNL     1      50.333   7.591  14.582  0.00  0.00    +0.000 OA
ENDBRANCH   1  10
BRANCH   5  15
ATOM     15  C   UNL     1      44.744   9.965  11.195  0.00  0.00    +0.000 C 
ATOM     16  F   UNL     1      43.898  10.668  11.998  0.00  0.00    +0.000 F 
ATOM     17  F   UNL     1      45.865  10.732  11.078  0.00  0.00    +0.000 F 
ATOM     18  F   UNL     1      44.170   9.955   9.961  0.00  0.00    +0.000 F 
ENDBRANCH   5  15
BRANCH   3  19
ATOM     19  C   UNL     1      43.296   5.271  12.397  0.00  0.00    +0.000 C 
BRANCH  19  20
ATOM     20  C   UNL     1      43.531   4.122  11.411  0.00  0.00    +0.000 C 
BRANCH  20  21
ATOM     21  N   UNL     1      43.776   4.604  10.058  0.00  0.00    +0.000 N 
ATOM     22  C   UNL     1      44.676   3.874   9.285  0.00  0.00    +0.000 A 
ATOM     23  C   UNL     1      44.843   2.484   9.384  0.00  0.00    +0.000 A 
ATOM     24  N   UNL     1      45.708   1.748   8.643  0.00  0.00    +0.000 NA
ATOM     25  C   UNL     1      46.398   2.472   7.724  0.00  0.00    +0.000 A 
ATOM     26  C   UNL     1      46.225   3.843   7.584  0.00  0.00    +0.000 A 
ATOM     27  N   UNL     1      45.373   4.567   8.361  0.00  0.00    +0.000 NA
ATOM     28  H   UNL     1      44.012   5.591   9.953  0.00  0.00    +0.000 HD
BRANCH  25  29
ATOM     29  C   UNL     1      47.366   1.740   6.871  0.00  0.00    +0.000 C 
ATOM     30  N   UNL     1      48.481   2.428   6.470  0.00  0.00    +0.000 N 
ATOM     31  O   UNL     1      47.180   0.574   6.536  0.00  0.00    +0.000 OA
ATOM     32  H   UNL     1      48.626   3.393   6.746  0.00  0.00    +0.000 HD
ATOM     33  H   UNL     1      49.167   1.960   5.897  0.00  0.00    +0.000 HD
ENDBRANCH  25  29
ENDBRANCH  20  21
ENDBRANCH  19  20
ENDBRANCH   3  19
TORSDOF 6
ENDMDL
MODEL 3
REMARK VINA RESULT:    -8.176      3.126      3.891
REMARK INTER + INTRA:         -12.204
REMARK INTER:                 -11.459
REMARK INTRA:                  -0.745
REMARK UNBOUND:                -1.161
REMARK  Name = 
REMARK  8 active torsions:
REMARK  status: ('A' for Active; 'I' for Inactive)
REMARK    1  A    between atoms: C_1  and  C_2
REMARK    2  A    between atoms: N_4  and  C_5
REMARK    3  A    between atoms: C_7  and  C_8
REMARK    4  A    between atoms: C_8  and  C_9
REMARK    5  A    between atoms: C_9  and  N_10
REMARK    6  A    between atoms: C_14  and  C_15
REMARK    7  A    between atoms: C_21  and  C_22
REMARK    8  A    between atoms: C_28  and  C_29
REMARK                            x       y       z     vdW  Elec       q    Type
REMARK                         _______ _______ _______ _____ _____    ______ ____
ROOT
ATOM      1  C   UNL     1      46.864   8.238  12.553  0.00  0.00    +0.000 A 
ATOM      2  C   UNL     1      46.465   6.894  12.475  0.00  0.00    +0.000 A 
ATOM      3  C   UNL     1      45.231   6.506  11.927  0.00  0.00    +0.000 A 
ATOM      4  C   UNL     1      44.374   7.488  11.420  0.00  0.00    +0.000 A 
ATOM      5  C   UNL     1      44.732   8.838  11.478  0.00  0.00    +0.000 A 
ATOM      6  C   UNL     1      45.970   9.190  12.040  0.00  0.00    +0.000 A 
ENDROOT
BRANCH   1  10
ATOM      7  C   UNL     1      50.526   7.748  11.276  0.00  0.00    +0.000 C 
ATOM      8  C   UNL     1      50.458   8.128  12.754  0.00  0.00    +0.000 C 
ATOM      9  C   UNL     1      49.144   7.666  13.425  0.00  0.00    +0.000 C 
ATOM     10  N   UNL     1      48.062   8.611  13.117  0.00  0.00    +0.000 N 
ATOM     11  C   UNL     1      48.383   9.996  13.481  0.00  0.00    +0.000 C 
ATOM     12  C   UNL     1      49.678  10.444  12.781  0.00  0.00    +0.000 C 
ATOM     13  C   UNL     1      49.471  10.795  11.312  0.00  0.00    +0.000 C 
ATOM     14  O   UNL     1      50.763   9.518  12.971  0.00  0.00    +0.000 OA
ENDBRANCH   1  10
BRANCH   5  15
ATOM     15  C   UNL     1      43.809   9.922  10.984  0.00  0.00    +0.000 C 
ATOM     16  F   UNL     1      44.383  10.750  10.068  0.00  0.00    +0.000 F 
ATOM     17  F   UNL     1      42.698   9.414  10.378  0.00  0.00    +0.000 F 
ATOM     18  F   UNL     1      43.352  10.725  11.984  0.00  0.00    +0.000 F 
ENDBRANCH   5  15
BRANCH   3  19
ATOM     19  C   UNL     1      44.786   5.060  11.975  0.00  0.00    +0.000 C 
BRANCH  19  20
ATOM     20  C   UNL     1      43.582   4.840  11.053  0.00  0.00    +0.000 C 
BRANCH  20  21
ATOM     21  N   UNL     1      43.936   4.985   9.647  0.00  0.00    +0.000 N 
ATOM     22  C   UNL     1      44.736   3.988   9.094  0.00  0.00    +0.000 A 
ATOM     23  C   UNL     1      44.685   2.640   9.486  0.00  0.00    +0.000 A 
ATOM     24  N   UNL     1      45.449   1.648   8.963  0.00  0.00    +0.000 NA
ATOM     25  C   UNL     1      46.267   2.056   7.959  0.00  0.00    +0.000 A 
ATOM     26  C   UNL     1      46.310   3.377   7.531  0.00  0.00    +0.000 A 
ATOM     27  N   UNL     1      45.556   4.363   8.092  0.00  0.00    +0.000 NA
ATOM     28  H   UNL     1      44.323   5.883   9.357  0.00  0.00    +0.000 HD
BRANCH  25  29
ATOM     29  C   UNL     1      47.137   1.029   7.333  0.00  0.00    +0.000 C 
ATOM     30  N   UNL     1      46.882  -0.278   7.654  0.00  0.00    +0.000 N 
ATOM     31  O   UNL     1      48.045   1.332   6.565  0.00  0.00    +0.000 OA
ATOM     32  H   UNL     1      46.132  -0.521   8.294  0.00  0.00    +0.000 HD
ATOM     33  H   UNL     1      47.445  -1.005   7.241  0.00  0.00    +0.000 HD
ENDBRANCH  25  29
ENDBRANCH  20  21
ENDBRANCH  19  20
ENDBRANCH   3  19
TORSDOF 6
ENDMDL
MODEL 4
REMARK VINA RESULT:    -8.048      2.921      4.385
REMARK INTER + INTRA:         -12.032
REMARK INTER:                 -11.772
REMARK INTRA:                  -0.260
REMARK UNBOUND:                -1.161
REMARK  Name = 
REMARK  8 active torsions:
REMARK  status: ('A' for Active; 'I' for Inactive)
REMARK    1  A    between atoms: C_1  and  C_2
REMARK    2  A    between atoms: N_4  and  C_5
REMARK    3  A    between atoms: C_7  and  C_8
REMARK    4  A    between atoms: C_8  and  C_9
REMARK    5  A    between atoms: C_9  and  N_10
REMARK    6  A    between atoms: C_14  and  C_15
REMARK    7  A    between atoms: C_21  and  C_22
REMARK    8  A    between atoms: C_28  and  C_29
REMARK                            x       y       z     vdW  Elec       q    Type
REMARK                         _______ _______ _______ _____ _____    ______ ____
ROOT
ATOM      1  C   UNL     1      47.327   5.107  15.022  0.00  0.00    +0.000 A 
ATOM      2  C   UNL     1      46.531   4.287  14.206  0.00  0.00    +0.000 A 
ATOM      3  C   UNL     1      46.274   4.588  12.859  0.00  0.00    +0.000 A 
ATOM      4  C   UNL     1      46.848   5.733  12.297  0.00  0.00    +0.000 A 
ATOM      5  C   UNL     1      47.647   6.577  13.073  0.00  0.00    +0.000 A 
ATOM      6  C   UNL     1      47.875   6.250  14.419  0.00  0.00    +0.000 A 
ENDROOT
BRANCH   1  10
ATOM      7  C   UNL     1      49.449   2.273  16.678  0.00  0.00    +0.000 C 
ATOM      8  C   UNL     1      48.493   2.948  17.659  0.00  0.00    +0.000 C 
ATOM      9  C   UNL     1      47.238   3.522  16.962  0.00  0.00    +0.000 C 
ATOM     10  N   UNL     1      47.550   4.819  16.349  0.00  0.00    +0.000 N 
ATOM     11  C   UNL     1      48.116   5.786  17.297  0.00  0.00    +0.000 C 
ATOM     12  C   UNL     1      49.379   5.207  17.958  0.00  0.00    +0.000 C 
ATOM     13  C   UNL     1      50.604   5.260  17.051  0.00  0.00    +0.000 C 
ATOM     14  O   UNL     1      49.168   3.895  18.509  0.00  0.00    +0.000 OA
ENDBRANCH   1  10
BRANCH   5  15
ATOM     15  C   UNL     1      48.238   7.843  12.509  0.00  0.00    +0.000 C 
ATOM     16  F   UNL     1      49.071   8.486  13.373  0.00  0.00    +0.000 F 
ATOM     17  F   UNL     1      48.978   7.610  11.388  0.00  0.00    +0.000 F 
ATOM     18  F   UNL     1      47.293   8.754  12.148  0.00  0.00    +0.000 F 
ENDBRANCH   5  15
BRANCH   3  19
ATOM     19  C   UNL     1      45.311   3.745  12.049  0.00  0.00    +0.000 C 
BRANCH  19  20
ATOM     20  C   UNL     1      44.161   4.608  11.518  0.00  0.00    +0.000 C 
BRANCH  20  21
ATOM     21  N   UNL     1      44.401   5.058  10.154  0.00  0.00    +0.000 N 
ATOM     22  C   UNL     1      45.125   4.202   9.328  0.00  0.00    +0.000 A 
ATOM     23  C   UNL     1      45.072   2.802   9.415  0.00  0.00    +0.000 A 
ATOM     24  N   UNL     1      45.762   1.945   8.623  0.00  0.00    +0.000 NA
ATOM     25  C   UNL     1      46.505   2.559   7.665  0.00  0.00    +0.000 A 
ATOM     26  C   UNL     1      46.546   3.942   7.537  0.00  0.00    +0.000 A 
ATOM     27  N   UNL     1      45.869   4.785   8.364  0.00  0.00    +0.000 NA
ATOM     28  H   UNL     1      44.785   5.996  10.036  0.00  0.00    +0.000 HD
BRANCH  25  29
ATOM     29  C   UNL     1      47.291   1.691   6.756  0.00  0.00    +0.000 C 
ATOM     30  N   UNL     1      48.267   2.297   6.010  0.00  0.00    +0.000 N 
ATOM     31  O   UNL     1      47.079   0.485   6.669  0.00  0.00    +0.000 OA
ATOM     32  H   UNL     1      48.434   3.296   6.082  0.00  0.00    +0.000 HD
ATOM     33  H   UNL     1      48.830   1.738   5.387  0.00  0.00    +0.000 HD
ENDBRANCH  25  29
ENDBRANCH  20  21
ENDBRANCH  19  20
ENDBRANCH   3  19
TORSDOF 6
ENDMDL
MODEL 5
REMARK VINA RESULT:    -7.101      1.331      2.222
REMARK INTER + INTRA:         -10.753
REMARK INTER:                 -10.125
REMARK INTRA:                  -0.628
REMARK UNBOUND:                -1.161
REMARK  Name = 
REMARK  8 active torsions:
REMARK  status: ('A' for Active; 'I' for Inactive)
REMARK    1  A    between atoms: C_1  and  C_2
REMARK    2  A    between atoms: N_4  and  C_5
REMARK    3  A    between atoms: C_7  and  C_8
REMARK    4  A    between atoms: C_8  and  C_9
REMARK    5  A    between atoms: C_9  and  N_10
REMARK    6  A    between atoms: C_14  and  C_15
REMARK    7  A    between atoms: C_21  and  C_22
REMARK    8  A    between atoms: C_28  and  C_29
REMARK                            x       y       z     vdW  Elec       q    Type
REMARK                         _______ _______ _______ _____ _____    ______ ____
ROOT
ATOM      1  C   UNL     1      48.059   6.410  14.493  0.00  0.00    +0.000 A 
ATOM      2  C   UNL     1      47.326   5.794  13.467  0.00  0.00    +0.000 A 
ATOM      3  C   UNL     1      46.693   4.551  13.635  0.00  0.00    +0.000 A 
ATOM      4  C   UNL     1      46.775   3.910  14.875  0.00  0.00    +0.000 A 
ATOM      5  C   UNL     1      47.496   4.488  15.924  0.00  0.00    +0.000 A 
ATOM      6  C   UNL     1      48.122   5.727  15.717  0.00  0.00    +0.000 A 
ENDROOT
BRANCH   1  10
ATOM      7  C   UNL     1      49.954   7.823  11.380  0.00  0.00    +0.000 C 
ATOM      8  C   UNL     1      50.249   8.604  12.659  0.00  0.00    +0.000 C 
ATOM      9  C   UNL     1      50.112   7.734  13.929  0.00  0.00    +0.000 C 
ATOM     10  N   UNL     1      48.699   7.614  14.310  0.00  0.00    +0.000 N 
ATOM     11  C   UNL     1      48.035   8.912  14.485  0.00  0.00    +0.000 C 
ATOM     12  C   UNL     1      48.159   9.751  13.201  0.00  0.00    +0.000 C 
ATOM     13  C   UNL     1      47.189   9.314  12.108  0.00  0.00    +0.000 C 
ATOM     14  O   UNL     1      49.513   9.840  12.721  0.00  0.00    +0.000 OA
ENDBRANCH   1  10
BRANCH   5  15
ATOM     15  C   UNL     1      47.642   3.798  17.256  0.00  0.00    +0.000 C 
ATOM     16  F   UNL     1      46.756   2.780  17.442  0.00  0.00    +0.000 F 
ATOM     17  F   UNL     1      48.878   3.245  17.415  0.00  0.00    +0.000 F 
ATOM     18  F   UNL     1      47.474   4.642  18.311  0.00  0.00    +0.000 F 
ENDBRANCH   5  15
BRANCH   3  19
ATOM     19  C   UNL     1      46.018   3.863  12.467  0.00  0.00    +0.000 C 
BRANCH  19  20
ATOM     20  C   UNL     1      44.703   4.568  12.119  0.00  0.00    +0.000 C 
BRANCH  20  21
ATOM     21  N   UNL     1      44.746   5.185  10.799  0.00  0.00    +0.000 N 
ATOM     22  C   UNL     1      45.277   4.419   9.765  0.00  0.00    +0.000 A 
ATOM     23  C   UNL     1      45.158   3.022   9.687  0.00  0.00    +0.000 A 
ATOM     24  N   UNL     1      45.662   2.251   8.691  0.00  0.00    +0.000 NA
ATOM     25  C   UNL     1      46.275   2.958   7.706  0.00  0.00    +0.000 A 
ATOM     26  C   UNL     1      46.376   4.343   7.744  0.00  0.00    +0.000 A 
ATOM     27  N   UNL     1      45.890   5.094   8.770  0.00  0.00    +0.000 NA
ATOM     28  H   UNL     1      45.161   6.115  10.735  0.00  0.00    +0.000 HD
BRANCH  25  29
ATOM     29  C   UNL     1      46.854   2.188   6.578  0.00  0.00    +0.000 C 
ATOM     30  N   UNL     1      47.121   2.881   5.427  0.00  0.00    +0.000 N 
ATOM     31  O   UNL     1      47.082   0.985   6.666  0.00  0.00    +0.000 OA
ATOM     32  H   UNL     1      46.925   3.874   5.359  0.00  0.00    +0.000 HD
ATOM     33  H   UNL     1      47.524   2.393   4.641  0.00  0.00    +0.000 HD
ENDBRANCH  25  29
ENDBRANCH  20  21
ENDBRANCH  19  20
ENDBRANCH   3  19
TORSDOF 6
ENDMDL
MODEL 6
REMARK VINA RESULT:    -6.882      5.011      8.176
REMARK INTER + INTRA:         -10.457
REMARK INTER:                  -9.846
REMARK INTRA:                  -0.611
REMARK UNBOUND:                -1.161
REMARK  Name = 
REMARK  8 active torsions:
REMARK  status: ('A' for Active; 'I' for Inactive)
REMARK    1  A    between atoms: C_1  and  C_2
REMARK    2  A    between atoms: N_4  and  C_5
REMARK    3  A    between atoms: C_7  and  C_8
REMARK    4  A    between atoms: C_8  and  C_9
REMARK    5  A    between atoms: C_9  and  N_10
REMARK    6  A    between atoms: C_14  and  C_15
REMARK    7  A    between atoms: C_21  and  C_22
REMARK    8  A    between atoms: C_28  and  C_29
REMARK                            x       y       z     vdW  Elec       q    Type
REMARK                         _______ _______ _______ _____ _____    ______ ____
ROOT
ATOM      1  C   UNL     1      46.132   5.189  13.264  0.00  0.00    +0.000 A 
ATOM      2  C   UNL     1      46.766   4.953  14.494  0.00  0.00    +0.000 A 
ATOM      3  C   UNL     1      47.832   5.743  14.956  0.00  0.00    +0.000 A 
ATOM      4  C   UNL     1      48.266   6.819  14.176  0.00  0.00    +0.000 A 
ATOM      5  C   UNL     1      47.663   7.091  12.945  0.00  0.00    +0.000 A 
ATOM      6  C   UNL     1      46.606   6.274  12.511  0.00  0.00    +0.000 A 
ENDROOT
BRANCH   1  10
ATOM      7  C   UNL     1      42.899   6.112  11.270  0.00  0.00    +0.000 C 
ATOM      8  C   UNL     1      42.838   4.717  11.886  0.00  0.00    +0.000 C 
ATOM      9  C   UNL     1      43.698   4.595  13.165  0.00  0.00    +0.000 C 
ATOM     10  N   UNL     1      45.107   4.392  12.807  0.00  0.00    +0.000 N 
ATOM     11  C   UNL     1      45.319   3.244  11.917  0.00  0.00    +0.000 C 
ATOM     12  C   UNL     1      44.475   3.398  10.640  0.00  0.00    +0.000 C 
ATOM     13  C   UNL     1      45.079   4.381   9.643  0.00  0.00    +0.000 C 
ATOM     14  O   UNL     1      43.092   3.684  10.916  0.00  0.00    +0.000 OA
ENDBRANCH   1  10
BRANCH   5  15
ATOM     15  C   UNL     1      48.141   8.213  12.061  0.00  0.00    +0.000 C 
ATOM     16  F   UNL     1      47.133   8.989  11.574  0.00  0.00    +0.000 F 
ATOM     17  F   UNL     1      48.978   9.065  12.719  0.00  0.00    +0.000 F 
ATOM     18  F   UNL     1      48.836   7.774  10.976  0.00  0.00    +0.000 F 
ENDBRANCH   5  15
BRANCH   3  19
ATOM     19  C   UNL     1      48.569   5.379  16.227  0.00  0.00    +0.000 C 
BRANCH  19  20
ATOM     20  C   UNL     1      47.696   4.486  17.115  0.00  0.00    +0.000 C 
BRANCH  20  21
ATOM     21  N   UNL     1      48.166   3.107  17.135  0.00  0.00    +0.000 N 
ATOM     22  C   UNL     1      49.521   2.909  17.390  0.00  0.00    +0.000 A 
ATOM     23  C   UNL     1      50.287   3.736  18.226  0.00  0.00    +0.000 A 
ATOM     24  N   UNL     1      51.606   3.566  18.495  0.00  0.00    +0.000 NA
ATOM     25  C   UNL     1      52.147   2.464  17.912  0.00  0.00    +0.000 A 
ATOM     26  C   UNL     1      51.401   1.612  17.108  0.00  0.00    +0.000 A 
ATOM     27  N   UNL     1      50.085   1.820  16.827  0.00  0.00    +0.000 NA
ATOM     28  H   UNL     1      47.915   2.520  16.339  0.00  0.00    +0.000 HD
BRANCH  25  29
ATOM     29  C   UNL     1      53.587   2.206  18.157  0.00  0.00    +0.000 C 
ATOM     30  N   UNL     1      53.907   1.041  18.804  0.00  0.00    +0.000 N 
ATOM     31  O   UNL     1      54.456   2.997  17.801  0.00  0.00    +0.000 OA
ATOM     32  H   UNL     1      53.183   0.394  19.100  0.00  0.00    +0.000 HD
ATOM     33  H   UNL     1      54.876   0.826  18.979  0.00  0.00    +0.000 HD
ENDBRANCH  25  29
ENDBRANCH  20  21
ENDBRANCH  19  20
ENDBRANCH   3  19
TORSDOF 6
ENDMDL
MODEL 7
REMARK VINA RESULT:    -6.731      3.961      5.920
REMARK INTER + INTRA:         -10.253
REMARK INTER:                  -9.190
REMARK INTRA:                  -1.062
REMARK UNBOUND:                -1.161
REMARK  Name = 
REMARK  8 active torsions:
REMARK  status: ('A' for Active; 'I' for Inactive)
REMARK    1  A    between atoms: C_1  and  C_2
REMARK    2  A    between atoms: N_4  and  C_5
REMARK    3  A    between atoms: C_7  and  C_8
REMARK    4  A    between atoms: C_8  and  C_9
REMARK    5  A    between atoms: C_9  and  N_10
REMARK    6  A    between atoms: C_14  and  C_15
REMARK    7  A    between atoms: C_21  and  C_22
REMARK    8  A    between atoms: C_28  and  C_29
REMARK                            x       y       z     vdW  Elec       q    Type
REMARK                         _______ _______ _______ _____ _____    ______ ____
ROOT
ATOM      1  C   UNL     1      50.912   5.703  17.086  0.00  0.00    +0.000 A 
ATOM      2  C   UNL     1      49.604   5.195  17.025  0.00  0.00    +0.000 A 
ATOM      3  C   UNL     1      49.301   3.858  17.328  0.00  0.00    +0.000 A 
ATOM      4  C   UNL     1      50.332   3.002  17.728  0.00  0.00    +0.000 A 
ATOM      5  C   UNL     1      51.649   3.466  17.802  0.00  0.00    +0.000 A 
ATOM      6  C   UNL     1      51.916   4.807  17.483  0.00  0.00    +0.000 A 
ENDROOT
BRANCH   1  10
ATOM      7  C   UNL     1      49.856   7.833  13.983  0.00  0.00    +0.000 C 
ATOM      8  C   UNL     1      51.006   8.459  14.769  0.00  0.00    +0.000 C 
ATOM      9  C   UNL     1      51.862   7.404  15.508  0.00  0.00    +0.000 C 
ATOM     10  N   UNL     1      51.203   7.007  16.759  0.00  0.00    +0.000 N 
ATOM     11  C   UNL     1      50.892   8.144  17.635  0.00  0.00    +0.000 C 
ATOM     12  C   UNL     1      50.018   9.168  16.889  0.00  0.00    +0.000 C 
ATOM     13  C   UNL     1      48.556   8.743  16.790  0.00  0.00    +0.000 C 
ATOM     14  O   UNL     1      50.563   9.540  15.611  0.00  0.00    +0.000 OA
ENDBRANCH   1  10
BRANCH   5  15
ATOM     15  C   UNL     1      52.787   2.554  18.181  0.00  0.00    +0.000 C 
ATOM     16  F   UNL     1      53.894   2.714  17.404  0.00  0.00    +0.000 F 
ATOM     17  F   UNL     1      53.204   2.760  19.463  0.00  0.00    +0.000 F 
ATOM     18  F   UNL     1      52.458   1.236  18.103  0.00  0.00    +0.000 F 
ENDBRANCH   5  15
BRANCH   3  19
ATOM     19  C   UNL     1      47.900   3.319  17.131  0.00  0.00    +0.000 C 
BRANCH  19  20
ATOM     20  C   UNL     1      47.165   4.123  16.053  0.00  0.00    +0.000 C 
BRANCH  20  21
ATOM     21  N   UNL     1      47.190   3.453  14.759  0.00  0.00    +0.000 N 
ATOM     22  C   UNL     1      46.320   3.935  13.785  0.00  0.00    +0.000 A 
ATOM     23  C   UNL     1      45.947   5.283  13.669  0.00  0.00    +0.000 A 
ATOM     24  N   UNL     1      45.105   5.781  12.730  0.00  0.00    +0.000 NA
ATOM     25  C   UNL     1      44.665   4.854  11.839  0.00  0.00    +0.000 A 
ATOM     26  C   UNL     1      45.048   3.521  11.913  0.00  0.00    +0.000 A 
ATOM     27  N   UNL     1      45.870   3.037  12.885  0.00  0.00    +0.000 NA
ATOM     28  H   UNL     1      47.113   2.435  14.762  0.00  0.00    +0.000 HD
BRANCH  25  29
ATOM     29  C   UNL     1      43.739   5.318  10.778  0.00  0.00    +0.000 C 
ATOM     30  N   UNL     1      43.166   6.551  10.951  0.00  0.00    +0.000 N 
ATOM     31  O   UNL     1      43.491   4.633   9.791  0.00  0.00    +0.000 OA
ATOM     32  H   UNL     1      43.372   7.110  11.772  0.00  0.00    +0.000 HD
ATOM     33  H   UNL     1      42.539   6.905  10.246  0.00  0.00    +0.000 HD
ENDBRANCH  25  29
ENDBRANCH  20  21
ENDBRANCH  19  20
ENDBRANCH   3  19
TORSDOF 6
ENDMDL
MODEL 8
REMARK VINA RESULT:    -6.684      4.789      6.603
REMARK INTER + INTRA:         -10.189
REMARK INTER:                  -9.048
REMARK INTRA:                  -1.142
REMARK UNBOUND:                -1.161
REMARK  Name = 
REMARK  8 active torsions:
REMARK  status: ('A' for Active; 'I' for Inactive)
REMARK    1  A    between atoms: C_1  and  C_2
REMARK    2  A    between atoms: N_4  and  C_5
REMARK    3  A    between atoms: C_7  and  C_8
REMARK    4  A    between atoms: C_8  and  C_9
REMARK    5  A    between atoms: C_9  and  N_10
REMARK    6  A    between atoms: C_14  and  C_15
REMARK    7  A    between atoms: C_21  and  C_22
REMARK    8  A    between atoms: C_28  and  C_29
REMARK                            x       y       z     vdW  Elec       q    Type
REMARK                         _______ _______ _______ _____ _____    ______ ____
ROOT
ATOM      1  C   UNL     1      51.151   5.449  17.589  0.00  0.00    +0.000 A 
ATOM      2  C   UNL     1      50.610   6.510  16.846  0.00  0.00    +0.000 A 
ATOM      3  C   UNL     1      49.300   6.484  16.341  0.00  0.00    +0.000 A 
ATOM      4  C   UNL     1      48.492   5.373  16.605  0.00  0.00    +0.000 A 
ATOM      5  C   UNL     1      48.991   4.295  17.341  0.00  0.00    +0.000 A 
ATOM      6  C   UNL     1      50.308   4.351  17.823  0.00  0.00    +0.000 A 
ENDROOT
BRANCH   1  10
ATOM      7  C   UNL     1      52.611   4.425  21.068  0.00  0.00    +0.000 C 
ATOM      8  C   UNL     1      53.586   5.254  20.236  0.00  0.00    +0.000 C 
ATOM      9  C   UNL     1      52.866   6.207  19.254  0.00  0.00    +0.000 C 
ATOM     10  N   UNL     1      52.446   5.471  18.055  0.00  0.00    +0.000 N 
ATOM     11  C   UNL     1      53.550   4.765  17.393  0.00  0.00    +0.000 C 
ATOM     12  C   UNL     1      54.235   3.803  18.379  0.00  0.00    +0.000 C 
ATOM     13  C   UNL     1      53.444   2.518  18.604  0.00  0.00    +0.000 C 
ATOM     14  O   UNL     1      54.599   4.440  19.617  0.00  0.00    +0.000 OA
ENDBRANCH   1  10
BRANCH   5  15
ATOM     15  C   UNL     1      48.161   3.064  17.600  0.00  0.00    +0.000 C 
ATOM     16  F   UNL     1      46.838   3.233  17.324  0.00  0.00    +0.000 F 
ATOM     17  F   UNL     1      48.563   2.004  16.843  0.00  0.00    +0.000 F 
ATOM     18  F   UNL     1      48.226   2.644  18.893  0.00  0.00    +0.000 F 
ENDBRANCH   5  15
BRANCH   3  19
ATOM     19  C   UNL     1      48.797   7.592  15.440  0.00  0.00    +0.000 C 
BRANCH  19  20
ATOM     20  C   UNL     1      48.491   7.047  14.041  0.00  0.00    +0.000 C 
BRANCH  20  21
ATOM     21  N   UNL     1      47.150   7.404  13.597  0.00  0.00    +0.000 N 
ATOM     22  C   UNL     1      46.342   6.365  13.142  0.00  0.00    +0.000 A 
ATOM     23  C   UNL     1      46.397   5.055  13.645  0.00  0.00    +0.000 A 
ATOM     24  N   UNL     1      45.621   4.026  13.223  0.00  0.00    +0.000 NA
ATOM     25  C   UNL     1      44.714   4.374  12.273  0.00  0.00    +0.000 A 
ATOM     26  C   UNL     1      44.618   5.671  11.785  0.00  0.00    +0.000 A 
ATOM     27  N   UNL     1      45.429   6.683  12.201  0.00  0.00    +0.000 NA
ATOM     28  H   UNL     1      47.071   8.169  12.928  0.00  0.00    +0.000 HD
BRANCH  25  29
ATOM     29  C   UNL     1      43.826   3.304  11.758  0.00  0.00    +0.000 C 
ATOM     30  N   UNL     1      43.647   2.207  12.560  0.00  0.00    +0.000 N 
ATOM     31  O   UNL     1      43.276   3.390  10.664  0.00  0.00    +0.000 OA
ATOM     32  H   UNL     1      44.109   2.140  13.461  0.00  0.00    +0.000 HD
ATOM     33  H   UNL     1      43.042   1.463  12.248  0.00  0.00    +0.000 HD
ENDBRANCH  25  29
ENDBRANCH  20  21
ENDBRANCH  19  20
ENDBRANCH   3  19
TORSDOF 6
ENDMDL
MODEL 9
REMARK VINA RESULT:    -5.961      4.404      7.889
REMARK INTER + INTRA:          -9.213
REMARK INTER:                  -8.180
REMARK INTRA:                  -1.033
REMARK UNBOUND:                -1.161
REMARK  Name = 
REMARK  8 active torsions:
REMARK  status: ('A' for Active; 'I' for Inactive)
REMARK    1  A    between atoms: C_1  and  C_2
REMARK    2  A    between atoms: N_4  and  C_5
REMARK    3  A    between atoms: C_7  and  C_8
REMARK    4  A    between atoms: C_8  and  C_9
REMARK    5  A    between atoms: C_9  and  N_10
REMARK    6  A    between atoms: C_14  and  C_15
REMARK    7  A    between atoms: C_21  and  C_22
REMARK    8  A    between atoms: C_28  and  C_29
REMARK                            x       y       z     vdW  Elec       q    Type
REMARK                         _______ _______ _______ _____ _____    ______ ____
ROOT
ATOM      1  C   UNL     1      44.851   6.750  11.854  0.00  0.00    +0.000 A 
ATOM      2  C   UNL     1      46.199   6.666  12.238  0.00  0.00    +0.000 A 
ATOM      3  C   UNL     1      47.029   7.795  12.325  0.00  0.00    +0.000 A 
ATOM      4  C   UNL     1      46.493   9.055  12.041  0.00  0.00    +0.000 A 
ATOM      5  C   UNL     1      45.156   9.185  11.655  0.00  0.00    +0.000 A 
ATOM      6  C   UNL     1      44.358   8.033  11.571  0.00  0.00    +0.000 A 
ENDROOT
BRANCH   1  10
ATOM      7  C   UNL     1      45.151   3.643   9.502  0.00  0.00    +0.000 C 
ATOM      8  C   UNL     1      43.778   3.759  10.159  0.00  0.00    +0.000 C 
ATOM      9  C   UNL     1      43.403   5.221  10.494  0.00  0.00    +0.000 C 
ATOM     10  N   UNL     1      44.053   5.635  11.744  0.00  0.00    +0.000 N 
ATOM     11  C   UNL     1      43.759   4.742  12.872  0.00  0.00    +0.000 C 
ATOM     12  C   UNL     1      44.165   3.299  12.528  0.00  0.00    +0.000 C 
ATOM     13  C   UNL     1      45.668   3.062  12.631  0.00  0.00    +0.000 C 
ATOM     14  O   UNL     1      43.630   2.853  11.269  0.00  0.00    +0.000 OA
ENDBRANCH   1  10
BRANCH   5  15
ATOM     15  C   UNL     1      44.564  10.524  11.296  0.00  0.00    +0.000 C 
ATOM     16  F   UNL     1      43.204  10.553  11.367  0.00  0.00    +0.000 F 
ATOM     17  F   UNL     1      44.998  11.516  12.124  0.00  0.00    +0.000 F 
ATOM     18  F   UNL     1      44.885  10.924  10.035  0.00  0.00    +0.000 F 
ENDBRANCH   5  15
BRANCH   3  19
ATOM     19  C   UNL     1      48.506   7.646  12.621  0.00  0.00    +0.000 C 
BRANCH  19  20
ATOM     20  C   UNL     1      48.825   8.164  14.028  0.00  0.00    +0.000 C 
BRANCH  20  21
ATOM     21  N   UNL     1      49.771   7.303  14.726  0.00  0.00    +0.000 N 
ATOM     22  C   UNL     1      49.235   6.299  15.527  0.00  0.00    +0.000 A 
ATOM     23  C   UNL     1      48.031   5.634  15.244  0.00  0.00    +0.000 A 
ATOM     24  N   UNL     1      47.486   4.651  16.005  0.00  0.00    +0.000 NA
ATOM     25  C   UNL     1      48.242   4.307  17.080  0.00  0.00    +0.000 A 
ATOM     26  C   UNL     1      49.452   4.927  17.361  0.00  0.00    +0.000 A 
ATOM     27  N   UNL     1      49.965   5.934  16.601  0.00  0.00    +0.000 NA
ATOM     28  H   UNL     1      50.507   7.763  15.262  0.00  0.00    +0.000 HD
BRANCH  25  29
ATOM     29  C   UNL     1      47.716   3.238  17.964  0.00  0.00    +0.000 C 
ATOM     30  N   UNL     1      48.346   3.063  19.168  0.00  0.00    +0.000 N 
ATOM     31  O   UNL     1      46.763   2.537  17.635  0.00  0.00    +0.000 OA
ATOM     32  H   UNL     1      49.136   3.642  19.431  0.00  0.00    +0.000 HD
ATOM     33  H   UNL     1      48.010   2.353  19.800  0.00  0.00    +0.000 HD
ENDBRANCH  25  29
ENDBRANCH  20  21
ENDBRANCH  19  20
ENDBRANCH   3  19
TORSDOF 6
ENDMDL
