MODEL 1
REMARK VINA RESULT:    -8.319      0.000      0.000
REMARK INTER + INTRA:          -9.982
REMARK INTER:                 -10.264
REMARK INTRA:                   0.283
REMARK UNBOUND:                 0.283
REMARK  Name = 
REMARK  4 active torsions:
REMARK  status: ('A' for Active; 'I' for Inactive)
REMARK    1  A    between atoms: C_2  and  C_3
REMARK    2  A    between atoms: C_6  and  C_7
REMARK    3  A    between atoms: C_7  and  N_8
REMARK    4  A    between atoms: C_12  and  C_13
REMARK                            x       y       z     vdW  Elec       q    Type
REMARK                         _______ _______ _______ _____ _____    ______ ____
ROOT
ATOM      1  N   UNL     1      44.404   5.212   9.717  0.00  0.00    +0.000 N 
ATOM      2  C   UNL     1      45.033   4.107   9.169  0.00  0.00    +0.000 A 
ATOM      3  C   UNL     1      45.056   2.821   9.709  0.00  0.00    +0.000 A 
ATOM      4  N   UNL     1      45.704   1.765   9.132  0.00  0.00    +0.000 NA
ATOM      5  C   UNL     1      46.317   2.056   7.951  0.00  0.00    +0.000 A 
ATOM      6  C   UNL     1      46.275   3.320   7.391  0.00  0.00    +0.000 A 
ATOM      7  N   UNL     1      45.641   4.360   7.987  0.00  0.00    +0.000 NA
ATOM      8  H   UNL     1      44.655   6.022   9.157  0.00  0.00    +0.000 HD
ENDROOT
BRANCH   5   9
ATOM      9  C   UNL     1      47.064   0.977   7.249  0.00  0.00    +0.000 C 
ATOM     10  N   UNL     1      46.793  -0.312   7.619  0.00  0.00    +0.000 N 
ATOM     11  O   UNL     1      47.892   1.226   6.379  0.00  0.00    +0.000 OA
ATOM     12  H   UNL     1      46.113  -0.521   8.339  0.00  0.00    +0.000 HD
ATOM     13  H   UNL     1      47.286  -1.063   7.154  0.00  0.00    +0.000 HD
ENDBRANCH   5   9
BRANCH   1  14
ATOM     14  C   UNL     1      43.992   5.403  11.104  0.00  0.00    +0.000 C 
ATOM     15  C   UNL     1      42.594   5.853  11.474  0.00  0.00    +0.000 C 
ATOM     16  C   UNL     1      42.932   4.405  11.581  0.00  0.00    +0.000 C 
BRANCH  14  20
ATOM     17  C   UNL     1      47.378   6.210  13.713  0.00  0.00    +0.000 A 
ATOM     18  C   UNL     1      46.846   4.922  13.654  0.00  0.00    +0.000 A 
ATOM     19  C   UNL     1      45.737   4.662  12.845  0.00  0.00    +0.000 A 
ATOM     20  C   UNL     1      45.141   5.676  12.070  0.00  0.00    +0.000 A 
ATOM     21  C   UNL     1      45.664   6.975  12.196  0.00  0.00    +0.000 A 
ATOM     22  C   UNL     1      46.777   7.242  12.995  0.00  0.00    +0.000 A 
BRANCH  17  24
ATOM     23  N   UNL     1      49.495   6.665  15.137  0.00  0.00    +0.000 NA
ATOM     24  C   UNL     1      48.546   6.470  14.493  0.00  0.00    +0.000 C 
ENDBRANCH  17  24
ENDBRANCH  14  20
ENDBRANCH   1  14
TORSDOF 4
ENDMDL
MODEL 2
REMARK VINA RESULT:    -8.182      3.140      6.692
REMARK INTER + INTRA:          -9.813
REMARK INTER:                  -9.369
REMARK INTRA:                  -0.444
REMARK UNBOUND:                 0.283
REMARK  Name = 
REMARK  4 active torsions:
REMARK  status: ('A' for Active; 'I' for Inactive)
REMARK    1  A    between atoms: C_2  and  C_3
REMARK    2  A    between atoms: C_6  and  C_7
REMARK    3  A    between atoms: C_7  and  N_8
REMARK    4  A    between atoms: C_12  and  C_13
REMARK                            x       y       z     vdW  Elec       q    Type
REMARK                         _______ _______ _______ _____ _____    ______ ____
ROOT
ATOM      1  N   UNL     1      45.396   5.263  11.726  0.00  0.00    +0.000 N 
ATOM      2  C   UNL     1      46.091   4.860  12.854  0.00  0.00    +0.000 A 
ATOM      3  C   UNL     1      46.416   3.546  13.195  0.00  0.00    +0.000 A 
ATOM      4  N   UNL     1      47.094   3.200  14.329  0.00  0.00    +0.000 NA
ATOM      5  C   UNL     1      47.465   4.254  15.109  0.00  0.00    +0.000 A 
ATOM      6  C   UNL     1      47.176   5.563  14.766  0.00  0.00    +0.000 A 
ATOM      7  N   UNL     1      46.486   5.886  13.643  0.00  0.00    +0.000 NA
ATOM      8  H   UNL     1      45.221   6.261  11.809  0.00  0.00    +0.000 HD
ENDROOT
BRANCH   5   9
ATOM      9  C   UNL     1      48.197   3.983  16.377  0.00  0.00    +0.000 C 
ATOM     10  N   UNL     1      47.591   3.153  17.280  0.00  0.00    +0.000 N 
ATOM     11  O   UNL     1      49.292   4.484  16.609  0.00  0.00    +0.000 OA
ATOM     12  H   UNL     1      46.686   2.741  17.093  0.00  0.00    +0.000 HD
ATOM     13  H   UNL     1      48.070   2.952  18.148  0.00  0.00    +0.000 HD
ENDBRANCH   5   9
BRANCH   1  14
ATOM     14  C   UNL     1      44.524   4.452  10.883  0.00  0.00    +0.000 C 
ATOM     15  C   UNL     1      43.271   3.792  11.420  0.00  0.00    +0.000 C 
ATOM     16  C   UNL     1      43.139   5.061  10.651  0.00  0.00    +0.000 C 
BRANCH  14  20
ATOM     17  C   UNL     1      46.613   2.689   7.498  0.00  0.00    +0.000 A 
ATOM     18  C   UNL     1      46.553   4.078   7.623  0.00  0.00    +0.000 A 
ATOM     19  C   UNL     1      45.854   4.651   8.688  0.00  0.00    +0.000 A 
ATOM     20  C   UNL     1      45.211   3.857   9.657  0.00  0.00    +0.000 A 
ATOM     21  C   UNL     1      45.240   2.463   9.470  0.00  0.00    +0.000 A 
ATOM     22  C   UNL     1      45.943   1.881   8.414  0.00  0.00    +0.000 A 
BRANCH  17  24
ATOM     23  N   UNL     1      48.004   1.625   5.588  0.00  0.00    +0.000 NA
ATOM     24  C   UNL     1      47.373   2.095   6.444  0.00  0.00    +0.000 C 
ENDBRANCH  17  24
ENDBRANCH  14  20
ENDBRANCH   1  14
TORSDOF 4
ENDMDL
MODEL 3
REMARK VINA RESULT:    -7.700      2.947      6.782
REMARK INTER + INTRA:          -9.218
REMARK INTER:                  -8.758
REMARK INTRA:                  -0.460
REMARK UNBOUND:                 0.283
REMARK  Name = 
REMARK  4 active torsions:
REMARK  status: ('A' for Active; 'I' for Inactive)
REMARK    1  A    between atoms: C_2  and  C_3
REMARK    2  A    between atoms: C_6  and  C_7
REMARK    3  A    between atoms: C_7  and  N_8
REMARK    4  A    between atoms: C_12  and  C_13
REMARK                            x       y       z     vdW  Elec       q    Type
REMARK                         _______ _______ _______ _____ _____    ______ ____
ROOT
ATOM      1  N   UNL     1      45.161   6.364  11.480  0.00  0.00    +0.000 N 
ATOM      2  C   UNL     1      46.208   6.446  12.383  0.00  0.00    +0.000 A 
ATOM      3  C   UNL     1      46.945   5.375  12.888  0.00  0.00    +0.000 A 
ATOM      4  N   UNL     1      47.963   5.509  13.789  0.00  0.00    +0.000 NA
ATOM      5  C   UNL     1      48.233   6.795  14.147  0.00  0.00    +0.000 A 
ATOM      6  C   UNL     1      47.529   7.868  13.629  0.00  0.00    +0.000 A 
ATOM      7  N   UNL     1      46.510   7.713  12.748  0.00  0.00    +0.000 NA
ATOM      8  H   UNL     1      44.757   7.292  11.387  0.00  0.00    +0.000 HD
ENDROOT
BRANCH   5   9
ATOM      9  C   UNL     1      49.316   7.050  15.136  0.00  0.00    +0.000 C 
ATOM     10  N   UNL     1      50.546   7.385  14.640  0.00  0.00    +0.000 N 
ATOM     11  O   UNL     1      49.121   6.960  16.344  0.00  0.00    +0.000 OA
ATOM     12  H   UNL     1      50.711   7.456  13.644  0.00  0.00    +0.000 HD
ATOM     13  H   UNL     1      51.298   7.565  15.293  0.00  0.00    +0.000 HD
ENDBRANCH   5   9
BRANCH   1  14
ATOM     14  C   UNL     1      44.344   5.194  11.170  0.00  0.00    +0.000 C 
ATOM     15  C   UNL     1      43.386   4.592  12.177  0.00  0.00    +0.000 C 
ATOM     16  C   UNL     1      42.841   5.481  11.113  0.00  0.00    +0.000 C 
BRANCH  14  20
ATOM     17  C   UNL     1      46.064   2.619   8.115  0.00  0.00    +0.000 A 
ATOM     18  C   UNL     1      46.183   4.004   7.996  0.00  0.00    +0.000 A 
ATOM     19  C   UNL     1      45.604   4.839   8.955  0.00  0.00    +0.000 A 
ATOM     20  C   UNL     1      44.903   4.313  10.057  0.00  0.00    +0.000 A 
ATOM     21  C   UNL     1      44.750   2.916  10.117  0.00  0.00    +0.000 A 
ATOM     22  C   UNL     1      45.333   2.075   9.168  0.00  0.00    +0.000 A 
BRANCH  17  24
ATOM     23  N   UNL     1      47.218   1.044   6.410  0.00  0.00    +0.000 NA
ATOM     24  C   UNL     1      46.702   1.759   7.170  0.00  0.00    +0.000 C 
ENDBRANCH  17  24
ENDBRANCH  14  20
ENDBRANCH   1  14
TORSDOF 4
ENDMDL
MODEL 4
REMARK VINA RESULT:    -7.656      3.013      6.965
REMARK INTER + INTRA:          -9.164
REMARK INTER:                  -8.877
REMARK INTRA:                  -0.287
REMARK UNBOUND:                 0.283
REMARK  Name = 
REMARK  4 active torsions:
REMARK  status: ('A' for Active; 'I' for Inactive)
REMARK    1  A    between atoms: C_2  and  C_3
REMARK    2  A    between atoms: C_6  and  C_7
REMARK    3  A    between atoms: C_7  and  N_8
REMARK    4  A    between atoms: C_12  and  C_13
REMARK                            x       y       z     vdW  Elec       q    Type
REMARK                         _______ _______ _______ _____ _____    ______ ____
ROOT
ATOM      1  N   UNL     1      44.538   5.969  11.265  0.00  0.00    +0.000 N 
ATOM      2  C   UNL     1      45.490   6.582  12.062  0.00  0.00    +0.000 A 
ATOM      3  C   UNL     1      46.652   5.990  12.560  0.00  0.00    +0.000 A 
ATOM      4  N   UNL     1      47.555   6.637  13.354  0.00  0.00    +0.000 NA
ATOM      5  C   UNL     1      47.251   7.940  13.610  0.00  0.00    +0.000 A 
ATOM      6  C   UNL     1      46.118   8.547  13.096  0.00  0.00    +0.000 A 
ATOM      7  N   UNL     1      45.223   7.882  12.323  0.00  0.00    +0.000 NA
ATOM      8  H   UNL     1      43.761   6.616  11.155  0.00  0.00    +0.000 HD
ENDROOT
BRANCH   5   9
ATOM      9  C   UNL     1      48.164   8.731  14.479  0.00  0.00    +0.000 C 
ATOM     10  N   UNL     1      47.634   9.251  15.628  0.00  0.00    +0.000 N 
ATOM     11  O   UNL     1      49.339   8.917  14.181  0.00  0.00    +0.000 OA
ATOM     12  H   UNL     1      46.664   9.102  15.875  0.00  0.00    +0.000 HD
ATOM     13  H   UNL     1      48.236   9.790  16.237  0.00  0.00    +0.000 HD
ENDBRANCH   5   9
BRANCH   1  14
ATOM     14  C   UNL     1      44.305   4.538  11.101  0.00  0.00    +0.000 C 
ATOM     15  C   UNL     1      43.924   3.645  12.263  0.00  0.00    +0.000 C 
ATOM     16  C   UNL     1      42.853   4.112  11.338  0.00  0.00    +0.000 C 
BRANCH  14  20
ATOM     17  C   UNL     1      46.408   2.722   7.753  0.00  0.00    +0.000 A 
ATOM     18  C   UNL     1      46.327   4.112   7.844  0.00  0.00    +0.000 A 
ATOM     19  C   UNL     1      45.625   4.702   8.897  0.00  0.00    +0.000 A 
ATOM     20  C   UNL     1      44.995   3.923   9.887  0.00  0.00    +0.000 A 
ATOM     21  C   UNL     1      45.045   2.525   9.735  0.00  0.00    +0.000 A 
ATOM     22  C   UNL     1      45.752   1.927   8.691  0.00  0.00    +0.000 A 
BRANCH  17  24
ATOM     23  N   UNL     1      47.811   1.622   5.872  0.00  0.00    +0.000 NA
ATOM     24  C   UNL     1      47.172   2.114   6.711  0.00  0.00    +0.000 C 
ENDBRANCH  17  24
ENDBRANCH  14  20
ENDBRANCH   1  14
TORSDOF 4
ENDMDL
MODEL 5
REMARK VINA RESULT:    -7.448      1.625      2.295
REMARK INTER + INTRA:          -8.907
REMARK INTER:                  -8.543
REMARK INTRA:                  -0.363
REMARK UNBOUND:                 0.283
REMARK  Name = 
REMARK  4 active torsions:
REMARK  status: ('A' for Active; 'I' for Inactive)
REMARK    1  A    between atoms: C_2  and  C_3
REMARK    2  A    between atoms: C_6  and  C_7
REMARK    3  A    between atoms: C_7  and  N_8
REMARK    4  A    between atoms: C_12  and  C_13
REMARK                            x       y       z     vdW  Elec       q    Type
REMARK                         _______ _______ _______ _____ _____    ______ ____
ROOT
ATOM      1  N   UNL     1      44.581   3.958  11.170  0.00  0.00    +0.000 N 
ATOM      2  C   UNL     1      45.206   3.765   9.949  0.00  0.00    +0.000 A 
ATOM      3  C   UNL     1      45.755   4.759   9.139  0.00  0.00    +0.000 A 
ATOM      4  N   UNL     1      46.351   4.516   7.935  0.00  0.00    +0.000 NA
ATOM      5  C   UNL     1      46.400   3.201   7.584  0.00  0.00    +0.000 A 
ATOM      6  C   UNL     1      45.887   2.203   8.394  0.00  0.00    +0.000 A 
ATOM      7  N   UNL     1      45.283   2.466   9.579  0.00  0.00    +0.000 NA
ATOM      8  H   UNL     1      44.193   3.066  11.465  0.00  0.00    +0.000 HD
ENDROOT
BRANCH   5   9
ATOM      9  C   UNL     1      47.017   2.830   6.282  0.00  0.00    +0.000 C 
ATOM     10  N   UNL     1      48.350   2.521   6.290  0.00  0.00    +0.000 N 
ATOM     11  O   UNL     1      46.367   2.806   5.242  0.00  0.00    +0.000 OA
ATOM     12  H   UNL     1      48.891   2.543   7.145  0.00  0.00    +0.000 HD
ATOM     13  H   UNL     1      48.792   2.263   5.417  0.00  0.00    +0.000 HD
ENDBRANCH   5   9
BRANCH   1  14
ATOM     14  C   UNL     1      44.003   5.195  11.686  0.00  0.00    +0.000 C 
ATOM     15  C   UNL     1      42.587   5.620  11.357  0.00  0.00    +0.000 C 
ATOM     16  C   UNL     1      42.854   4.980  12.675  0.00  0.00    +0.000 C 
BRANCH  14  20
ATOM     17  C   UNL     1      46.878   8.204  12.952  0.00  0.00    +0.000 A 
ATOM     18  C   UNL     1      45.771   8.585  12.192  0.00  0.00    +0.000 A 
ATOM     19  C   UNL     1      44.862   7.620  11.752  0.00  0.00    +0.000 A 
ATOM     20  C   UNL     1      45.028   6.258  12.068  0.00  0.00    +0.000 A 
ATOM     21  C   UNL     1      46.184   5.899  12.785  0.00  0.00    +0.000 A 
ATOM     22  C   UNL     1      47.093   6.857  13.236  0.00  0.00    +0.000 A 
BRANCH  17  24
ATOM     23  N   UNL     1      48.523   9.984  13.869  0.00  0.00    +0.000 NA
ATOM     24  C   UNL     1      47.779   9.192  13.453  0.00  0.00    +0.000 C 
ENDBRANCH  17  24
ENDBRANCH  14  20
ENDBRANCH   1  14
TORSDOF 4
ENDMDL
MODEL 6
REMARK VINA RESULT:    -6.442      3.049      6.769
REMARK INTER + INTRA:          -7.666
REMARK INTER:                  -8.033
REMARK INTRA:                   0.367
REMARK UNBOUND:                 0.283
REMARK  Name = 
REMARK  4 active torsions:
REMARK  status: ('A' for Active; 'I' for Inactive)
REMARK    1  A    between atoms: C_2  and  C_3
REMARK    2  A    between atoms: C_6  and  C_7
REMARK    3  A    between atoms: C_7  and  N_8
REMARK    4  A    between atoms: C_12  and  C_13
REMARK                            x       y       z     vdW  Elec       q    Type
REMARK                         _______ _______ _______ _____ _____    ______ ____
ROOT
ATOM      1  N   UNL     1      45.397   3.607  12.570  0.00  0.00    +0.000 N 
ATOM      2  C   UNL     1      46.035   4.799  12.870  0.00  0.00    +0.000 A 
ATOM      3  C   UNL     1      45.636   6.072  12.461  0.00  0.00    +0.000 A 
ATOM      4  N   UNL     1      46.309   7.218  12.775  0.00  0.00    +0.000 NA
ATOM      5  C   UNL     1      47.408   7.031  13.557  0.00  0.00    +0.000 A 
ATOM      6  C   UNL     1      47.796   5.776  13.995  0.00  0.00    +0.000 A 
ATOM      7  N   UNL     1      47.124   4.647  13.658  0.00  0.00    +0.000 NA
ATOM      8  H   UNL     1      45.980   2.848  12.913  0.00  0.00    +0.000 HD
ENDROOT
BRANCH   5   9
ATOM      9  C   UNL     1      48.221   8.215  13.944  0.00  0.00    +0.000 C 
ATOM     10  N   UNL     1      49.444   7.974  14.509  0.00  0.00    +0.000 N 
ATOM     11  O   UNL     1      47.817   9.361  13.772  0.00  0.00    +0.000 OA
ATOM     12  H   UNL     1      49.779   7.030  14.656  0.00  0.00    +0.000 HD
ATOM     13  H   UNL     1      50.017   8.763  14.778  0.00  0.00    +0.000 HD
ENDBRANCH   5   9
BRANCH   1  14
ATOM     14  C   UNL     1      44.457   3.351  11.484  0.00  0.00    +0.000 C 
ATOM     15  C   UNL     1      43.114   2.691  11.719  0.00  0.00    +0.000 C 
ATOM     16  C   UNL     1      43.167   4.173  11.570  0.00  0.00    +0.000 C 
BRANCH  14  20
ATOM     17  C   UNL     1      46.135   3.135   7.475  0.00  0.00    +0.000 A 
ATOM     18  C   UNL     1      45.903   1.959   8.190  0.00  0.00    +0.000 A 
ATOM     19  C   UNL     1      45.397   2.022   9.490  0.00  0.00    +0.000 A 
ATOM     20  C   UNL     1      45.101   3.254  10.104  0.00  0.00    +0.000 A 
ATOM     21  C   UNL     1      45.400   4.423   9.380  0.00  0.00    +0.000 A 
ATOM     22  C   UNL     1      45.898   4.369   8.077  0.00  0.00    +0.000 A 
BRANCH  17  24
ATOM     23  N   UNL     1      46.992   3.023   5.032  0.00  0.00    +0.000 NA
ATOM     24  C   UNL     1      46.598   3.076   6.126  0.00  0.00    +0.000 C 
ENDBRANCH  17  24
ENDBRANCH  14  20
ENDBRANCH   1  14
TORSDOF 4
ENDMDL
MODEL 7
REMARK VINA RESULT:    -5.959      5.435      8.667
REMARK INTER + INTRA:          -7.069
REMARK INTER:                  -6.694
REMARK INTRA:                  -0.375
REMARK UNBOUND:                 0.283
REMARK  Name = 
REMARK  4 active torsions:
REMARK  status: ('A' for Active; 'I' for Inactive)
REMARK    1  A    between atoms: C_2  and  C_3
REMARK    2  A    between atoms: C_6  and  C_7
REMARK    3  A    between atoms: C_7  and  N_8
REMARK    4  A    between atoms: C_12  and  C_13
REMARK                            x       y       z     vdW  Elec       q    Type
REMARK                         _______ _______ _______ _____ _____    ______ ____
ROOT
ATOM      1  N   UNL     1      49.939   4.642  17.428  0.00  0.00    +0.000 N 
ATOM      2  C   UNL     1      50.731   3.508  17.494  0.00  0.00    +0.000 A 
ATOM      3  C   UNL     1      50.375   2.229  17.061  0.00  0.00    +0.000 A 
ATOM      4  N   UNL     1      51.191   1.139  17.160  0.00  0.00    +0.000 NA
ATOM      5  C   UNL     1      52.416   1.396  17.698  0.00  0.00    +0.000 A 
ATOM      6  C   UNL     1      52.790   2.666  18.103  0.00  0.00    +0.000 A 
ATOM      7  N   UNL     1      51.959   3.734  18.012  0.00  0.00    +0.000 NA
ATOM      8  H   UNL     1      50.425   5.389  17.916  0.00  0.00    +0.000 HD
ENDROOT
BRANCH   5   9
ATOM      9  C   UNL     1      53.376   0.271  17.865  0.00  0.00    +0.000 C 
ATOM     10  N   UNL     1      53.832  -0.331  16.724  0.00  0.00    +0.000 N 
ATOM     11  O   UNL     1      53.741  -0.107  18.973  0.00  0.00    +0.000 OA
ATOM     12  H   UNL     1      53.530  -0.024  15.809  0.00  0.00    +0.000 HD
ATOM     13  H   UNL     1      54.488  -1.097  16.811  0.00  0.00    +0.000 HD
ENDBRANCH   5   9
BRANCH   1  14
ATOM     14  C   UNL     1      48.487   4.705  17.288  0.00  0.00    +0.000 C 
ATOM     15  C   UNL     1      47.553   4.016  18.261  0.00  0.00    +0.000 C 
ATOM     16  C   UNL     1      47.787   5.480  18.408  0.00  0.00    +0.000 C 
BRANCH  14  20
ATOM     17  C   UNL     1      47.006   5.657  13.309  0.00  0.00    +0.000 A 
ATOM     18  C   UNL     1      46.621   4.463  13.921  0.00  0.00    +0.000 A 
ATOM     19  C   UNL     1      47.120   4.134  15.184  0.00  0.00    +0.000 A 
ATOM     20  C   UNL     1      48.003   4.990  15.869  0.00  0.00    +0.000 A 
ATOM     21  C   UNL     1      48.418   6.156  15.202  0.00  0.00    +0.000 A 
ATOM     22  C   UNL     1      47.918   6.497  13.944  0.00  0.00    +0.000 A 
BRANCH  17  24
ATOM     23  N   UNL     1      46.000   6.310  11.012  0.00  0.00    +0.000 NA
ATOM     24  C   UNL     1      46.456   6.026  12.044  0.00  0.00    +0.000 C 
ENDBRANCH  17  24
ENDBRANCH  14  20
ENDBRANCH   1  14
TORSDOF 4
ENDMDL
MODEL 8
REMARK VINA RESULT:    -5.940      3.404      5.235
REMARK INTER + INTRA:          -7.047
REMARK INTER:                  -6.584
REMARK INTRA:                  -0.463
REMARK UNBOUND:                 0.283
REMARK  Name = 
REMARK  4 active torsions:
REMARK  status: ('A' for Active; 'I' for Inactive)
REMARK    1  A    between atoms: C_2  and  C_3
REMARK    2  A    between atoms: C_6  and  C_7
REMARK    3  A    between atoms: C_7  and  N_8
REMARK    4  A    between atoms: C_12  and  C_13
REMARK                            x       y       z     vdW  Elec       q    Type
REMARK                         _______ _______ _______ _____ _____    ______ ____
ROOT
ATOM      1  N   UNL     1      47.093   7.923  12.212  0.00  0.00    +0.000 N 
ATOM      2  C   UNL     1      46.366   6.748  12.114  0.00  0.00    +0.000 A 
ATOM      3  C   UNL     1      46.658   5.544  12.755  0.00  0.00    +0.000 A 
ATOM      4  N   UNL     1      45.914   4.407  12.615  0.00  0.00    +0.000 NA
ATOM      5  C   UNL     1      44.825   4.542  11.808  0.00  0.00    +0.000 A 
ATOM      6  C   UNL     1      44.508   5.739  11.191  0.00  0.00    +0.000 A 
ATOM      7  N   UNL     1      45.270   6.853  11.329  0.00  0.00    +0.000 NA
ATOM      8  H   UNL     1      46.700   8.587  11.551  0.00  0.00    +0.000 HD
ENDROOT
BRANCH   5   9
ATOM      9  C   UNL     1      43.955   3.357  11.577  0.00  0.00    +0.000 C 
ATOM     10  N   UNL     1      43.771   2.504  12.631  0.00  0.00    +0.000 N 
ATOM     11  O   UNL     1      43.427   3.145  10.490  0.00  0.00    +0.000 OA
ATOM     12  H   UNL     1      44.208   2.673  13.528  0.00  0.00    +0.000 HD
ATOM     13  H   UNL     1      43.182   1.692  12.499  0.00  0.00    +0.000 HD
ENDBRANCH   5   9
BRANCH   1  14
ATOM     14  C   UNL     1      48.480   8.076  12.642  0.00  0.00    +0.000 C 
ATOM     15  C   UNL     1      49.645   7.673  11.762  0.00  0.00    +0.000 C 
ATOM     16  C   UNL     1      49.269   9.113  11.838  0.00  0.00    +0.000 C 
BRANCH  14  20
ATOM     17  C   UNL     1      48.912   8.031  16.970  0.00  0.00    +0.000 A 
ATOM     18  C   UNL     1      48.207   9.069  16.359  0.00  0.00    +0.000 A 
ATOM     19  C   UNL     1      48.094   9.109  14.967  0.00  0.00    +0.000 A 
ATOM     20  C   UNL     1      48.669   8.113  14.155  0.00  0.00    +0.000 A 
ATOM     21  C   UNL     1      49.422   7.113  14.797  0.00  0.00    +0.000 A 
ATOM     22  C   UNL     1      49.533   7.060  16.188  0.00  0.00    +0.000 A 
BRANCH  17  24
ATOM     23  N   UNL     1      49.034   7.872  19.554  0.00  0.00    +0.000 NA
ATOM     24  C   UNL     1      48.983   7.952  18.394  0.00  0.00    +0.000 C 
ENDBRANCH  17  24
ENDBRANCH  14  20
ENDBRANCH   1  14
TORSDOF 4
ENDMDL
MODEL 9
REMARK VINA RESULT:    -5.636      4.150      6.003
REMARK INTER + INTRA:          -6.671
REMARK INTER:                  -6.622
REMARK INTRA:                  -0.049
REMARK UNBOUND:                 0.283
REMARK  Name = 
REMARK  4 active torsions:
REMARK  status: ('A' for Active; 'I' for Inactive)
REMARK    1  A    between atoms: C_2  and  C_3
REMARK    2  A    between atoms: C_6  and  C_7
REMARK    3  A    between atoms: C_7  and  N_8
REMARK    4  A    between atoms: C_12  and  C_13
REMARK                            x       y       z     vdW  Elec       q    Type
REMARK                         _______ _______ _______ _____ _____    ______ ____
ROOT
ATOM      1  N   UNL     1      48.061   7.046  13.031  0.00  0.00    +0.000 N 
ATOM      2  C   UNL     1      47.029   6.217  12.626  0.00  0.00    +0.000 A 
ATOM      3  C   UNL     1      46.261   6.363  11.470  0.00  0.00    +0.000 A 
ATOM      4  N   UNL     1      45.243   5.522  11.121  0.00  0.00    +0.000 NA
ATOM      5  C   UNL     1      45.043   4.489  11.986  0.00  0.00    +0.000 A 
ATOM      6  C   UNL     1      45.818   4.316  13.120  0.00  0.00    +0.000 A 
ATOM      7  N   UNL     1      46.813   5.173  13.458  0.00  0.00    +0.000 NA
ATOM      8  H   UNL     1      48.352   6.749  13.959  0.00  0.00    +0.000 HD
ENDROOT
BRANCH   5   9
ATOM      9  C   UNL     1      43.947   3.523  11.705  0.00  0.00    +0.000 C 
ATOM     10  N   UNL     1      43.893   2.399  12.483  0.00  0.00    +0.000 N 
ATOM     11  O   UNL     1      43.127   3.717  10.813  0.00  0.00    +0.000 OA
ATOM     12  H   UNL     1      44.569   2.234  13.218  0.00  0.00    +0.000 HD
ATOM     13  H   UNL     1      43.155   1.727  12.313  0.00  0.00    +0.000 HD
ENDBRANCH   5   9
BRANCH   1  14
ATOM     14  C   UNL     1      48.316   8.419  12.607  0.00  0.00    +0.000 C 
ATOM     15  C   UNL     1      47.209   9.448  12.499  0.00  0.00    +0.000 C 
ATOM     16  C   UNL     1      48.085   9.463  13.704  0.00  0.00    +0.000 C 
BRANCH  14  20
ATOM     17  C   UNL     1      52.015   8.868  10.362  0.00  0.00    +0.000 A 
ATOM     18  C   UNL     1      51.258   9.998  10.675  0.00  0.00    +0.000 A 
ATOM     19  C   UNL     1      50.052   9.858  11.366  0.00  0.00    +0.000 A 
ATOM     20  C   UNL     1      49.578   8.595  11.768  0.00  0.00    +0.000 A 
ATOM     21  C   UNL     1      50.334   7.472  11.386  0.00  0.00    +0.000 A 
ATOM     22  C   UNL     1      51.545   7.602  10.704  0.00  0.00    +0.000 A 
BRANCH  17  24
ATOM     23  N   UNL     1      54.298   9.138   9.165  0.00  0.00    +0.000 NA
ATOM     24  C   UNL     1      53.276   9.008   9.707  0.00  0.00    +0.000 C 
ENDBRANCH  17  24
ENDBRANCH  14  20
ENDBRANCH   1  14
TORSDOF 4
ENDMDL
