MODEL 1
REMARK VINA RESULT:    -6.786      0.000      0.000
REMARK INTER + INTRA:          -7.887
REMARK INTER:                  -7.976
REMARK INTRA:                   0.088
REMARK UNBOUND:                 0.088
REMARK  Name = 
REMARK  5 active torsions:
REMARK  status: ('A' for Active; 'I' for Inactive)
REMARK    1  A    between atoms: C_1  and  C_2
REMARK    2  A    between atoms: C_3  and  C_4
REMARK    3  A    between atoms: C_7  and  C_8
REMARK    4  A    between atoms: C_14  and  C_15
REMARK    5  A    between atoms: C_14  and  C_16
REMARK                            x       y       z     vdW  Elec       q    Type
REMARK                         _______ _______ _______ _____ _____    ______ ____
ROOT
ATOM      1  C   UNL     1      45.900   3.053  12.512  0.00  0.00    +0.000 C 
ATOM      2  C   UNL     1      44.953   4.247  12.445  0.00  0.00    +0.000 C 
ATOM      3  C   UNL     1      45.424   5.601  13.079  0.00  0.00    +0.000 C 
ATOM      4  C   UNL     1      45.611   6.150  11.638  0.00  0.00    +0.000 C 
ATOM      5  C   UNL     1      44.674   5.031  11.093  0.00  0.00    +0.000 C 
ATOM      6  C   UNL     1      43.220   5.534  11.032  0.00  0.00    +0.000 C 
ENDROOT
BRANCH   5   7
ATOM      7  C   UNL     1      45.113   4.358   9.691  0.00  0.00    +0.000 A 
ATOM      8  C   UNL     1      44.598   3.121   9.249  0.00  0.00    +0.000 A 
ATOM      9  C   UNL     1      44.894   2.613   7.984  0.00  0.00    +0.000 A 
ATOM     10  C   UNL     1      45.758   3.327   7.183  0.00  0.00    +0.000 A 
ATOM     11  F   UNL     1      46.034   2.856   5.956  0.00  0.00    +0.000 F 
ATOM     12  N   UNL     1      46.341   4.474   7.560  0.00  0.00    +0.000 NA
ATOM     13  C   UNL     1      46.009   4.948   8.788  0.00  0.00    +0.000 A 
ENDBRANCH   5   7
BRANCH   3  14
ATOM     14  C   UNL     1      46.664   5.655  14.046  0.00  0.00    +0.000 A 
ATOM     15  C   UNL     1      46.844   4.777  15.109  0.00  0.00    +0.000 A 
ATOM     16  N   UNL     1      47.880   4.781  15.965  0.00  0.00    +0.000 NA
ATOM     17  C   UNL     1      48.809   5.732  15.735  0.00  0.00    +0.000 A 
ATOM     18  N   UNL     1      48.780   6.637  14.742  0.00  0.00    +0.000 NA
ATOM     19  C   UNL     1      47.707   6.566  13.926  0.00  0.00    +0.000 A 
BRANCH  17  20
ATOM     20  C   UNL     1      49.967   5.739  16.700  0.00  0.00    +0.000 C 
ATOM     21  N   UNL     1      50.284   6.974  17.212  0.00  0.00    +0.000 N 
ATOM     22  O   UNL     1      50.602   4.737  17.031  0.00  0.00    +0.000 OA
ATOM     23  H   UNL     1      49.746   7.786  16.930  0.00  0.00    +0.000 HD
ATOM     24  H   UNL     1      51.045   7.062  17.871  0.00  0.00    +0.000 HD
ENDBRANCH  17  20
ENDBRANCH   3  14
TORSDOF 3
ENDMDL
MODEL 2
REMARK VINA RESULT:    -6.680      1.286      1.794
REMARK INTER + INTRA:          -7.763
REMARK INTER:                  -8.217
REMARK INTRA:                   0.454
REMARK UNBOUND:                 0.088
REMARK  Name = 
REMARK  5 active torsions:
REMARK  status: ('A' for Active; 'I' for Inactive)
REMARK    1  A    between atoms: C_1  and  C_2
REMARK    2  A    between atoms: C_3  and  C_4
REMARK    3  A    between atoms: C_7  and  C_8
REMARK    4  A    between atoms: C_14  and  C_15
REMARK    5  A    between atoms: C_14  and  C_16
REMARK                            x       y       z     vdW  Elec       q    Type
REMARK                         _______ _______ _______ _____ _____    ______ ____
ROOT
ATOM      1  C   UNL     1      46.140   3.258  12.629  0.00  0.00    +0.000 C 
ATOM      2  C   UNL     1      45.152   4.382  12.333  0.00  0.00    +0.000 C 
ATOM      3  C   UNL     1      45.591   5.854  12.649  0.00  0.00    +0.000 C 
ATOM      4  C   UNL     1      45.731   6.085  11.119  0.00  0.00    +0.000 C 
ATOM      5  C   UNL     1      44.821   4.849  10.852  0.00  0.00    +0.000 C 
ATOM      6  C   UNL     1      43.350   5.286  10.722  0.00  0.00    +0.000 C 
ENDROOT
BRANCH   5   7
ATOM      7  C   UNL     1      45.254   3.903   9.615  0.00  0.00    +0.000 A 
ATOM      8  C   UNL     1      45.855   4.411   8.444  0.00  0.00    +0.000 A 
ATOM      9  C   UNL     1      46.331   3.570   7.438  0.00  0.00    +0.000 A 
ATOM     10  C   UNL     1      46.151   2.212   7.588  0.00  0.00    +0.000 A 
ATOM     11  F   UNL     1      46.622   1.393   6.636  0.00  0.00    +0.000 F 
ATOM     12  N   UNL     1      45.528   1.659   8.640  0.00  0.00    +0.000 NA
ATOM     13  C   UNL     1      45.100   2.509   9.608  0.00  0.00    +0.000 A 
ENDBRANCH   5   7
BRANCH   3  14
ATOM     14  C   UNL     1      46.847   6.150  13.549  0.00  0.00    +0.000 A 
ATOM     15  C   UNL     1      47.696   7.232  13.345  0.00  0.00    +0.000 A 
ATOM     16  N   UNL     1      48.782   7.528  14.080  0.00  0.00    +0.000 NA
ATOM     17  C   UNL     1      49.031   6.681  15.101  0.00  0.00    +0.000 A 
ATOM     18  N   UNL     1      48.294   5.608  15.430  0.00  0.00    +0.000 NA
ATOM     19  C   UNL     1      47.221   5.378  14.643  0.00  0.00    +0.000 A 
BRANCH  17  20
ATOM     20  C   UNL     1      50.252   7.012  15.920  0.00  0.00    +0.000 C 
ATOM     21  N   UNL     1      51.377   7.300  15.187  0.00  0.00    +0.000 N 
ATOM     22  O   UNL     1      50.278   7.035  17.151  0.00  0.00    +0.000 OA
ATOM     23  H   UNL     1      51.334   7.280  14.174  0.00  0.00    +0.000 HD
ATOM     24  H   UNL     1      52.237   7.538  15.662  0.00  0.00    +0.000 HD
ENDBRANCH  17  20
ENDBRANCH   3  14
TORSDOF 3
ENDMDL
MODEL 3
REMARK VINA RESULT:    -6.375      2.561      2.922
REMARK INTER + INTRA:          -7.404
REMARK INTER:                  -7.208
REMARK INTRA:                  -0.197
REMARK UNBOUND:                 0.088
REMARK  Name = 
REMARK  5 active torsions:
REMARK  status: ('A' for Active; 'I' for Inactive)
REMARK    1  A    between atoms: C_1  and  C_2
REMARK    2  A    between atoms: C_3  and  C_4
REMARK    3  A    between atoms: C_7  and  C_8
REMARK    4  A    between atoms: C_14  and  C_15
REMARK    5  A    between atoms: C_14  and  C_16
REMARK                            x       y       z     vdW  Elec       q    Type
REMARK                         _______ _______ _______ _____ _____    ______ ____
ROOT
ATOM      1  C   UNL     1      46.091   4.840  13.366  0.00  0.00    +0.000 C 
ATOM      2  C   UNL     1      45.202   5.978  12.873  0.00  0.00    +0.000 C 
ATOM      3  C   UNL     1      45.883   7.343  12.507  0.00  0.00    +0.000 C 
ATOM      4  C   UNL     1      45.635   7.006  11.011  0.00  0.00    +0.000 C 
ATOM      5  C   UNL     1      44.546   5.973  11.428  0.00  0.00    +0.000 C 
ATOM      6  C   UNL     1      43.157   6.638  11.445  0.00  0.00    +0.000 C 
ENDROOT
BRANCH   5   7
ATOM      7  C   UNL     1      44.515   4.595  10.584  0.00  0.00    +0.000 A 
ATOM      8  C   UNL     1      45.246   4.418   9.391  0.00  0.00    +0.000 A 
ATOM      9  C   UNL     1      45.304   3.186   8.740  0.00  0.00    +0.000 A 
ATOM     10  C   UNL     1      44.577   2.140   9.264  0.00  0.00    +0.000 A 
ATOM     11  F   UNL     1      44.641   0.945   8.657  0.00  0.00    +0.000 F 
ATOM     12  N   UNL     1      43.804   2.248  10.356  0.00  0.00    +0.000 NA
ATOM     13  C   UNL     1      43.793   3.457  10.974  0.00  0.00    +0.000 A 
ENDBRANCH   5   7
BRANCH   3  14
ATOM     14  C   UNL     1      47.360   7.656  12.949  0.00  0.00    +0.000 A 
ATOM     15  C   UNL     1      47.684   8.275  14.151  0.00  0.00    +0.000 A 
ATOM     16  N   UNL     1      48.925   8.569  14.575  0.00  0.00    +0.000 NA
ATOM     17  C   UNL     1      49.917   8.207  13.735  0.00  0.00    +0.000 A 
ATOM     18  N   UNL     1      49.761   7.590  12.552  0.00  0.00    +0.000 NA
ATOM     19  C   UNL     1      48.483   7.331  12.199  0.00  0.00    +0.000 A 
BRANCH  17  20
ATOM     20  C   UNL     1      51.308   8.542  14.209  0.00  0.00    +0.000 C 
ATOM     21  N   UNL     1      51.951   7.528  14.876  0.00  0.00    +0.000 N 
ATOM     22  O   UNL     1      51.860   9.628  14.030  0.00  0.00    +0.000 OA
ATOM     23  H   UNL     1      51.480   6.639  15.009  0.00  0.00    +0.000 HD
ATOM     24  H   UNL     1      52.890   7.671  15.221  0.00  0.00    +0.000 HD
ENDBRANCH  17  20
ENDBRANCH   3  14
TORSDOF 3
ENDMDL
MODEL 4
REMARK VINA RESULT:    -6.184      3.945      7.626
REMARK INTER + INTRA:          -7.180
REMARK INTER:                  -7.998
REMARK INTRA:                   0.818
REMARK UNBOUND:                 0.088
REMARK  Name = 
REMARK  5 active torsions:
REMARK  status: ('A' for Active; 'I' for Inactive)
REMARK    1  A    between atoms: C_1  and  C_2
REMARK    2  A    between atoms: C_3  and  C_4
REMARK    3  A    between atoms: C_7  and  C_8
REMARK    4  A    between atoms: C_14  and  C_15
REMARK    5  A    between atoms: C_14  and  C_16
REMARK                            x       y       z     vdW  Elec       q    Type
REMARK                         _______ _______ _______ _____ _____    ______ ____
ROOT
ATOM      1  C   UNL     1      46.375   6.216  11.048  0.00  0.00    +0.000 C 
ATOM      2  C   UNL     1      45.123   5.468  11.497  0.00  0.00    +0.000 C 
ATOM      3  C   UNL     1      44.751   4.137  10.757  0.00  0.00    +0.000 C 
ATOM      4  C   UNL     1      45.209   3.365  12.025  0.00  0.00    +0.000 C 
ATOM      5  C   UNL     1      45.062   4.668  12.867  0.00  0.00    +0.000 C 
ATOM      6  C   UNL     1      43.657   4.744  13.494  0.00  0.00    +0.000 C 
ENDROOT
BRANCH   5   7
ATOM      7  C   UNL     1      46.205   4.927  13.979  0.00  0.00    +0.000 A 
ATOM      8  C   UNL     1      46.349   4.115  15.124  0.00  0.00    +0.000 A 
ATOM      9  C   UNL     1      47.413   4.278  16.011  0.00  0.00    +0.000 A 
ATOM     10  C   UNL     1      48.306   5.300  15.774  0.00  0.00    +0.000 A 
ATOM     11  F   UNL     1      49.344   5.453  16.610  0.00  0.00    +0.000 F 
ATOM     12  N   UNL     1      48.197   6.156  14.746  0.00  0.00    +0.000 NA
ATOM     13  C   UNL     1      47.162   5.949  13.892  0.00  0.00    +0.000 A 
ENDBRANCH   5   7
BRANCH   3  14
ATOM     14  C   UNL     1      45.427   3.755   9.388  0.00  0.00    +0.000 A 
ATOM     15  C   UNL     1      45.673   2.444   8.996  0.00  0.00    +0.000 A 
ATOM     16  N   UNL     1      46.249   2.063   7.843  0.00  0.00    +0.000 NA
ATOM     17  C   UNL     1      46.596   3.072   7.016  0.00  0.00    +0.000 A 
ATOM     18  N   UNL     1      46.407   4.381   7.249  0.00  0.00    +0.000 NA
ATOM     19  C   UNL     1      45.823   4.680   8.430  0.00  0.00    +0.000 A 
BRANCH  17  20
ATOM     20  C   UNL     1      47.247   2.643   5.726  0.00  0.00    +0.000 C 
ATOM     21  N   UNL     1      48.561   2.263   5.841  0.00  0.00    +0.000 N 
ATOM     22  O   UNL     1      46.677   2.619   4.635  0.00  0.00    +0.000 OA
ATOM     23  H   UNL     1      49.011   2.286   6.750  0.00  0.00    +0.000 HD
ATOM     24  H   UNL     1      49.068   1.956   5.023  0.00  0.00    +0.000 HD
ENDBRANCH  17  20
ENDBRANCH   3  14
TORSDOF 3
ENDMDL
MODEL 5
REMARK VINA RESULT:    -5.937      4.551      7.957
REMARK INTER + INTRA:          -6.890
REMARK INTER:                  -6.529
REMARK INTRA:                  -0.361
REMARK UNBOUND:                 0.088
REMARK  Name = 
REMARK  5 active torsions:
REMARK  status: ('A' for Active; 'I' for Inactive)
REMARK    1  A    between atoms: C_1  and  C_2
REMARK    2  A    between atoms: C_3  and  C_4
REMARK    3  A    between atoms: C_7  and  C_8
REMARK    4  A    between atoms: C_14  and  C_15
REMARK    5  A    between atoms: C_14  and  C_16
REMARK                            x       y       z     vdW  Elec       q    Type
REMARK                         _______ _______ _______ _____ _____    ______ ____
ROOT
ATOM      1  C   UNL     1      48.901   6.760  12.540  0.00  0.00    +0.000 C 
ATOM      2  C   UNL     1      48.171   8.054  12.189  0.00  0.00    +0.000 C 
ATOM      3  C   UNL     1      46.623   7.988  11.951  0.00  0.00    +0.000 C 
ATOM      4  C   UNL     1      46.435   8.696  13.321  0.00  0.00    +0.000 C 
ATOM      5  C   UNL     1      47.910   9.194  13.263  0.00  0.00    +0.000 C 
ATOM      6  C   UNL     1      47.979  10.591  12.618  0.00  0.00    +0.000 C 
ENDROOT
BRANCH   5   7
ATOM      7  C   UNL     1      48.726   9.161  14.657  0.00  0.00    +0.000 A 
ATOM      8  C   UNL     1      48.240   8.502  15.806  0.00  0.00    +0.000 A 
ATOM      9  C   UNL     1      49.009   8.380  16.964  0.00  0.00    +0.000 A 
ATOM     10  C   UNL     1      50.251   8.975  16.983  0.00  0.00    +0.000 A 
ATOM     11  F   UNL     1      51.007   8.848  18.085  0.00  0.00    +0.000 F 
ATOM     12  N   UNL     1      50.753   9.678  15.956  0.00  0.00    +0.000 NA
ATOM     13  C   UNL     1      49.985   9.752  14.840  0.00  0.00    +0.000 A 
ENDBRANCH   5   7
BRANCH   3  14
ATOM     14  C   UNL     1      45.893   6.611  11.736  0.00  0.00    +0.000 A 
ATOM     15  C   UNL     1      45.802   5.978  10.502  0.00  0.00    +0.000 A 
ATOM     16  N   UNL     1      45.189   4.806  10.263  0.00  0.00    +0.000 NA
ATOM     17  C   UNL     1      44.633   4.220  11.344  0.00  0.00    +0.000 A 
ATOM     18  N   UNL     1      44.654   4.701  12.598  0.00  0.00    +0.000 NA
ATOM     19  C   UNL     1      45.289   5.883  12.754  0.00  0.00    +0.000 A 
BRANCH  17  20
ATOM     20  C   UNL     1      43.941   2.908  11.072  0.00  0.00    +0.000 C 
ATOM     21  N   UNL     1      44.453   2.193  10.017  0.00  0.00    +0.000 N 
ATOM     22  O   UNL     1      42.990   2.477  11.724  0.00  0.00    +0.000 OA
ATOM     23  H   UNL     1      45.240   2.564   9.496  0.00  0.00    +0.000 HD
ATOM     24  H   UNL     1      44.048   1.300   9.774  0.00  0.00    +0.000 HD
ENDBRANCH  17  20
ENDBRANCH   3  14
TORSDOF 3
ENDMDL
MODEL 6
REMARK VINA RESULT:    -5.616      4.567      7.726
REMARK INTER + INTRA:          -6.513
REMARK INTER:                  -6.163
REMARK INTRA:                  -0.350
REMARK UNBOUND:                 0.088
REMARK  Name = 
REMARK  5 active torsions:
REMARK  status: ('A' for Active; 'I' for Inactive)
REMARK    1  A    between atoms: C_1  and  C_2
REMARK    2  A    between atoms: C_3  and  C_4
REMARK    3  A    between atoms: C_7  and  C_8
REMARK    4  A    between atoms: C_14  and  C_15
REMARK    5  A    between atoms: C_14  and  C_16
REMARK                            x       y       z     vdW  Elec       q    Type
REMARK                         _______ _______ _______ _____ _____    ______ ____
ROOT
ATOM      1  C   UNL     1      49.303   7.067  11.671  0.00  0.00    +0.000 C 
ATOM      2  C   UNL     1      48.562   8.282  12.221  0.00  0.00    +0.000 C 
ATOM      3  C   UNL     1      47.087   8.088  12.715  0.00  0.00    +0.000 C 
ATOM      4  C   UNL     1      47.612   8.222  14.171  0.00  0.00    +0.000 C 
ATOM      5  C   UNL     1      48.904   8.911  13.638  0.00  0.00    +0.000 C 
ATOM      6  C   UNL     1      48.728  10.441  13.624  0.00  0.00    +0.000 C 
ENDROOT
BRANCH   5   7
ATOM      7  C   UNL     1      50.284   8.495  14.369  0.00  0.00    +0.000 A 
ATOM      8  C   UNL     1      50.352   7.472  15.337  0.00  0.00    +0.000 A 
ATOM      9  C   UNL     1      51.568   7.044  15.871  0.00  0.00    +0.000 A 
ATOM     10  C   UNL     1      52.716   7.689  15.467  0.00  0.00    +0.000 A 
ATOM     11  F   UNL     1      53.893   7.273  15.960  0.00  0.00    +0.000 F 
ATOM     12  N   UNL     1      52.725   8.716  14.604  0.00  0.00    +0.000 NA
ATOM     13  C   UNL     1      51.525   9.086  14.089  0.00  0.00    +0.000 A 
ENDBRANCH   5   7
BRANCH   3  14
ATOM     14  C   UNL     1      46.274   6.791  12.350  0.00  0.00    +0.000 A 
ATOM     15  C   UNL     1      46.153   5.700  13.203  0.00  0.00    +0.000 A 
ATOM     16  N   UNL     1      45.475   4.569  12.940  0.00  0.00    +0.000 NA
ATOM     17  C   UNL     1      44.866   4.533  11.736  0.00  0.00    +0.000 A 
ATOM     18  N   UNL     1      44.880   5.513  10.818  0.00  0.00    +0.000 NA
ATOM     19  C   UNL     1      45.583   6.615  11.158  0.00  0.00    +0.000 A 
BRANCH  17  20
ATOM     20  C   UNL     1      44.112   3.261  11.441  0.00  0.00    +0.000 C 
ATOM     21  N   UNL     1      43.852   2.477  12.538  0.00  0.00    +0.000 N 
ATOM     22  O   UNL     1      43.739   2.920  10.319  0.00  0.00    +0.000 OA
ATOM     23  H   UNL     1      44.165   2.779  13.455  0.00  0.00    +0.000 HD
ATOM     24  H   UNL     1      43.345   1.610  12.426  0.00  0.00    +0.000 HD
ENDBRANCH  17  20
ENDBRANCH   3  14
TORSDOF 3
ENDMDL
MODEL 7
REMARK VINA RESULT:    -5.426      5.051      8.769
REMARK INTER + INTRA:          -6.289
REMARK INTER:                  -6.176
REMARK INTRA:                  -0.113
REMARK UNBOUND:                 0.088
REMARK  Name = 
REMARK  5 active torsions:
REMARK  status: ('A' for Active; 'I' for Inactive)
REMARK    1  A    between atoms: C_1  and  C_2
REMARK    2  A    between atoms: C_3  and  C_4
REMARK    3  A    between atoms: C_7  and  C_8
REMARK    4  A    between atoms: C_14  and  C_15
REMARK    5  A    between atoms: C_14  and  C_16
REMARK                            x       y       z     vdW  Elec       q    Type
REMARK                         _______ _______ _______ _____ _____    ______ ____
ROOT
ATOM      1  C   UNL     1      48.340   5.653  16.574  0.00  0.00    +0.000 C 
ATOM      2  C   UNL     1      49.150   6.438  15.546  0.00  0.00    +0.000 C 
ATOM      3  C   UNL     1      48.503   6.704  14.143  0.00  0.00    +0.000 C 
ATOM      4  C   UNL     1      48.316   8.186  14.569  0.00  0.00    +0.000 C 
ATOM      5  C   UNL     1      49.395   8.000  15.677  0.00  0.00    +0.000 C 
ATOM      6  C   UNL     1      50.785   8.392  15.142  0.00  0.00    +0.000 C 
ENDROOT
BRANCH   5   7
ATOM      7  C   UNL     1      49.094   8.727  17.089  0.00  0.00    +0.000 A 
ATOM      8  C   UNL     1      47.872   9.375  17.365  0.00  0.00    +0.000 A 
ATOM      9  C   UNL     1      47.583   9.892  18.628  0.00  0.00    +0.000 A 
ATOM     10  C   UNL     1      48.552   9.804  19.603  0.00  0.00    +0.000 A 
ATOM     11  F   UNL     1      48.277  10.281  20.827  0.00  0.00    +0.000 F 
ATOM     12  N   UNL     1      49.764   9.265  19.397  0.00  0.00    +0.000 NA
ATOM     13  C   UNL     1      49.997   8.752  18.162  0.00  0.00    +0.000 A 
ENDBRANCH   5   7
BRANCH   3  14
ATOM     14  C   UNL     1      47.225   5.913  13.676  0.00  0.00    +0.000 A 
ATOM     15  C   UNL     1      46.095   6.529  13.150  0.00  0.00    +0.000 A 
ATOM     16  N   UNL     1      44.978   5.903  12.740  0.00  0.00    +0.000 NA
ATOM     17  C   UNL     1      44.999   4.559  12.858  0.00  0.00    +0.000 A 
ATOM     18  N   UNL     1      46.021   3.827  13.330  0.00  0.00    +0.000 NA
ATOM     19  C   UNL     1      47.105   4.530  13.722  0.00  0.00    +0.000 A 
BRANCH  17  20
ATOM     20  C   UNL     1      43.743   3.860  12.403  0.00  0.00    +0.000 C 
ATOM     21  N   UNL     1      43.745   2.498  12.581  0.00  0.00    +0.000 N 
ATOM     22  O   UNL     1      42.771   4.430  11.909  0.00  0.00    +0.000 OA
ATOM     23  H   UNL     1      44.554   2.048  12.995  0.00  0.00    +0.000 HD
ATOM     24  H   UNL     1      42.937   1.956  12.308  0.00  0.00    +0.000 HD
ENDBRANCH  17  20
ENDBRANCH   3  14
TORSDOF 3
ENDMDL
MODEL 8
REMARK VINA RESULT:    -4.977      4.009      4.968
REMARK INTER + INTRA:          -5.761
REMARK INTER:                  -5.459
REMARK INTRA:                  -0.302
REMARK UNBOUND:                 0.088
REMARK  Name = 
REMARK  5 active torsions:
REMARK  status: ('A' for Active; 'I' for Inactive)
REMARK    1  A    between atoms: C_1  and  C_2
REMARK    2  A    between atoms: C_3  and  C_4
REMARK    3  A    between atoms: C_7  and  C_8
REMARK    4  A    between atoms: C_14  and  C_15
REMARK    5  A    between atoms: C_14  and  C_16
REMARK                            x       y       z     vdW  Elec       q    Type
REMARK                         _______ _______ _______ _____ _____    ______ ____
ROOT
ATOM      1  C   UNL     1      48.063   6.308  13.799  0.00  0.00    +0.000 C 
ATOM      2  C   UNL     1      47.433   7.663  13.493  0.00  0.00    +0.000 C 
ATOM      3  C   UNL     1      48.261   8.688  12.643  0.00  0.00    +0.000 C 
ATOM      4  C   UNL     1      47.303   8.398  11.455  0.00  0.00    +0.000 C 
ATOM      5  C   UNL     1      46.248   7.828  12.449  0.00  0.00    +0.000 C 
ATOM      6  C   UNL     1      45.272   8.936  12.887  0.00  0.00    +0.000 C 
ENDROOT
BRANCH   5   7
ATOM      7  C   UNL     1      45.447   6.513  11.958  0.00  0.00    +0.000 A 
ATOM      8  C   UNL     1      45.677   5.907  10.705  0.00  0.00    +0.000 A 
ATOM      9  C   UNL     1      45.065   4.706  10.346  0.00  0.00    +0.000 A 
ATOM     10  C   UNL     1      44.173   4.142  11.231  0.00  0.00    +0.000 A 
ATOM     11  F   UNL     1      43.593   2.977  10.903  0.00  0.00    +0.000 F 
ATOM     12  N   UNL     1      43.849   4.695  12.410  0.00  0.00    +0.000 NA
ATOM     13  C   UNL     1      44.484   5.850  12.734  0.00  0.00    +0.000 A 
ENDBRANCH   5   7
BRANCH   3  14
ATOM     14  C   UNL     1      49.803   8.484  12.403  0.00  0.00    +0.000 A 
ATOM     15  C   UNL     1      50.773   8.808  13.345  0.00  0.00    +0.000 A 
ATOM     16  N   UNL     1      52.100   8.658  13.190  0.00  0.00    +0.000 NA
ATOM     17  C   UNL     1      52.482   8.136  12.006  0.00  0.00    +0.000 A 
ATOM     18  N   UNL     1      51.663   7.761  11.010  0.00  0.00    +0.000 NA
ATOM     19  C   UNL     1      50.346   7.945  11.243  0.00  0.00    +0.000 A 
BRANCH  17  20
ATOM     20  C   UNL     1      53.971   7.974  11.833  0.00  0.00    +0.000 C 
ATOM     21  N   UNL     1      54.518   6.909  12.505  0.00  0.00    +0.000 N 
ATOM     22  O   UNL     1      54.675   8.717  11.149  0.00  0.00    +0.000 OA
ATOM     23  H   UNL     1      53.919   6.306  13.059  0.00  0.00    +0.000 HD
ATOM     24  H   UNL     1      55.509   6.728  12.435  0.00  0.00    +0.000 HD
ENDBRANCH  17  20
ENDBRANCH   3  14
TORSDOF 3
ENDMDL
MODEL 9
REMARK VINA RESULT:    -4.256     11.103     13.571
REMARK INTER + INTRA:          -4.914
REMARK INTER:                  -4.555
REMARK INTRA:                  -0.359
REMARK UNBOUND:                 0.088
REMARK  Name = 
REMARK  5 active torsions:
REMARK  status: ('A' for Active; 'I' for Inactive)
REMARK    1  A    between atoms: C_1  and  C_2
REMARK    2  A    between atoms: C_3  and  C_4
REMARK    3  A    between atoms: C_7  and  C_8
REMARK    4  A    between atoms: C_14  and  C_15
REMARK    5  A    between atoms: C_14  and  C_16
REMARK                            x       y       z     vdW  Elec       q    Type
REMARK                         _______ _______ _______ _____ _____    ______ ____
ROOT
ATOM      1  C   UNL     1      41.524  -2.807  13.042  0.00  0.00    +0.000 C 
ATOM      2  C   UNL     1      40.189  -2.988  13.759  0.00  0.00    +0.000 C 
ATOM      3  C   UNL     1      39.044  -3.751  13.008  0.00  0.00    +0.000 C 
ATOM      4  C   UNL     1      39.290  -4.952  13.961  0.00  0.00    +0.000 C 
ATOM      5  C   UNL     1      40.010  -4.004  14.966  0.00  0.00    +0.000 C 
ATOM      6  C   UNL     1      39.008  -3.464  16.004  0.00  0.00    +0.000 C 
ENDROOT
BRANCH   5   7
ATOM      7  C   UNL     1      41.324  -4.603  15.690  0.00  0.00    +0.000 A 
ATOM      8  C   UNL     1      41.907  -4.001  16.826  0.00  0.00    +0.000 A 
ATOM      9  C   UNL     1      42.967  -4.595  17.510  0.00  0.00    +0.000 A 
ATOM     10  C   UNL     1      43.480  -5.774  17.015  0.00  0.00    +0.000 A 
ATOM     11  F   UNL     1      44.488  -6.364  17.676  0.00  0.00    +0.000 F 
ATOM     12  N   UNL     1      43.026  -6.371  15.902  0.00  0.00    +0.000 NA
ATOM     13  C   UNL     1      41.978  -5.774  15.278  0.00  0.00    +0.000 A 
ENDBRANCH   5   7
BRANCH   3  14
ATOM     14  C   UNL     1      39.128  -4.020  11.460  0.00  0.00    +0.000 A 
ATOM     15  C   UNL     1      38.807  -3.067  10.500  0.00  0.00    +0.000 A 
ATOM     16  N   UNL     1      38.858  -3.244   9.169  0.00  0.00    +0.000 NA
ATOM     17  C   UNL     1      39.270  -4.466   8.769  0.00  0.00    +0.000 A 
ATOM     18  N   UNL     1      39.628  -5.478   9.576  0.00  0.00    +0.000 NA
ATOM     19  C   UNL     1      39.548  -5.220  10.899  0.00  0.00    +0.000 A 
BRANCH  17  20
ATOM     20  C   UNL     1      39.320  -4.664   7.276  0.00  0.00    +0.000 C 
ATOM     21  N   UNL     1      39.267  -3.507   6.538  0.00  0.00    +0.000 N 
ATOM     22  O   UNL     1      39.405  -5.762   6.724  0.00  0.00    +0.000 OA
ATOM     23  H   UNL     1      39.202  -2.613   7.012  0.00  0.00    +0.000 HD
ATOM     24  H   UNL     1      39.302  -3.555   5.529  0.00  0.00    +0.000 HD
ENDBRANCH  17  20
ENDBRANCH   3  14
TORSDOF 3
ENDMDL
