MODEL 1
REMARK VINA RESULT:    -7.041      0.000      0.000
REMARK INTER + INTRA:         -11.641
REMARK INTER:                  -9.922
REMARK INTRA:                  -1.719
REMARK UNBOUND:                -1.719
REMARK  Name = 
REMARK  8 active torsions:
REMARK  status: ('A' for Active; 'I' for Inactive)
REMARK    1  A    between atoms: C_1  and  C_2
REMARK    2  A    between atoms: C_2  and  N_3
REMARK    3  A    between atoms: C_2  and  C_25
REMARK    4  A    between atoms: N_3  and  C_4
REMARK    5  A    between atoms: C_4  and  C_5
REMARK    6  A    between atoms: C_8  and  C_9
REMARK    7  A    between atoms: C_9  and  N_10
REMARK    8  A    between atoms: C_11  and  C_13
REMARK                            x       y       z     vdW  Elec       q    Type
REMARK                         _______ _______ _______ _____ _____    ______ ____
ROOT
ATOM      1  C   UNL     1      48.666   8.081  16.239  0.00  0.00    +0.000 A 
ATOM      2  C   UNL     1      48.756   6.847  15.579  0.00  0.00    +0.000 A 
ATOM      3  C   UNL     1      48.429   6.735  14.224  0.00  0.00    +0.000 A 
ATOM      4  C   UNL     1      48.014   7.860  13.499  0.00  0.00    +0.000 A 
ATOM      5  C   UNL     1      47.920   9.093  14.158  0.00  0.00    +0.000 A 
ATOM      6  C   UNL     1      48.248   9.204  15.512  0.00  0.00    +0.000 A 
ENDROOT
BRANCH   1   7
ATOM      7  C   UNL     1      48.895   8.180  17.731  0.00  0.00    +0.000 C 
BRANCH   7   8
ATOM      8  N   UNL     1      47.821   7.568  18.516  0.00  0.00    +0.000 NA
ATOM      9  H   UNL     1      47.214   7.052  17.876  0.00  0.00    +0.000 HD
BRANCH   8  11
ATOM     10  C   UNL     1      47.283   6.252  20.587  0.00  0.00    +0.000 C 
ATOM     11  C   UNL     1      48.330   6.625  19.526  0.00  0.00    +0.000 C 
BRANCH  11  12
ATOM     12  C   UNL     1      48.850   5.354  18.860  0.00  0.00    +0.000 A 
ATOM     13  C   UNL     1      47.949   4.437  18.291  0.00  0.00    +0.000 A 
ATOM     14  C   UNL     1      48.414   3.294  17.635  0.00  0.00    +0.000 A 
ATOM     15  C   UNL     1      49.783   3.056  17.538  0.00  0.00    +0.000 A 
ATOM     16 CL   UNL     1      50.352   1.657  16.714  0.00  0.00    +0.000 Cl
ATOM     17  C   UNL     1      50.691   3.947  18.103  0.00  0.00    +0.000 A 
ATOM     18  C   UNL     1      50.227   5.088  18.763  0.00  0.00    +0.000 A 
ENDBRANCH  11  12
ENDBRANCH   8  11
ENDBRANCH   7   8
ENDBRANCH   1   7
BRANCH   4  19
ATOM     19  C   UNL     1      47.610   7.745  12.054  0.00  0.00    +0.000 C 
BRANCH  19  20
ATOM     20  N   UNL     1      46.922   6.503  11.803  0.00  0.00    +0.000 N 
ATOM     21  C   UNL     1      45.553   6.446  11.784  0.00  0.00    +0.000 C 
ATOM     22  O   UNL     1      44.859   7.449  11.931  0.00  0.00    +0.000 OA
ATOM     23  H   UNL     1      47.459   5.647  11.898  0.00  0.00    +0.000 HD
BRANCH  21  24
ATOM     24  C   UNL     1      44.950   5.133  11.519  0.00  0.00    +0.000 A 
ATOM     25  C   UNL     1      44.244   4.489  12.527  0.00  0.00    +0.000 A 
ATOM     26  S   UNL     1      43.579   2.994  12.049  0.00  0.00    +0.000 S 
ATOM     27  C   UNL     1      44.249   3.132  10.491  0.00  0.00    +0.000 A 
ATOM     28  N   UNL     1      44.076   2.150   9.568  0.00  0.00    +0.000 NA
ATOM     29  C   UNL     1      44.661   2.371   8.438  0.00  0.00    +0.000 A 
ATOM     30  N   UNL     1      45.399   3.488   8.147  0.00  0.00    +0.000 N 
ATOM     31  C   UNL     1      45.576   4.523   9.037  0.00  0.00    +0.000 A 
ATOM     32  O   UNL     1      46.200   5.528   8.728  0.00  0.00    +0.000 OA
ATOM     33  C   UNL     1      44.952   4.314  10.332  0.00  0.00    +0.000 A 
ATOM     34  H   UNL     1      45.819   3.607   7.237  0.00  0.00    +0.000 HD
ENDBRANCH  21  24
ENDBRANCH  19  20
ENDBRANCH   4  19
TORSDOF 7
ENDMDL
MODEL 2
REMARK VINA RESULT:    -6.766      3.846      5.588
REMARK INTER + INTRA:         -11.254
REMARK INTER:                  -9.908
REMARK INTRA:                  -1.346
REMARK UNBOUND:                -1.719
REMARK  Name = 
REMARK  8 active torsions:
REMARK  status: ('A' for Active; 'I' for Inactive)
REMARK    1  A    between atoms: C_1  and  C_2
REMARK    2  A    between atoms: C_2  and  N_3
REMARK    3  A    between atoms: C_2  and  C_25
REMARK    4  A    between atoms: N_3  and  C_4
REMARK    5  A    between atoms: C_4  and  C_5
REMARK    6  A    between atoms: C_8  and  C_9
REMARK    7  A    between atoms: C_9  and  N_10
REMARK    8  A    between atoms: C_11  and  C_13
REMARK                            x       y       z     vdW  Elec       q    Type
REMARK                         _______ _______ _______ _____ _____    ______ ____
ROOT
ATOM      1  C   UNL     1      51.227   4.250  18.048  0.00  0.00    +0.000 A 
ATOM      2  C   UNL     1      50.884   2.976  17.575  0.00  0.00    +0.000 A 
ATOM      3  C   UNL     1      49.581   2.699  17.147  0.00  0.00    +0.000 A 
ATOM      4  C   UNL     1      48.598   3.696  17.176  0.00  0.00    +0.000 A 
ATOM      5  C   UNL     1      48.939   4.969  17.651  0.00  0.00    +0.000 A 
ATOM      6  C   UNL     1      50.241   5.245  18.078  0.00  0.00    +0.000 A 
ENDROOT
BRANCH   1   7
ATOM      7  C   UNL     1      52.597   4.516  18.631  0.00  0.00    +0.000 C 
BRANCH   7   8
ATOM      8  N   UNL     1      53.686   4.103  17.743  0.00  0.00    +0.000 NA
ATOM      9  H   UNL     1      54.192   4.941  17.451  0.00  0.00    +0.000 HD
BRANCH   8  11
ATOM     10  C   UNL     1      54.334   2.983  19.896  0.00  0.00    +0.000 C 
ATOM     11  C   UNL     1      54.641   3.199  18.407  0.00  0.00    +0.000 C 
BRANCH  11  12
ATOM     12  C   UNL     1      54.682   1.848  17.698  0.00  0.00    +0.000 A 
ATOM     13  C   UNL     1      55.465   1.681  16.543  0.00  0.00    +0.000 A 
ATOM     14  C   UNL     1      55.550   0.437  15.912  0.00  0.00    +0.000 A 
ATOM     15  C   UNL     1      54.857  -0.654  16.430  0.00  0.00    +0.000 A 
ATOM     16 CL   UNL     1      54.979  -2.189  15.661  0.00  0.00    +0.000 Cl
ATOM     17  C   UNL     1      54.068  -0.508  17.569  0.00  0.00    +0.000 A 
ATOM     18  C   UNL     1      53.980   0.737  18.197  0.00  0.00    +0.000 A 
ENDBRANCH  11  12
ENDBRANCH   8  11
ENDBRANCH   7   8
ENDBRANCH   1   7
BRANCH   4  19
ATOM     19  C   UNL     1      47.180   3.401  16.766  0.00  0.00    +0.000 C 
BRANCH  19  20
ATOM     20  N   UNL     1      46.698   4.376  15.820  0.00  0.00    +0.000 N 
ATOM     21  C   UNL     1      46.803   4.161  14.471  0.00  0.00    +0.000 C 
ATOM     22  O   UNL     1      47.264   3.118  14.012  0.00  0.00    +0.000 OA
ATOM     23  H   UNL     1      46.522   5.314  16.167  0.00  0.00    +0.000 HD
BRANCH  21  24
ATOM     24  C   UNL     1      46.281   5.215  13.591  0.00  0.00    +0.000 A 
ATOM     25  C   UNL     1      47.053   6.343  13.344  0.00  0.00    +0.000 A 
ATOM     26  S   UNL     1      46.319   7.453  12.277  0.00  0.00    +0.000 S 
ATOM     27  C   UNL     1      44.925   6.487  12.143  0.00  0.00    +0.000 A 
ATOM     28  N   UNL     1      43.872   6.885  11.381  0.00  0.00    +0.000 NA
ATOM     29  C   UNL     1      42.870   6.070  11.391  0.00  0.00    +0.000 A 
ATOM     30  N   UNL     1      42.829   4.892  12.089  0.00  0.00    +0.000 N 
ATOM     31  C   UNL     1      43.881   4.432  12.848  0.00  0.00    +0.000 A 
ATOM     32  O   UNL     1      43.830   3.352  13.419  0.00  0.00    +0.000 OA
ATOM     33  C   UNL     1      45.028   5.322  12.885  0.00  0.00    +0.000 A 
ATOM     34  H   UNL     1      42.019   4.291  12.041  0.00  0.00    +0.000 HD
ENDBRANCH  21  24
ENDBRANCH  19  20
ENDBRANCH   4  19
TORSDOF 7
ENDMDL
MODEL 3
REMARK VINA RESULT:    -6.570      2.009      2.856
REMARK INTER + INTRA:         -10.978
REMARK INTER:                  -9.254
REMARK INTRA:                  -1.724
REMARK UNBOUND:                -1.719
REMARK  Name = 
REMARK  8 active torsions:
REMARK  status: ('A' for Active; 'I' for Inactive)
REMARK    1  A    between atoms: C_1  and  C_2
REMARK    2  A    between atoms: C_2  and  N_3
REMARK    3  A    between atoms: C_2  and  C_25
REMARK    4  A    between atoms: N_3  and  C_4
REMARK    5  A    between atoms: C_4  and  C_5
REMARK    6  A    between atoms: C_8  and  C_9
REMARK    7  A    between atoms: C_9  and  N_10
REMARK    8  A    between atoms: C_11  and  C_13
REMARK                            x       y       z     vdW  Elec       q    Type
REMARK                         _______ _______ _______ _____ _____    ______ ____
ROOT
ATOM      1  C   UNL     1      50.385   8.736  13.167  0.00  0.00    +0.000 A 
ATOM      2  C   UNL     1      49.982   7.692  12.322  0.00  0.00    +0.000 A 
ATOM      3  C   UNL     1      48.649   7.578  11.913  0.00  0.00    +0.000 A 
ATOM      4  C   UNL     1      47.694   8.511  12.335  0.00  0.00    +0.000 A 
ATOM      5  C   UNL     1      48.095   9.554  13.182  0.00  0.00    +0.000 A 
ATOM      6  C   UNL     1      49.427   9.668  13.589  0.00  0.00    +0.000 A 
ENDROOT
BRANCH   1   7
ATOM      7  C   UNL     1      51.794   8.791  13.713  0.00  0.00    +0.000 C 
BRANCH   7   8
ATOM      8  N   UNL     1      52.201   7.547  14.371  0.00  0.00    +0.000 NA
ATOM      9  H   UNL     1      53.193   7.398  14.182  0.00  0.00    +0.000 HD
BRANCH   8  11
ATOM     10  C   UNL     1      51.649   8.994  16.348  0.00  0.00    +0.000 C 
ATOM     11  C   UNL     1      52.013   7.594  15.831  0.00  0.00    +0.000 C 
BRANCH  11  12
ATOM     12  C   UNL     1      50.941   6.600  16.267  0.00  0.00    +0.000 A 
ATOM     13  C   UNL     1      51.285   5.498  17.068  0.00  0.00    +0.000 A 
ATOM     14  C   UNL     1      50.306   4.606  17.516  0.00  0.00    +0.000 A 
ATOM     15  C   UNL     1      48.972   4.808  17.169  0.00  0.00    +0.000 A 
ATOM     16 CL   UNL     1      47.767   3.719  17.737  0.00  0.00    +0.000 Cl
ATOM     17  C   UNL     1      48.611   5.889  16.369  0.00  0.00    +0.000 A 
ATOM     18  C   UNL     1      49.590   6.778  15.918  0.00  0.00    +0.000 A 
ENDBRANCH  11  12
ENDBRANCH   8  11
ENDBRANCH   7   8
ENDBRANCH   1   7
BRANCH   4  19
ATOM     19  C   UNL     1      46.248   8.372  11.945  0.00  0.00    +0.000 C 
BRANCH  19  20
ATOM     20  N   UNL     1      45.901   6.990  11.720  0.00  0.00    +0.000 N 
ATOM     21  C   UNL     1      44.614   6.625  11.422  0.00  0.00    +0.000 C 
ATOM     22  O   UNL     1      43.718   7.456  11.287  0.00  0.00    +0.000 OA
ATOM     23  H   UNL     1      46.562   6.288  12.037  0.00  0.00    +0.000 HD
BRANCH  21  24
ATOM     24  C   UNL     1      44.365   5.193  11.210  0.00  0.00    +0.000 A 
ATOM     25  C   UNL     1      43.587   4.493  12.122  0.00  0.00    +0.000 A 
ATOM     26  S   UNL     1      43.366   2.852  11.714  0.00  0.00    +0.000 S 
ATOM     27  C   UNL     1      44.341   3.009  10.328  0.00  0.00    +0.000 A 
ATOM     28  N   UNL     1      44.588   1.940   9.526  0.00  0.00    +0.000 NA
ATOM     29  C   UNL     1      45.365   2.193   8.526  0.00  0.00    +0.000 A 
ATOM     30  N   UNL     1      45.912   3.420   8.253  0.00  0.00    +0.000 N 
ATOM     31  C   UNL     1      45.665   4.537   9.017  0.00  0.00    +0.000 A 
ATOM     32  O   UNL     1      46.129   5.628   8.718  0.00  0.00    +0.000 OA
ATOM     33  C   UNL     1      44.810   4.301  10.167  0.00  0.00    +0.000 A 
ATOM     34  H   UNL     1      46.500   3.555   7.443  0.00  0.00    +0.000 HD
ENDBRANCH  21  24
ENDBRANCH  19  20
ENDBRANCH   4  19
TORSDOF 7
ENDMDL
MODEL 4
REMARK VINA RESULT:    -6.441      3.612      5.606
REMARK INTER + INTRA:         -10.795
REMARK INTER:                  -9.153
REMARK INTRA:                  -1.642
REMARK UNBOUND:                -1.719
REMARK  Name = 
REMARK  8 active torsions:
REMARK  status: ('A' for Active; 'I' for Inactive)
REMARK    1  A    between atoms: C_1  and  C_2
REMARK    2  A    between atoms: C_2  and  N_3
REMARK    3  A    between atoms: C_2  and  C_25
REMARK    4  A    between atoms: N_3  and  C_4
REMARK    5  A    between atoms: C_4  and  C_5
REMARK    6  A    between atoms: C_8  and  C_9
REMARK    7  A    between atoms: C_9  and  N_10
REMARK    8  A    between atoms: C_11  and  C_13
REMARK                            x       y       z     vdW  Elec       q    Type
REMARK                         _______ _______ _______ _____ _____    ______ ____
ROOT
ATOM      1  C   UNL     1      51.353   3.782  18.428  0.00  0.00    +0.000 A 
ATOM      2  C   UNL     1      51.030   2.769  17.515  0.00  0.00    +0.000 A 
ATOM      3  C   UNL     1      49.722   2.625  17.041  0.00  0.00    +0.000 A 
ATOM      4  C   UNL     1      48.712   3.498  17.466  0.00  0.00    +0.000 A 
ATOM      5  C   UNL     1      49.034   4.509  18.381  0.00  0.00    +0.000 A 
ATOM      6  C   UNL     1      50.341   4.653  18.853  0.00  0.00    +0.000 A 
ENDROOT
BRANCH   1   7
ATOM      7  C   UNL     1      52.734   3.862  19.040  0.00  0.00    +0.000 C 
BRANCH   7   8
ATOM      8  N   UNL     1      53.325   5.198  18.946  0.00  0.00    +0.000 NA
ATOM      9  H   UNL     1      53.788   5.403  19.833  0.00  0.00    +0.000 HD
BRANCH   8  11
ATOM     10  C   UNL     1      54.721   3.931  17.286  0.00  0.00    +0.000 C 
ATOM     11  C   UNL     1      54.328   5.296  17.871  0.00  0.00    +0.000 C 
BRANCH  11  12
ATOM     12  C   UNL     1      53.827   6.202  16.751  0.00  0.00    +0.000 A 
ATOM     13  C   UNL     1      54.659   6.498  15.657  0.00  0.00    +0.000 A 
ATOM     14  C   UNL     1      54.196   7.286  14.600  0.00  0.00    +0.000 A 
ATOM     15  C   UNL     1      52.896   7.784  14.622  0.00  0.00    +0.000 A 
ATOM     16 CL   UNL     1      52.324   8.739  13.310  0.00  0.00    +0.000 Cl
ATOM     17  C   UNL     1      52.058   7.511  15.700  0.00  0.00    +0.000 A 
ATOM     18  C   UNL     1      52.522   6.726  16.759  0.00  0.00    +0.000 A 
ENDBRANCH  11  12
ENDBRANCH   8  11
ENDBRANCH   7   8
ENDBRANCH   1   7
BRANCH   4  19
ATOM     19  C   UNL     1      47.291   3.324  17.005  0.00  0.00    +0.000 C 
BRANCH  19  20
ATOM     20  N   UNL     1      46.925   4.343  16.052  0.00  0.00    +0.000 N 
ATOM     21  C   UNL     1      47.019   4.116  14.705  0.00  0.00    +0.000 C 
ATOM     22  O   UNL     1      47.371   3.029  14.252  0.00  0.00    +0.000 OA
ATOM     23  H   UNL     1      46.846   5.295  16.397  0.00  0.00    +0.000 HD
BRANCH  21  24
ATOM     24  C   UNL     1      46.621   5.218  13.819  0.00  0.00    +0.000 A 
ATOM     25  C   UNL     1      47.448   6.326  13.693  0.00  0.00    +0.000 A 
ATOM     26  S   UNL     1      46.861   7.498  12.603  0.00  0.00    +0.000 S 
ATOM     27  C   UNL     1      45.457   6.586  12.294  0.00  0.00    +0.000 A 
ATOM     28  N   UNL     1      44.499   7.047  11.448  0.00  0.00    +0.000 NA
ATOM     29  C   UNL     1      43.476   6.268  11.327  0.00  0.00    +0.000 A 
ATOM     30  N   UNL     1      43.328   5.069  11.972  0.00  0.00    +0.000 N 
ATOM     31  C   UNL     1      44.284   4.546  12.812  0.00  0.00    +0.000 A 
ATOM     32  O   UNL     1      44.142   3.449  13.334  0.00  0.00    +0.000 OA
ATOM     33  C   UNL     1      45.449   5.394  12.997  0.00  0.00    +0.000 A 
ATOM     34  H   UNL     1      42.508   4.499  11.821  0.00  0.00    +0.000 HD
ENDBRANCH  21  24
ENDBRANCH  19  20
ENDBRANCH   4  19
TORSDOF 7
ENDMDL
MODEL 5
REMARK VINA RESULT:    -6.305      3.116      4.799
REMARK INTER + INTRA:         -10.604
REMARK INTER:                  -8.595
REMARK INTRA:                  -2.009
REMARK UNBOUND:                -1.719
REMARK  Name = 
REMARK  8 active torsions:
REMARK  status: ('A' for Active; 'I' for Inactive)
REMARK    1  A    between atoms: C_1  and  C_2
REMARK    2  A    between atoms: C_2  and  N_3
REMARK    3  A    between atoms: C_2  and  C_25
REMARK    4  A    between atoms: N_3  and  C_4
REMARK    5  A    between atoms: C_4  and  C_5
REMARK    6  A    between atoms: C_8  and  C_9
REMARK    7  A    between atoms: C_9  and  N_10
REMARK    8  A    between atoms: C_11  and  C_13
REMARK                            x       y       z     vdW  Elec       q    Type
REMARK                         _______ _______ _______ _____ _____    ______ ____
ROOT
ATOM      1  C   UNL     1      49.523   6.085  19.517  0.00  0.00    +0.000 A 
ATOM      2  C   UNL     1      50.199   5.336  18.542  0.00  0.00    +0.000 A 
ATOM      3  C   UNL     1      49.489   4.606  17.583  0.00  0.00    +0.000 A 
ATOM      4  C   UNL     1      48.088   4.617  17.574  0.00  0.00    +0.000 A 
ATOM      5  C   UNL     1      47.413   5.363  18.550  0.00  0.00    +0.000 A 
ATOM      6  C   UNL     1      48.122   6.093  19.507  0.00  0.00    +0.000 A 
ENDROOT
BRANCH   1   7
ATOM      7  C   UNL     1      50.282   6.770  20.631  0.00  0.00    +0.000 C 
BRANCH   7   8
ATOM      8  N   UNL     1      49.938   8.187  20.770  0.00  0.00    +0.000 NA
ATOM      9  H   UNL     1      50.159   8.474  21.725  0.00  0.00    +0.000 HD
BRANCH   8  11
ATOM     10  C   UNL     1      52.160   8.601  19.673  0.00  0.00    +0.000 C 
ATOM     11  C   UNL     1      50.699   9.044  19.845  0.00  0.00    +0.000 C 
BRANCH  11  12
ATOM     12  C   UNL     1      50.022   9.095  18.479  0.00  0.00    +0.000 A 
ATOM     13  C   UNL     1      48.685   9.515  18.370  0.00  0.00    +0.000 A 
ATOM     14  C   UNL     1      48.067   9.613  17.121  0.00  0.00    +0.000 A 
ATOM     15  C   UNL     1      48.779   9.296  15.967  0.00  0.00    +0.000 A 
ATOM     16 CL   UNL     1      48.020   9.436  14.428  0.00  0.00    +0.000 Cl
ATOM     17  C   UNL     1      50.101   8.869  16.053  0.00  0.00    +0.000 A 
ATOM     18  C   UNL     1      50.718   8.767  17.303  0.00  0.00    +0.000 A 
ENDBRANCH  11  12
ENDBRANCH   8  11
ENDBRANCH   7   8
ENDBRANCH   1   7
BRANCH   4  19
ATOM     19  C   UNL     1      47.312   3.797  16.581  0.00  0.00    +0.000 C 
BRANCH  19  20
ATOM     20  N   UNL     1      46.686   4.636  15.589  0.00  0.00    +0.000 N 
ATOM     21  C   UNL     1      46.819   4.368  14.253  0.00  0.00    +0.000 C 
ATOM     22  O   UNL     1      47.431   3.383  13.845  0.00  0.00    +0.000 OA
ATOM     23  H   UNL     1      46.372   5.554  15.889  0.00  0.00    +0.000 HD
BRANCH  21  24
ATOM     24  C   UNL     1      46.142   5.283  13.324  0.00  0.00    +0.000 A 
ATOM     25  C   UNL     1      46.807   6.416  12.875  0.00  0.00    +0.000 A 
ATOM     26  S   UNL     1      45.899   7.353  11.778  0.00  0.00    +0.000 S 
ATOM     27  C   UNL     1      44.566   6.302  11.900  0.00  0.00    +0.000 A 
ATOM     28  N   UNL     1      43.418   6.550  11.216  0.00  0.00    +0.000 NA
ATOM     29  C   UNL     1      42.478   5.688  11.421  0.00  0.00    +0.000 A 
ATOM     30  N   UNL     1      42.586   4.598  12.244  0.00  0.00    +0.000 N 
ATOM     31  C   UNL     1      43.738   4.288  12.931  0.00  0.00    +0.000 A 
ATOM     32  O   UNL     1      43.817   3.279  13.619  0.00  0.00    +0.000 OA
ATOM     33  C   UNL     1      44.820   5.239  12.749  0.00  0.00    +0.000 A 
ATOM     34  H   UNL     1      41.818   3.952  12.349  0.00  0.00    +0.000 HD
ENDBRANCH  21  24
ENDBRANCH  19  20
ENDBRANCH   4  19
TORSDOF 7
ENDMDL
MODEL 6
REMARK VINA RESULT:    -6.146      1.757      2.531
REMARK INTER + INTRA:         -10.380
REMARK INTER:                  -9.282
REMARK INTRA:                  -1.098
REMARK UNBOUND:                -1.719
REMARK  Name = 
REMARK  8 active torsions:
REMARK  status: ('A' for Active; 'I' for Inactive)
REMARK    1  A    between atoms: C_1  and  C_2
REMARK    2  A    between atoms: C_2  and  N_3
REMARK    3  A    between atoms: C_2  and  C_25
REMARK    4  A    between atoms: N_3  and  C_4
REMARK    5  A    between atoms: C_4  and  C_5
REMARK    6  A    between atoms: C_8  and  C_9
REMARK    7  A    between atoms: C_9  and  N_10
REMARK    8  A    between atoms: C_11  and  C_13
REMARK                            x       y       z     vdW  Elec       q    Type
REMARK                         _______ _______ _______ _____ _____    ______ ____
ROOT
ATOM      1  C   UNL     1      48.049   7.650  14.267  0.00  0.00    +0.000 A 
ATOM      2  C   UNL     1      48.081   6.429  13.580  0.00  0.00    +0.000 A 
ATOM      3  C   UNL     1      47.166   6.161  12.556  0.00  0.00    +0.000 A 
ATOM      4  C   UNL     1      46.206   7.114  12.195  0.00  0.00    +0.000 A 
ATOM      5  C   UNL     1      46.171   8.334  12.883  0.00  0.00    +0.000 A 
ATOM      6  C   UNL     1      47.087   8.602  13.905  0.00  0.00    +0.000 A 
ENDROOT
BRANCH   1   7
ATOM      7  C   UNL     1      48.951   7.893  15.457  0.00  0.00    +0.000 C 
BRANCH   7   8
ATOM      8  N   UNL     1      48.213   8.244  16.672  0.00  0.00    +0.000 NA
ATOM      9  H   UNL     1      47.267   7.869  16.588  0.00  0.00    +0.000 HD
BRANCH   8  11
ATOM     10  C   UNL     1      47.924   7.787  19.125  0.00  0.00    +0.000 C 
ATOM     11  C   UNL     1      48.826   7.677  17.886  0.00  0.00    +0.000 C 
BRANCH  11  12
ATOM     12  C   UNL     1      49.204   6.216  17.664  0.00  0.00    +0.000 A 
ATOM     13  C   UNL     1      50.555   5.830  17.660  0.00  0.00    +0.000 A 
ATOM     14  C   UNL     1      50.914   4.487  17.507  0.00  0.00    +0.000 A 
ATOM     15  C   UNL     1      49.926   3.517  17.359  0.00  0.00    +0.000 A 
ATOM     16 CL   UNL     1      50.371   1.863  17.189  0.00  0.00    +0.000 Cl
ATOM     17  C   UNL     1      48.582   3.879  17.351  0.00  0.00    +0.000 A 
ATOM     18  C   UNL     1      48.223   5.221  17.500  0.00  0.00    +0.000 A 
ENDBRANCH  11  12
ENDBRANCH   8  11
ENDBRANCH   7   8
ENDBRANCH   1   7
BRANCH   4  19
ATOM     19  C   UNL     1      45.182   6.821  11.131  0.00  0.00    +0.000 C 
BRANCH  19  20
ATOM     20  N   UNL     1      45.478   5.583  10.453  0.00  0.00    +0.000 N 
ATOM     21  C   UNL     1      44.476   4.730  10.072  0.00  0.00    +0.000 C 
ATOM     22  O   UNL     1      43.290   5.002  10.247  0.00  0.00    +0.000 OA
ATOM     23  H   UNL     1      46.435   5.246  10.497  0.00  0.00    +0.000 HD
BRANCH  21  24
ATOM     24  C   UNL     1      44.882   3.496   9.387  0.00  0.00    +0.000 A 
ATOM     25  C   UNL     1      44.251   2.300   9.703  0.00  0.00    +0.000 A 
ATOM     26  S   UNL     1      44.814   0.970   8.797  0.00  0.00    +0.000 S 
ATOM     27  C   UNL     1      45.952   1.937   7.983  0.00  0.00    +0.000 A 
ATOM     28  N   UNL     1      46.797   1.396   7.065  0.00  0.00    +0.000 NA
ATOM     29  C   UNL     1      47.628   2.237   6.544  0.00  0.00    +0.000 A 
ATOM     30  N   UNL     1      47.685   3.570   6.855  0.00  0.00    +0.000 N 
ATOM     31  C   UNL     1      46.832   4.169   7.753  0.00  0.00    +0.000 A 
ATOM     32  O   UNL     1      46.878   5.371   7.970  0.00  0.00    +0.000 OA
ATOM     33  C   UNL     1      45.889   3.261   8.381  0.00  0.00    +0.000 A 
ATOM     34  H   UNL     1      48.350   4.178   6.399  0.00  0.00    +0.000 HD
ENDBRANCH  21  24
ENDBRANCH  19  20
ENDBRANCH   4  19
TORSDOF 7
ENDMDL
MODEL 7
REMARK VINA RESULT:    -6.119      4.851      6.673
REMARK INTER + INTRA:         -10.342
REMARK INTER:                  -9.282
REMARK INTRA:                  -1.060
REMARK UNBOUND:                -1.719
REMARK  Name = 
REMARK  8 active torsions:
REMARK  status: ('A' for Active; 'I' for Inactive)
REMARK    1  A    between atoms: C_1  and  C_2
REMARK    2  A    between atoms: C_2  and  N_3
REMARK    3  A    between atoms: C_2  and  C_25
REMARK    4  A    between atoms: N_3  and  C_4
REMARK    5  A    between atoms: C_4  and  C_5
REMARK    6  A    between atoms: C_8  and  C_9
REMARK    7  A    between atoms: C_9  and  N_10
REMARK    8  A    between atoms: C_11  and  C_13
REMARK                            x       y       z     vdW  Elec       q    Type
REMARK                         _______ _______ _______ _____ _____    ______ ____
ROOT
ATOM      1  C   UNL     1      50.706   8.687  11.408  0.00  0.00    +0.000 A 
ATOM      2  C   UNL     1      50.163   7.425  11.691  0.00  0.00    +0.000 A 
ATOM      3  C   UNL     1      48.841   7.298  12.129  0.00  0.00    +0.000 A 
ATOM      4  C   UNL     1      48.032   8.431  12.283  0.00  0.00    +0.000 A 
ATOM      5  C   UNL     1      48.575   9.693  12.004  0.00  0.00    +0.000 A 
ATOM      6  C   UNL     1      49.896   9.819  11.566  0.00  0.00    +0.000 A 
ENDROOT
BRANCH   1   7
ATOM      7  C   UNL     1      52.170   8.839  11.060  0.00  0.00    +0.000 C 
BRANCH   7   8
ATOM      8  N   UNL     1      52.903   7.572  11.103  0.00  0.00    +0.000 NA
ATOM      9  H   UNL     1      52.313   6.850  10.687  0.00  0.00    +0.000 HD
BRANCH   8  11
ATOM     10  C   UNL     1      55.410   7.500  11.236  0.00  0.00    +0.000 C 
ATOM     11  C   UNL     1      54.165   7.626  10.345  0.00  0.00    +0.000 C 
BRANCH  11  12
ATOM     12  C   UNL     1      54.196   6.538   9.276  0.00  0.00    +0.000 A 
ATOM     13  C   UNL     1      53.134   6.416   8.364  0.00  0.00    +0.000 A 
ATOM     14  C   UNL     1      53.171   5.456   7.348  0.00  0.00    +0.000 A 
ATOM     15  C   UNL     1      54.272   4.611   7.232  0.00  0.00    +0.000 A 
ATOM     16 CL   UNL     1      54.322   3.442   5.969  0.00  0.00    +0.000 Cl
ATOM     17  C   UNL     1      55.330   4.709   8.130  0.00  0.00    +0.000 A 
ATOM     18  C   UNL     1      55.291   5.666   9.148  0.00  0.00    +0.000 A 
ENDBRANCH  11  12
ENDBRANCH   8  11
ENDBRANCH   7   8
ENDBRANCH   1   7
BRANCH   4  19
ATOM     19  C   UNL     1      46.624   8.315  12.802  0.00  0.00    +0.000 C 
BRANCH  19  20
ATOM     20  N   UNL     1      46.098   6.990  12.583  0.00  0.00    +0.000 N 
ATOM     21  C   UNL     1      45.046   6.781  11.731  0.00  0.00    +0.000 C 
ATOM     22  O   UNL     1      44.540   7.697  11.085  0.00  0.00    +0.000 OA
ATOM     23  H   UNL     1      46.349   6.273  13.257  0.00  0.00    +0.000 HD
BRANCH  21  24
ATOM     24  C   UNL     1      44.585   5.395  11.577  0.00  0.00    +0.000 A 
ATOM     25  C   UNL     1      43.866   4.796  12.603  0.00  0.00    +0.000 A 
ATOM     26  S   UNL     1      43.377   3.200  12.254  0.00  0.00    +0.000 S 
ATOM     27  C   UNL     1      44.147   3.237  10.738  0.00  0.00    +0.000 A 
ATOM     28  N   UNL     1      44.133   2.150   9.922  0.00  0.00    +0.000 NA
ATOM     29  C   UNL     1      44.779   2.306   8.815  0.00  0.00    +0.000 A 
ATOM     30  N   UNL     1      45.434   3.453   8.448  0.00  0.00    +0.000 N 
ATOM     31  C   UNL     1      45.449   4.589   9.225  0.00  0.00    +0.000 A 
ATOM     32  O   UNL     1      46.001   5.612   8.846  0.00  0.00    +0.000 OA
ATOM     33  C   UNL     1      44.751   4.459  10.492  0.00  0.00    +0.000 A 
ATOM     34  H   UNL     1      45.908   3.515   7.559  0.00  0.00    +0.000 HD
ENDBRANCH  21  24
ENDBRANCH  19  20
ENDBRANCH   4  19
TORSDOF 7
ENDMDL
MODEL 8
REMARK VINA RESULT:    -4.931     10.912     13.167
REMARK INTER + INTRA:          -8.668
REMARK INTER:                  -6.740
REMARK INTRA:                  -1.928
REMARK UNBOUND:                -1.719
REMARK  Name = 
REMARK  8 active torsions:
REMARK  status: ('A' for Active; 'I' for Inactive)
REMARK    1  A    between atoms: C_1  and  C_2
REMARK    2  A    between atoms: C_2  and  N_3
REMARK    3  A    between atoms: C_2  and  C_25
REMARK    4  A    between atoms: N_3  and  C_4
REMARK    5  A    between atoms: C_4  and  C_5
REMARK    6  A    between atoms: C_8  and  C_9
REMARK    7  A    between atoms: C_9  and  N_10
REMARK    8  A    between atoms: C_11  and  C_13
REMARK                            x       y       z     vdW  Elec       q    Type
REMARK                         _______ _______ _______ _____ _____    ______ ____
ROOT
ATOM      1  C   UNL     1      37.332  -1.399  10.489  0.00  0.00    +0.000 A 
ATOM      2  C   UNL     1      36.905  -1.868  11.740  0.00  0.00    +0.000 A 
ATOM      3  C   UNL     1      36.672  -0.980  12.795  0.00  0.00    +0.000 A 
ATOM      4  C   UNL     1      36.853   0.398  12.616  0.00  0.00    +0.000 A 
ATOM      5  C   UNL     1      37.282   0.867  11.368  0.00  0.00    +0.000 A 
ATOM      6  C   UNL     1      37.514  -0.021  10.314  0.00  0.00    +0.000 A 
ENDROOT
BRANCH   1   7
ATOM      7  C   UNL     1      37.707  -2.365   9.387  0.00  0.00    +0.000 C 
BRANCH   7   8
ATOM      8  N   UNL     1      39.041  -2.942   9.563  0.00  0.00    +0.000 NA
ATOM      9  H   UNL     1      39.564  -2.344  10.205  0.00  0.00    +0.000 HD
BRANCH   8  11
ATOM     10  C   UNL     1      39.590  -5.367   9.204  0.00  0.00    +0.000 C 
ATOM     11  C   UNL     1      38.996  -4.299  10.135  0.00  0.00    +0.000 C 
BRANCH  11  12
ATOM     12  C   UNL     1      39.720  -4.340  11.478  0.00  0.00    +0.000 A 
ATOM     13  C   UNL     1      39.758  -5.531  12.223  0.00  0.00    +0.000 A 
ATOM     14  C   UNL     1      40.458  -5.596  13.431  0.00  0.00    +0.000 A 
ATOM     15  C   UNL     1      41.130  -4.472  13.905  0.00  0.00    +0.000 A 
ATOM     16 CL   UNL     1      42.007  -4.561  15.384  0.00  0.00    +0.000 Cl
ATOM     17  C   UNL     1      41.098  -3.280  13.188  0.00  0.00    +0.000 A 
ATOM     18  C   UNL     1      40.394  -3.214  11.982  0.00  0.00    +0.000 A 
ENDBRANCH  11  12
ENDBRANCH   8  11
ENDBRANCH   7   8
ENDBRANCH   1   7
BRANCH   4  19
ATOM     19  C   UNL     1      36.656   1.360  13.755  0.00  0.00    +0.000 C 
BRANCH  19  20
ATOM     20  N   UNL     1      37.110   0.792  15.001  0.00  0.00    +0.000 N 
ATOM     21  C   UNL     1      37.550   1.592  16.022  0.00  0.00    +0.000 C 
ATOM     22  O   UNL     1      37.533   2.818  15.941  0.00  0.00    +0.000 OA
ATOM     23  H   UNL     1      37.335  -0.198  15.005  0.00  0.00    +0.000 HD
BRANCH  21  24
ATOM     24  C   UNL     1      37.991   0.916  17.249  0.00  0.00    +0.000 A 
ATOM     25  C   UNL     1      37.661   1.458  18.484  0.00  0.00    +0.000 A 
ATOM     26  S   UNL     1      38.217   0.536  19.806  0.00  0.00    +0.000 S 
ATOM     27  C   UNL     1      38.958  -0.597  18.775  0.00  0.00    +0.000 A 
ATOM     28  N   UNL     1      39.648  -1.653  19.280  0.00  0.00    +0.000 NA
ATOM     29  C   UNL     1      40.182  -2.418  18.387  0.00  0.00    +0.000 A 
ATOM     30  N   UNL     1      40.083  -2.224  17.034  0.00  0.00    +0.000 N 
ATOM     31  C   UNL     1      39.370  -1.188  16.475  0.00  0.00    +0.000 A 
ATOM     32  O   UNL     1      39.261  -1.072  15.262  0.00  0.00    +0.000 OA
ATOM     33  C   UNL     1      38.764  -0.287  17.440  0.00  0.00    +0.000 A 
ATOM     34  H   UNL     1      40.512  -2.869  16.387  0.00  0.00    +0.000 HD
ENDBRANCH  21  24
ENDBRANCH  19  20
ENDBRANCH   4  19
TORSDOF 7
ENDMDL
MODEL 9
REMARK VINA RESULT:    -4.910      3.624      5.824
REMARK INTER + INTRA:          -8.638
REMARK INTER:                  -6.630
REMARK INTRA:                  -2.008
REMARK UNBOUND:                -1.719
REMARK  Name = 
REMARK  8 active torsions:
REMARK  status: ('A' for Active; 'I' for Inactive)
REMARK    1  A    between atoms: C_1  and  C_2
REMARK    2  A    between atoms: C_2  and  N_3
REMARK    3  A    between atoms: C_2  and  C_25
REMARK    4  A    between atoms: N_3  and  C_4
REMARK    5  A    between atoms: C_4  and  C_5
REMARK    6  A    between atoms: C_8  and  C_9
REMARK    7  A    between atoms: C_9  and  N_10
REMARK    8  A    between atoms: C_11  and  C_13
REMARK                            x       y       z     vdW  Elec       q    Type
REMARK                         _______ _______ _______ _____ _____    ______ ____
ROOT
ATOM      1  C   UNL     1      51.271   4.666  19.444  0.00  0.00    +0.000 A 
ATOM      2  C   UNL     1      51.802   3.886  18.406  0.00  0.00    +0.000 A 
ATOM      3  C   UNL     1      50.960   3.184  17.537  0.00  0.00    +0.000 A 
ATOM      4  C   UNL     1      49.568   3.256  17.684  0.00  0.00    +0.000 A 
ATOM      5  C   UNL     1      49.037   4.033  18.723  0.00  0.00    +0.000 A 
ATOM      6  C   UNL     1      49.879   4.735  19.590  0.00  0.00    +0.000 A 
ENDROOT
BRANCH   1   7
ATOM      7  C   UNL     1      52.178   5.321  20.461  0.00  0.00    +0.000 C 
BRANCH   7   8
ATOM      8  N   UNL     1      51.578   6.502  21.086  0.00  0.00    +0.000 NA
ATOM      9  H   UNL     1      51.770   6.462  22.088  0.00  0.00    +0.000 HD
BRANCH   8  11
ATOM     10  C   UNL     1      53.317   7.547  19.606  0.00  0.00    +0.000 C 
ATOM     11  C   UNL     1      52.134   7.761  20.562  0.00  0.00    +0.000 C 
BRANCH  11  12
ATOM     12  C   UNL     1      51.052   8.572  19.855  0.00  0.00    +0.000 A 
ATOM     13  C   UNL     1      50.571   8.162  18.599  0.00  0.00    +0.000 A 
ATOM     14  C   UNL     1      49.546   8.868  17.962  0.00  0.00    +0.000 A 
ATOM     15  C   UNL     1      48.989   9.988  18.575  0.00  0.00    +0.000 A 
ATOM     16 CL   UNL     1      47.715  10.843  17.796  0.00  0.00    +0.000 Cl
ATOM     17  C   UNL     1      49.457  10.416  19.814  0.00  0.00    +0.000 A 
ATOM     18  C   UNL     1      50.485   9.713  20.449  0.00  0.00    +0.000 A 
ENDBRANCH  11  12
ENDBRANCH   8  11
ENDBRANCH   7   8
ENDBRANCH   1   7
BRANCH   4  19
ATOM     19  C   UNL     1      48.651   2.467  16.790  0.00  0.00    +0.000 C 
BRANCH  19  20
ATOM     20  N   UNL     1      48.295   3.222  15.614  0.00  0.00    +0.000 N 
ATOM     21  C   UNL     1      47.114   3.915  15.553  0.00  0.00    +0.000 C 
ATOM     22  O   UNL     1      46.337   3.962  16.504  0.00  0.00    +0.000 OA
ATOM     23  H   UNL     1      48.804   3.021  14.760  0.00  0.00    +0.000 HD
BRANCH  21  24
ATOM     24  C   UNL     1      46.845   4.654  14.312  0.00  0.00    +0.000 A 
ATOM     25  C   UNL     1      45.825   4.229  13.471  0.00  0.00    +0.000 A 
ATOM     26  S   UNL     1      45.619   5.211  12.093  0.00  0.00    +0.000 S 
ATOM     27  C   UNL     1      46.917   6.214  12.548  0.00  0.00    +0.000 A 
ATOM     28  N   UNL     1      47.296   7.260  11.768  0.00  0.00    +0.000 NA
ATOM     29  C   UNL     1      48.312   7.920  12.217  0.00  0.00    +0.000 A 
ATOM     30  N   UNL     1      48.978   7.630  13.379  0.00  0.00    +0.000 N 
ATOM     31  C   UNL     1      48.612   6.602  14.217  0.00  0.00    +0.000 A 
ATOM     32  O   UNL     1      49.198   6.401  15.272  0.00  0.00    +0.000 OA
ATOM     33  C   UNL     1      47.484   5.817  13.747  0.00  0.00    +0.000 A 
ATOM     34  H   UNL     1      49.756   8.197  13.682  0.00  0.00    +0.000 HD
ENDBRANCH  21  24
ENDBRANCH  19  20
ENDBRANCH   4  19
TORSDOF 7
ENDMDL
