MODEL 1
REMARK VINA RESULT:    -8.273      0.000      0.000
REMARK INTER + INTRA:         -13.239
REMARK INTER:                 -12.384
REMARK INTRA:                  -0.856
REMARK UNBOUND:                -0.856
REMARK  Name = 
REMARK  10 active torsions:
REMARK  status: ('A' for Active; 'I' for Inactive)
REMARK    1  A    between atoms: CB_1  and  CA_2
REMARK    2  A    between atoms: CA_2  and  C_3
REMARK    3  A    between atoms: CA_2  and  N_5
REMARK    4  A    between atoms: C_3  and  O_4
REMARK    5  A    between atoms: N_5  and  C_6
REMARK    6  A    between atoms: C_6  and  C_7
REMARK    7  A    between atoms: C_10  and  C_11
REMARK    8  A    between atoms: C_11  and  O_12
REMARK    9  A    between atoms: O_12  and  C_13
REMARK   10  A    between atoms: C_16  and  C_17
REMARK                            x       y       z     vdW  Elec       q    Type
REMARK                         _______ _______ _______ _____ _____    ______ ____
ROOT
ATOM      1  C   UNK A   0      46.922   5.250  13.735  0.00  0.00    +0.000 A 
ATOM      2  C   UNK A   0      45.815   5.941  13.225  0.00  0.00    +0.000 A 
ATOM      3  C   UNK A   0      44.782   5.257  12.585  0.00  0.00    +0.000 A 
ATOM      4  C   UNK A   0      44.830   3.862  12.445  0.00  0.00    +0.000 A 
ATOM      5  C   UNK A   0      45.950   3.172  12.923  0.00  0.00    +0.000 A 
ATOM      6  C   UNK A   0      46.985   3.858  13.565  0.00  0.00    +0.000 A 
ENDROOT
BRANCH   1   7
ATOM      7  C   UNK A   0      48.022   5.994  14.454  0.00  0.00    +0.000 C 
BRANCH   7   8
ATOM      8  N   ALA A   1      47.855   6.058  15.916  0.00  0.00    +0.000 NA
ATOM      9  H   ALA A   1      48.389   6.859  16.254  0.00  0.00    +0.000 HD
BRANCH   8  11
ATOM     10  CB  ALA A   1      49.686   5.003  17.276  0.00  0.00    +0.000 C 
ATOM     11  CA  ALA A   1      48.311   4.841  16.629  0.00  0.00    +0.000 C 
BRANCH  11  12
ATOM     12  C   ALA A   1      47.279   4.483  17.724  0.00  0.00    +0.000 C 
BRANCH  12  13
ATOM     13  O   ALA A   1      46.595   3.274  17.402  0.00  0.00    +0.000 OA
ATOM     14  H   ALA A   1      47.236   2.562  17.591  0.00  0.00    +0.000 HD
ENDBRANCH  12  13
ENDBRANCH  11  12
ENDBRANCH   8  11
ENDBRANCH   7   8
ENDBRANCH   1   7
BRANCH   4  15
ATOM     15  C   UNK A   0      43.693   3.124  11.785  0.00  0.00    +0.000 C 
BRANCH  15  16
ATOM     16  O   UNK A   0      43.473   3.675  10.489  0.00  0.00    +0.000 OA
BRANCH  16  17
ATOM     17  C   UNK A   0      44.438   3.439   9.548  0.00  0.00    +0.000 A 
ATOM     18  C   UNK A   0      45.132   4.409   8.824  0.00  0.00    +0.000 A 
ATOM     19  C   UNK A   0      46.097   4.031   7.882  0.00  0.00    +0.000 A 
ATOM     20  C   UNK A   0      46.382   2.677   7.659  0.00  0.00    +0.000 A 
ATOM     21  C   UNK A   0      45.686   1.717   8.391  0.00  0.00    +0.000 A 
ATOM     22  F   UNK A   0      45.920   0.406   8.219  0.00  0.00    +0.000 F 
ATOM     23  C   UNK A   0      44.722   2.091   9.327  0.00  0.00    +0.000 A 
BRANCH  20  24
ATOM     24  C   UNK A   0      47.416   2.338   6.647  0.00  0.00    +0.000 C 
ATOM     25  N   UNK A   0      47.380   2.985   5.446  0.00  0.00    +0.000 N 
ATOM     26  O   UNK A   0      48.282   1.501   6.876  0.00  0.00    +0.000 OA
ATOM     27  H   UNK A   0      46.683   3.680   5.210  0.00  0.00    +0.000 HD
ATOM     28  H   UNK A   0      48.084   2.750   4.758  0.00  0.00    +0.000 HD
ENDBRANCH  20  24
ENDBRANCH  16  17
ENDBRANCH  15  16
ENDBRANCH   4  15
TORSDOF 9
ENDMDL
MODEL 2
REMARK VINA RESULT:    -8.146      0.847      1.239
REMARK INTER + INTRA:         -13.049
REMARK INTER:                 -12.228
REMARK INTRA:                  -0.821
REMARK UNBOUND:                -0.856
REMARK  Name = 
REMARK  10 active torsions:
REMARK  status: ('A' for Active; 'I' for Inactive)
REMARK    1  A    between atoms: CB_1  and  CA_2
REMARK    2  A    between atoms: CA_2  and  C_3
REMARK    3  A    between atoms: CA_2  and  N_5
REMARK    4  A    between atoms: C_3  and  O_4
REMARK    5  A    between atoms: N_5  and  C_6
REMARK    6  A    between atoms: C_6  and  C_7
REMARK    7  A    between atoms: C_10  and  C_11
REMARK    8  A    between atoms: C_11  and  O_12
REMARK    9  A    between atoms: O_12  and  C_13
REMARK   10  A    between atoms: C_16  and  C_17
REMARK                            x       y       z     vdW  Elec       q    Type
REMARK                         _______ _______ _______ _____ _____    ______ ____
ROOT
ATOM      1  C   UNK A   0      46.597   5.559  13.612  0.00  0.00    +0.000 A 
ATOM      2  C   UNK A   0      45.773   4.428  13.697  0.00  0.00    +0.000 A 
ATOM      3  C   UNK A   0      44.759   4.215  12.765  0.00  0.00    +0.000 A 
ATOM      4  C   UNK A   0      44.547   5.127  11.721  0.00  0.00    +0.000 A 
ATOM      5  C   UNK A   0      45.345   6.275  11.652  0.00  0.00    +0.000 A 
ATOM      6  C   UNK A   0      46.363   6.488  12.587  0.00  0.00    +0.000 A 
ENDROOT
BRANCH   1   7
ATOM      7  C   UNK A   0      47.714   5.768  14.607  0.00  0.00    +0.000 C 
BRANCH   7   8
ATOM      8  N   ALA A   1      48.020   4.585  15.429  0.00  0.00    +0.000 NA
ATOM      9  H   ALA A   1      47.169   4.025  15.495  0.00  0.00    +0.000 HD
BRANCH   8  11
ATOM     10  CB  ALA A   1      48.915   6.365  16.960  0.00  0.00    +0.000 C 
ATOM     11  CA  ALA A   1      48.490   4.906  16.797  0.00  0.00    +0.000 C 
BRANCH  11  12
ATOM     12  C   ALA A   1      47.358   4.597  17.805  0.00  0.00    +0.000 C 
BRANCH  12  13
ATOM     13  O   ALA A   1      46.602   3.462  17.388  0.00  0.00    +0.000 OA
ATOM     14  H   ALA A   1      46.955   3.233  16.507  0.00  0.00    +0.000 HD
ENDBRANCH  12  13
ENDBRANCH  11  12
ENDBRANCH   8  11
ENDBRANCH   7   8
ENDBRANCH   1   7
BRANCH   4  15
ATOM     15  C   UNK A   0      43.472   4.872  10.694  0.00  0.00    +0.000 C 
BRANCH  15  16
ATOM     16  O   UNK A   0      43.612   3.544  10.197  0.00  0.00    +0.000 OA
BRANCH  16  17
ATOM     17  C   UNK A   0      44.596   3.334   9.271  0.00  0.00    +0.000 A 
ATOM     18  C   UNK A   0      45.203   4.314   8.484  0.00  0.00    +0.000 A 
ATOM     19  C   UNK A   0      46.200   3.962   7.565  0.00  0.00    +0.000 A 
ATOM     20  C   UNK A   0      46.604   2.628   7.426  0.00  0.00    +0.000 A 
ATOM     21  C   UNK A   0      45.994   1.659   8.221  0.00  0.00    +0.000 A 
ATOM     22  F   UNK A   0      46.342   0.365   8.130  0.00  0.00    +0.000 F 
ATOM     23  C   UNK A   0      44.998   2.004   9.134  0.00  0.00    +0.000 A 
BRANCH  20  24
ATOM     24  C   UNK A   0      47.666   2.318   6.435  0.00  0.00    +0.000 C 
ATOM     25  N   UNK A   0      47.624   2.948   5.225  0.00  0.00    +0.000 N 
ATOM     26  O   UNK A   0      48.559   1.517   6.687  0.00  0.00    +0.000 OA
ATOM     27  H   UNK A   0      46.904   3.613   4.970  0.00  0.00    +0.000 HD
ATOM     28  H   UNK A   0      48.347   2.733   4.551  0.00  0.00    +0.000 HD
ENDBRANCH  20  24
ENDBRANCH  16  17
ENDBRANCH  15  16
ENDBRANCH   4  15
TORSDOF 9
ENDMDL
MODEL 3
REMARK VINA RESULT:    -7.934      2.196      2.918
REMARK INTER + INTRA:         -12.732
REMARK INTER:                 -11.704
REMARK INTRA:                  -1.028
REMARK UNBOUND:                -0.856
REMARK  Name = 
REMARK  10 active torsions:
REMARK  status: ('A' for Active; 'I' for Inactive)
REMARK    1  A    between atoms: CB_1  and  CA_2
REMARK    2  A    between atoms: CA_2  and  C_3
REMARK    3  A    between atoms: CA_2  and  N_5
REMARK    4  A    between atoms: C_3  and  O_4
REMARK    5  A    between atoms: N_5  and  C_6
REMARK    6  A    between atoms: C_6  and  C_7
REMARK    7  A    between atoms: C_10  and  C_11
REMARK    8  A    between atoms: C_11  and  O_12
REMARK    9  A    between atoms: O_12  and  C_13
REMARK   10  A    between atoms: C_16  and  C_17
REMARK                            x       y       z     vdW  Elec       q    Type
REMARK                         _______ _______ _______ _____ _____    ______ ____
ROOT
ATOM      1  C   UNK A   0      46.691   5.960  13.323  0.00  0.00    +0.000 A 
ATOM      2  C   UNK A   0      46.898   4.574  13.380  0.00  0.00    +0.000 A 
ATOM      3  C   UNK A   0      45.934   3.690  12.899  0.00  0.00    +0.000 A 
ATOM      4  C   UNK A   0      44.739   4.172  12.343  0.00  0.00    +0.000 A 
ATOM      5  C   UNK A   0      44.514   5.553  12.315  0.00  0.00    +0.000 A 
ATOM      6  C   UNK A   0      45.482   6.440  12.797  0.00  0.00    +0.000 A 
ENDROOT
BRANCH   1   7
ATOM      7  C   UNK A   0      47.753   6.912  13.819  0.00  0.00    +0.000 C 
BRANCH   7   8
ATOM      8  N   ALA A   1      49.123   6.555  13.411  0.00  0.00    +0.000 NA
ATOM      9  H   ALA A   1      49.690   6.487  14.257  0.00  0.00    +0.000 HD
BRANCH   8  11
ATOM     10  CB  ALA A   1      48.737   8.417  11.768  0.00  0.00    +0.000 C 
ATOM     11  CA  ALA A   1      49.751   7.531  12.490  0.00  0.00    +0.000 C 
BRANCH  11  12
ATOM     12  C   ALA A   1      50.722   8.429  13.292  0.00  0.00    +0.000 C 
BRANCH  12  13
ATOM     13  O   ALA A   1      51.469   7.659  14.232  0.00  0.00    +0.000 OA
ATOM     14  H   ALA A   1      50.863   7.525  14.987  0.00  0.00    +0.000 HD
ENDBRANCH  12  13
ENDBRANCH  11  12
ENDBRANCH   8  11
ENDBRANCH   7   8
ENDBRANCH   1   7
BRANCH   4  15
ATOM     15  C   UNK A   0      43.716   3.212  11.789  0.00  0.00    +0.000 C 
BRANCH  15  16
ATOM     16  O   UNK A   0      43.417   3.579  10.444  0.00  0.00    +0.000 OA
BRANCH  16  17
ATOM     17  C   UNK A   0      44.395   3.355   9.515  0.00  0.00    +0.000 A 
ATOM     18  C   UNK A   0      45.072   4.334   8.785  0.00  0.00    +0.000 A 
ATOM     19  C   UNK A   0      46.053   3.968   7.855  0.00  0.00    +0.000 A 
ATOM     20  C   UNK A   0      46.373   2.619   7.650  0.00  0.00    +0.000 A 
ATOM     21  C   UNK A   0      45.694   1.651   8.388  0.00  0.00    +0.000 A 
ATOM     22  F   UNK A   0      45.961   0.344   8.232  0.00  0.00    +0.000 F 
ATOM     23  C   UNK A   0      44.713   2.012   9.311  0.00  0.00    +0.000 A 
BRANCH  20  24
ATOM     24  C   UNK A   0      47.423   2.294   6.650  0.00  0.00    +0.000 C 
ATOM     25  N   UNK A   0      47.400   2.948   5.453  0.00  0.00    +0.000 N 
ATOM     26  O   UNK A   0      48.291   1.461   6.886  0.00  0.00    +0.000 OA
ATOM     27  H   UNK A   0      46.700   3.640   5.212  0.00  0.00    +0.000 HD
ATOM     28  H   UNK A   0      48.114   2.722   4.774  0.00  0.00    +0.000 HD
ENDBRANCH  20  24
ENDBRANCH  16  17
ENDBRANCH  15  16
ENDBRANCH   4  15
TORSDOF 9
ENDMDL
MODEL 4
REMARK VINA RESULT:    -7.914      2.422      3.558
REMARK INTER + INTRA:         -12.703
REMARK INTER:                 -11.622
REMARK INTRA:                  -1.081
REMARK UNBOUND:                -0.856
REMARK  Name = 
REMARK  10 active torsions:
REMARK  status: ('A' for Active; 'I' for Inactive)
REMARK    1  A    between atoms: CB_1  and  CA_2
REMARK    2  A    between atoms: CA_2  and  C_3
REMARK    3  A    between atoms: CA_2  and  N_5
REMARK    4  A    between atoms: C_3  and  O_4
REMARK    5  A    between atoms: N_5  and  C_6
REMARK    6  A    between atoms: C_6  and  C_7
REMARK    7  A    between atoms: C_10  and  C_11
REMARK    8  A    between atoms: C_11  and  O_12
REMARK    9  A    between atoms: O_12  and  C_13
REMARK   10  A    between atoms: C_16  and  C_17
REMARK                            x       y       z     vdW  Elec       q    Type
REMARK                         _______ _______ _______ _____ _____    ______ ____
ROOT
ATOM      1  C   UNK A   0      46.415   6.605  13.070  0.00  0.00    +0.000 A 
ATOM      2  C   UNK A   0      46.770   5.277  13.345  0.00  0.00    +0.000 A 
ATOM      3  C   UNK A   0      45.940   4.224  12.962  0.00  0.00    +0.000 A 
ATOM      4  C   UNK A   0      44.735   4.476  12.290  0.00  0.00    +0.000 A 
ATOM      5  C   UNK A   0      44.360   5.802  12.044  0.00  0.00    +0.000 A 
ATOM      6  C   UNK A   0      45.193   6.857  12.428  0.00  0.00    +0.000 A 
ENDROOT
BRANCH   1   7
ATOM      7  C   UNK A   0      47.334   7.738  13.461  0.00  0.00    +0.000 C 
BRANCH   7   8
ATOM      8  N   ALA A   1      46.673   9.052  13.546  0.00  0.00    +0.000 NA
ATOM      9  H   ALA A   1      45.683   8.915  13.334  0.00  0.00    +0.000 HD
BRANCH   8  11
ATOM     10  CB  ALA A   1      48.323   9.515  11.708  0.00  0.00    +0.000 C 
ATOM     11  CA  ALA A   1      47.226  10.066  12.618  0.00  0.00    +0.000 C 
BRANCH  11  12
ATOM     12  C   ALA A   1      46.080  10.625  11.742  0.00  0.00    +0.000 C 
BRANCH  12  13
ATOM     13  O   ALA A   1      44.819  10.457  12.385  0.00  0.00    +0.000 OA
ATOM     14  H   ALA A   1      44.870   9.583  12.817  0.00  0.00    +0.000 HD
ENDBRANCH  12  13
ENDBRANCH  11  12
ENDBRANCH   8  11
ENDBRANCH   7   8
ENDBRANCH   1   7
BRANCH   4  15
ATOM     15  C   UNK A   0      43.859   3.331  11.845  0.00  0.00    +0.000 C 
BRANCH  15  16
ATOM     16  O   UNK A   0      43.472   3.544  10.490  0.00  0.00    +0.000 OA
BRANCH  16  17
ATOM     17  C   UNK A   0      44.429   3.330   9.536  0.00  0.00    +0.000 A 
ATOM     18  C   UNK A   0      45.083   4.315   8.795  0.00  0.00    +0.000 A 
ATOM     19  C   UNK A   0      46.044   3.958   7.841  0.00  0.00    +0.000 A 
ATOM     20  C   UNK A   0      46.366   2.612   7.622  0.00  0.00    +0.000 A 
ATOM     21  C   UNK A   0      45.710   1.638   8.372  0.00  0.00    +0.000 A 
ATOM     22  F   UNK A   0      45.981   0.333   8.205  0.00  0.00    +0.000 F 
ATOM     23  C   UNK A   0      44.749   1.989   9.319  0.00  0.00    +0.000 A 
BRANCH  20  24
ATOM     24  C   UNK A   0      47.395   2.297   6.597  0.00  0.00    +0.000 C 
ATOM     25  N   UNK A   0      47.315   2.925   5.388  0.00  0.00    +0.000 N 
ATOM     26  O   UNK A   0      48.294   1.494   6.822  0.00  0.00    +0.000 OA
ATOM     27  H   UNK A   0      46.588   3.591   5.155  0.00  0.00    +0.000 HD
ATOM     28  H   UNK A   0      48.015   2.706   4.692  0.00  0.00    +0.000 HD
ENDBRANCH  20  24
ENDBRANCH  16  17
ENDBRANCH  15  16
ENDBRANCH   4  15
TORSDOF 9
ENDMDL
MODEL 5
REMARK VINA RESULT:    -7.604      2.429      3.186
REMARK INTER + INTRA:         -12.239
REMARK INTER:                 -11.472
REMARK INTRA:                  -0.766
REMARK UNBOUND:                -0.856
REMARK  Name = 
REMARK  10 active torsions:
REMARK  status: ('A' for Active; 'I' for Inactive)
REMARK    1  A    between atoms: CB_1  and  CA_2
REMARK    2  A    between atoms: CA_2  and  C_3
REMARK    3  A    between atoms: CA_2  and  N_5
REMARK    4  A    between atoms: C_3  and  O_4
REMARK    5  A    between atoms: N_5  and  C_6
REMARK    6  A    between atoms: C_6  and  C_7
REMARK    7  A    between atoms: C_10  and  C_11
REMARK    8  A    between atoms: C_11  and  O_12
REMARK    9  A    between atoms: O_12  and  C_13
REMARK   10  A    between atoms: C_16  and  C_17
REMARK                            x       y       z     vdW  Elec       q    Type
REMARK                         _______ _______ _______ _____ _____    ______ ____
ROOT
ATOM      1  C   UNK A   0      46.990   5.985  13.193  0.00  0.00    +0.000 A 
ATOM      2  C   UNK A   0      46.428   4.771  13.612  0.00  0.00    +0.000 A 
ATOM      3  C   UNK A   0      45.265   4.282  13.018  0.00  0.00    +0.000 A 
ATOM      4  C   UNK A   0      44.638   4.997  11.986  0.00  0.00    +0.000 A 
ATOM      5  C   UNK A   0      45.177   6.226  11.589  0.00  0.00    +0.000 A 
ATOM      6  C   UNK A   0      46.344   6.715  12.184  0.00  0.00    +0.000 A 
ENDROOT
BRANCH   1   7
ATOM      7  C   UNK A   0      48.267   6.492  13.821  0.00  0.00    +0.000 C 
BRANCH   7   8
ATOM      8  N   ALA A   1      49.395   6.616  12.882  0.00  0.00    +0.000 NA
ATOM      9  H   ALA A   1      50.072   5.888  13.113  0.00  0.00    +0.000 HD
BRANCH   8  11
ATOM     10  CB  ALA A   1      49.203   9.076  12.403  0.00  0.00    +0.000 C 
ATOM     11  CA  ALA A   1      50.073   7.933  12.925  0.00  0.00    +0.000 C 
BRANCH  11  12
ATOM     12  C   ALA A   1      50.484   8.240  14.384  0.00  0.00    +0.000 C 
BRANCH  12  13
ATOM     13  O   ALA A   1      51.551   7.391  14.802  0.00  0.00    +0.000 OA
ATOM     14  H   ALA A   1      52.282   7.998  15.030  0.00  0.00    +0.000 HD
ENDBRANCH  12  13
ENDBRANCH  11  12
ENDBRANCH   8  11
ENDBRANCH   7   8
ENDBRANCH   1   7
BRANCH   4  15
ATOM     15  C   UNK A   0      43.401   4.446  11.322  0.00  0.00    +0.000 C 
BRANCH  15  16
ATOM     16  O   UNK A   0      43.529   4.594   9.910  0.00  0.00    +0.000 OA
BRANCH  16  17
ATOM     17  C   UNK A   0      44.394   3.744   9.278  0.00  0.00    +0.000 A 
ATOM     18  C   UNK A   0      44.477   2.365   9.472  0.00  0.00    +0.000 A 
ATOM     19  C   UNK A   0      45.416   1.607   8.761  0.00  0.00    +0.000 A 
ATOM     20  C   UNK A   0      46.278   2.220   7.843  0.00  0.00    +0.000 A 
ATOM     21  C   UNK A   0      46.183   3.598   7.653  0.00  0.00    +0.000 A 
ATOM     22  F   UNK A   0      46.984   4.237   6.785  0.00  0.00    +0.000 F 
ATOM     23  C   UNK A   0      45.253   4.356   8.363  0.00  0.00    +0.000 A 
BRANCH  20  24
ATOM     24  C   UNK A   0      47.252   1.363   7.118  0.00  0.00    +0.000 C 
ATOM     25  N   UNK A   0      48.390   1.944   6.637  0.00  0.00    +0.000 N 
ATOM     26  O   UNK A   0      47.048   0.166   6.951  0.00  0.00    +0.000 OA
ATOM     27  H   UNK A   0      48.599   2.929   6.746  0.00  0.00    +0.000 HD
ATOM     28  H   UNK A   0      49.049   1.359   6.142  0.00  0.00    +0.000 HD
ENDBRANCH  20  24
ENDBRANCH  16  17
ENDBRANCH  15  16
ENDBRANCH   4  15
TORSDOF 9
ENDMDL
MODEL 6
REMARK VINA RESULT:    -7.342      1.708      2.151
REMARK INTER + INTRA:         -11.846
REMARK INTER:                 -11.256
REMARK INTRA:                  -0.591
REMARK UNBOUND:                -0.856
REMARK  Name = 
REMARK  10 active torsions:
REMARK  status: ('A' for Active; 'I' for Inactive)
REMARK    1  A    between atoms: CB_1  and  CA_2
REMARK    2  A    between atoms: CA_2  and  C_3
REMARK    3  A    between atoms: CA_2  and  N_5
REMARK    4  A    between atoms: C_3  and  O_4
REMARK    5  A    between atoms: N_5  and  C_6
REMARK    6  A    between atoms: C_6  and  C_7
REMARK    7  A    between atoms: C_10  and  C_11
REMARK    8  A    between atoms: C_11  and  O_12
REMARK    9  A    between atoms: O_12  and  C_13
REMARK   10  A    between atoms: C_16  and  C_17
REMARK                            x       y       z     vdW  Elec       q    Type
REMARK                         _______ _______ _______ _____ _____    ______ ____
ROOT
ATOM      1  C   UNK A   0      46.618   5.004  14.038  0.00  0.00    +0.000 A 
ATOM      2  C   UNK A   0      45.360   4.409  13.865  0.00  0.00    +0.000 A 
ATOM      3  C   UNK A   0      44.594   4.678  12.732  0.00  0.00    +0.000 A 
ATOM      4  C   UNK A   0      45.072   5.547  11.739  0.00  0.00    +0.000 A 
ATOM      5  C   UNK A   0      46.312   6.170  11.924  0.00  0.00    +0.000 A 
ATOM      6  C   UNK A   0      47.080   5.899  13.061  0.00  0.00    +0.000 A 
ENDROOT
BRANCH   1   7
ATOM      7  C   UNK A   0      47.454   4.684  15.254  0.00  0.00    +0.000 C 
BRANCH   7   8
ATOM      8  N   ALA A   1      47.594   3.244  15.529  0.00  0.00    +0.000 NA
ATOM      9  H   ALA A   1      46.690   2.804  15.347  0.00  0.00    +0.000 HD
BRANCH   8  11
ATOM     10  CB  ALA A   1      49.451   2.444  17.021  0.00  0.00    +0.000 C 
ATOM     11  CA  ALA A   1      48.006   2.933  16.918  0.00  0.00    +0.000 C 
BRANCH  11  12
ATOM     12  C   ALA A   1      47.842   4.201  17.789  0.00  0.00    +0.000 C 
BRANCH  12  13
ATOM     13  O   ALA A   1      49.048   4.498  18.488  0.00  0.00    +0.000 OA
ATOM     14  H   ALA A   1      48.762   4.961  19.300  0.00  0.00    +0.000 HD
ENDBRANCH  12  13
ENDBRANCH  11  12
ENDBRANCH   8  11
ENDBRANCH   7   8
ENDBRANCH   1   7
BRANCH   4  15
ATOM     15  C   UNK A   0      44.256   5.806  10.497  0.00  0.00    +0.000 C 
BRANCH  15  16
ATOM     16  O   UNK A   0      43.695   4.575  10.047  0.00  0.00    +0.000 OA
BRANCH  16  17
ATOM     17  C   UNK A   0      44.524   3.739   9.352  0.00  0.00    +0.000 A 
ATOM     18  C   UNK A   0      44.638   2.360   9.534  0.00  0.00    +0.000 A 
ATOM     19  C   UNK A   0      45.534   1.617   8.755  0.00  0.00    +0.000 A 
ATOM     20  C   UNK A   0      46.322   2.245   7.781  0.00  0.00    +0.000 A 
ATOM     21  C   UNK A   0      46.196   3.621   7.605  0.00  0.00    +0.000 A 
ATOM     22  F   UNK A   0      46.926   4.275   6.686  0.00  0.00    +0.000 F 
ATOM     23  C   UNK A   0      45.308   4.365   8.382  0.00  0.00    +0.000 A 
BRANCH  20  24
ATOM     24  C   UNK A   0      47.253   1.403   6.986  0.00  0.00    +0.000 C 
ATOM     25  N   UNK A   0      48.392   1.980   6.503  0.00  0.00    +0.000 N 
ATOM     26  O   UNK A   0      47.013   0.222   6.764  0.00  0.00    +0.000 OA
ATOM     27  H   UNK A   0      48.629   2.953   6.656  0.00  0.00    +0.000 HD
ATOM     28  H   UNK A   0      49.022   1.406   5.959  0.00  0.00    +0.000 HD
ENDBRANCH  20  24
ENDBRANCH  16  17
ENDBRANCH  15  16
ENDBRANCH   4  15
TORSDOF 9
ENDMDL
MODEL 7
REMARK VINA RESULT:    -7.110      1.974      2.325
REMARK INTER + INTRA:         -11.499
REMARK INTER:                 -10.771
REMARK INTRA:                  -0.728
REMARK UNBOUND:                -0.856
REMARK  Name = 
REMARK  10 active torsions:
REMARK  status: ('A' for Active; 'I' for Inactive)
REMARK    1  A    between atoms: CB_1  and  CA_2
REMARK    2  A    between atoms: CA_2  and  C_3
REMARK    3  A    between atoms: CA_2  and  N_5
REMARK    4  A    between atoms: C_3  and  O_4
REMARK    5  A    between atoms: N_5  and  C_6
REMARK    6  A    between atoms: C_6  and  C_7
REMARK    7  A    between atoms: C_10  and  C_11
REMARK    8  A    between atoms: C_11  and  O_12
REMARK    9  A    between atoms: O_12  and  C_13
REMARK   10  A    between atoms: C_16  and  C_17
REMARK                            x       y       z     vdW  Elec       q    Type
REMARK                         _______ _______ _______ _____ _____    ______ ____
ROOT
ATOM      1  C   UNK A   0      46.920   6.823  13.291  0.00  0.00    +0.000 A 
ATOM      2  C   UNK A   0      45.906   7.566  12.670  0.00  0.00    +0.000 A 
ATOM      3  C   UNK A   0      44.855   6.927  12.015  0.00  0.00    +0.000 A 
ATOM      4  C   UNK A   0      44.790   5.526  11.969  0.00  0.00    +0.000 A 
ATOM      5  C   UNK A   0      45.819   4.781  12.559  0.00  0.00    +0.000 A 
ATOM      6  C   UNK A   0      46.872   5.423  13.217  0.00  0.00    +0.000 A 
ENDROOT
BRANCH   1   7
ATOM      7  C   UNK A   0      48.039   7.523  14.025  0.00  0.00    +0.000 C 
BRANCH   7   8
ATOM      8  N   ALA A   1      49.199   6.666  14.319  0.00  0.00    +0.000 NA
ATOM      9  H   ALA A   1      48.887   5.695  14.272  0.00  0.00    +0.000 HD
BRANCH   8  11
ATOM     10  CB  ALA A   1      49.806   8.384  16.049  0.00  0.00    +0.000 C 
ATOM     11  CA  ALA A   1      49.809   6.909  15.647  0.00  0.00    +0.000 C 
BRANCH  11  12
ATOM     12  C   ALA A   1      49.036   6.096  16.713  0.00  0.00    +0.000 C 
BRANCH  12  13
ATOM     13  O   ALA A   1      48.162   6.938  17.460  0.00  0.00    +0.000 OA
ATOM     14  H   ALA A   1      48.535   7.836  17.367  0.00  0.00    +0.000 HD
ENDBRANCH  12  13
ENDBRANCH  11  12
ENDBRANCH   8  11
ENDBRANCH   7   8
ENDBRANCH   1   7
BRANCH   4  15
ATOM     15  C   UNK A   0      43.631   4.839  11.291  0.00  0.00    +0.000 C 
BRANCH  15  16
ATOM     16  O   UNK A   0      43.812   4.913   9.879  0.00  0.00    +0.000 OA
BRANCH  16  17
ATOM     17  C   UNK A   0      44.564   3.926   9.303  0.00  0.00    +0.000 A 
ATOM     18  C   UNK A   0      44.432   2.556   9.531  0.00  0.00    +0.000 A 
ATOM     19  C   UNK A   0      45.273   1.647   8.877  0.00  0.00    +0.000 A 
ATOM     20  C   UNK A   0      46.252   2.100   7.982  0.00  0.00    +0.000 A 
ATOM     21  C   UNK A   0      46.371   3.470   7.758  0.00  0.00    +0.000 A 
ATOM     22  F   UNK A   0      47.291   3.959   6.910  0.00  0.00    +0.000 F 
ATOM     23  C   UNK A   0      45.538   4.378   8.411  0.00  0.00    +0.000 A 
BRANCH  20  24
ATOM     24  C   UNK A   0      47.114   1.088   7.318  0.00  0.00    +0.000 C 
ATOM     25  N   UNK A   0      46.941  -0.225   7.649  0.00  0.00    +0.000 N 
ATOM     26  O   UNK A   0      47.961   1.413   6.494  0.00  0.00    +0.000 OA
ATOM     27  H   UNK A   0      46.259  -0.541   8.327  0.00  0.00    +0.000 HD
ATOM     28  H   UNK A   0      47.532  -0.911   7.198  0.00  0.00    +0.000 HD
ENDBRANCH  20  24
ENDBRANCH  16  17
ENDBRANCH  15  16
ENDBRANCH   4  15
TORSDOF 9
ENDMDL
MODEL 8
REMARK VINA RESULT:    -6.740      2.859      8.613
REMARK INTER + INTRA:         -10.944
REMARK INTER:                 -10.343
REMARK INTRA:                  -0.601
REMARK UNBOUND:                -0.856
REMARK  Name = 
REMARK  10 active torsions:
REMARK  status: ('A' for Active; 'I' for Inactive)
REMARK    1  A    between atoms: CB_1  and  CA_2
REMARK    2  A    between atoms: CA_2  and  C_3
REMARK    3  A    between atoms: CA_2  and  N_5
REMARK    4  A    between atoms: C_3  and  O_4
REMARK    5  A    between atoms: N_5  and  C_6
REMARK    6  A    between atoms: C_6  and  C_7
REMARK    7  A    between atoms: C_10  and  C_11
REMARK    8  A    between atoms: C_11  and  O_12
REMARK    9  A    between atoms: O_12  and  C_13
REMARK   10  A    between atoms: C_16  and  C_17
REMARK                            x       y       z     vdW  Elec       q    Type
REMARK                         _______ _______ _______ _____ _____    ______ ____
ROOT
ATOM      1  C   UNK A   0      45.131   4.063   9.434  0.00  0.00    +0.000 A 
ATOM      2  C   UNK A   0      44.782   3.128  10.419  0.00  0.00    +0.000 A 
ATOM      3  C   UNK A   0      44.873   3.451  11.772  0.00  0.00    +0.000 A 
ATOM      4  C   UNK A   0      45.310   4.723  12.173  0.00  0.00    +0.000 A 
ATOM      5  C   UNK A   0      45.692   5.647  11.194  0.00  0.00    +0.000 A 
ATOM      6  C   UNK A   0      45.601   5.323   9.837  0.00  0.00    +0.000 A 
ENDROOT
BRANCH   1   7
ATOM      7  C   UNK A   0      45.002   3.715   7.971  0.00  0.00    +0.000 C 
BRANCH   7   8
ATOM      8  N   ALA A   1      46.203   4.008   7.171  0.00  0.00    +0.000 NA
ATOM      9  H   ALA A   1      45.894   4.301   6.243  0.00  0.00    +0.000 HD
BRANCH   8  11
ATOM     10  CB  ALA A   1      46.621   1.590   7.714  0.00  0.00    +0.000 C 
ATOM     11  CA  ALA A   1      47.127   2.858   7.027  0.00  0.00    +0.000 C 
BRANCH  11  12
ATOM     12  C   ALA A   1      47.336   2.565   5.522  0.00  0.00    +0.000 C 
BRANCH  12  13
ATOM     13  O   ALA A   1      48.567   1.880   5.304  0.00  0.00    +0.000 OA
ATOM     14  H   ALA A   1      49.257   2.566   5.393  0.00  0.00    +0.000 HD
ENDBRANCH  12  13
ENDBRANCH  11  12
ENDBRANCH   8  11
ENDBRANCH   7   8
ENDBRANCH   1   7
BRANCH   4  15
ATOM     15  C   UNK A   0      45.371   5.080  13.637  0.00  0.00    +0.000 C 
BRANCH  15  16
ATOM     16  O   UNK A   0      46.189   4.128  14.312  0.00  0.00    +0.000 OA
BRANCH  16  17
ATOM     17  C   UNK A   0      47.164   4.626  15.131  0.00  0.00    +0.000 A 
ATOM     18  C   UNK A   0      47.870   5.814  14.937  0.00  0.00    +0.000 A 
ATOM     19  C   UNK A   0      48.852   6.209  15.854  0.00  0.00    +0.000 A 
ATOM     20  C   UNK A   0      49.135   5.423  16.979  0.00  0.00    +0.000 A 
ATOM     21  C   UNK A   0      48.420   4.242  17.165  0.00  0.00    +0.000 A 
ATOM     22  F   UNK A   0      48.649   3.450  18.226  0.00  0.00    +0.000 F 
ATOM     23  C   UNK A   0      47.445   3.843  16.252  0.00  0.00    +0.000 A 
BRANCH  20  24
ATOM     24  C   UNK A   0      50.187   5.895  17.916  0.00  0.00    +0.000 C 
ATOM     25  N   UNK A   0      51.458   6.038  17.440  0.00  0.00    +0.000 N 
ATOM     26  O   UNK A   0      49.930   6.151  19.087  0.00  0.00    +0.000 OA
ATOM     27  H   UNK A   0      51.719   5.835  16.483  0.00  0.00    +0.000 HD
ATOM     28  H   UNK A   0      52.172   6.357  18.081  0.00  0.00    +0.000 HD
ENDBRANCH  20  24
ENDBRANCH  16  17
ENDBRANCH  15  16
ENDBRANCH   4  15
TORSDOF 9
ENDMDL
MODEL 9
REMARK VINA RESULT:    -6.479      3.543      9.076
REMARK INTER + INTRA:         -10.554
REMARK INTER:                  -9.853
REMARK INTRA:                  -0.701
REMARK UNBOUND:                -0.856
REMARK  Name = 
REMARK  10 active torsions:
REMARK  status: ('A' for Active; 'I' for Inactive)
REMARK    1  A    between atoms: CB_1  and  CA_2
REMARK    2  A    between atoms: CA_2  and  C_3
REMARK    3  A    between atoms: CA_2  and  N_5
REMARK    4  A    between atoms: C_3  and  O_4
REMARK    5  A    between atoms: N_5  and  C_6
REMARK    6  A    between atoms: C_6  and  C_7
REMARK    7  A    between atoms: C_10  and  C_11
REMARK    8  A    between atoms: C_11  and  O_12
REMARK    9  A    between atoms: O_12  and  C_13
REMARK   10  A    between atoms: C_16  and  C_17
REMARK                            x       y       z     vdW  Elec       q    Type
REMARK                         _______ _______ _______ _____ _____    ______ ____
ROOT
ATOM      1  C   UNK A   0      44.981   4.733  11.105  0.00  0.00    +0.000 A 
ATOM      2  C   UNK A   0      45.663   5.894  10.716  0.00  0.00    +0.000 A 
ATOM      3  C   UNK A   0      46.525   6.543  11.600  0.00  0.00    +0.000 A 
ATOM      4  C   UNK A   0      46.729   6.041  12.894  0.00  0.00    +0.000 A 
ATOM      5  C   UNK A   0      46.024   4.900  13.297  0.00  0.00    +0.000 A 
ATOM      6  C   UNK A   0      45.161   4.250  12.410  0.00  0.00    +0.000 A 
ENDROOT
BRANCH   1   7
ATOM      7  C   UNK A   0      44.073   4.019  10.132  0.00  0.00    +0.000 C 
BRANCH   7   8
ATOM      8  N   ALA A   1      44.331   4.338   8.718  0.00  0.00    +0.000 NA
ATOM      9  H   ALA A   1      43.446   4.623   8.297  0.00  0.00    +0.000 HD
BRANCH   8  11
ATOM     10  CB  ALA A   1      46.276   3.501   7.364  0.00  0.00    +0.000 C 
ATOM     11  CA  ALA A   1      44.891   3.208   7.938  0.00  0.00    +0.000 C 
BRANCH  11  12
ATOM     12  C   ALA A   1      44.977   1.961   8.849  0.00  0.00    +0.000 C 
BRANCH  12  13
ATOM     13  O   ALA A   1      46.097   1.151   8.498  0.00  0.00    +0.000 OA
ATOM     14  H   ALA A   1      46.862   1.759   8.512  0.00  0.00    +0.000 HD
ENDBRANCH  12  13
ENDBRANCH  11  12
ENDBRANCH   8  11
ENDBRANCH   7   8
ENDBRANCH   1   7
BRANCH   4  15
ATOM     15  C   UNK A   0      47.691   6.725  13.833  0.00  0.00    +0.000 C 
BRANCH  15  16
ATOM     16  O   UNK A   0      48.516   5.739  14.449  0.00  0.00    +0.000 OA
BRANCH  16  17
ATOM     17  C   UNK A   0      48.349   5.552  15.794  0.00  0.00    +0.000 A 
ATOM     18  C   UNK A   0      47.605   4.536  16.394  0.00  0.00    +0.000 A 
ATOM     19  C   UNK A   0      47.511   4.460  17.790  0.00  0.00    +0.000 A 
ATOM     20  C   UNK A   0      48.166   5.396  18.600  0.00  0.00    +0.000 A 
ATOM     21  C   UNK A   0      48.912   6.403  17.990  0.00  0.00    +0.000 A 
ATOM     22  F   UNK A   0      49.561   7.327  18.718  0.00  0.00    +0.000 F 
ATOM     23  C   UNK A   0      49.003   6.485  16.600  0.00  0.00    +0.000 A 
BRANCH  20  24
ATOM     24  C   UNK A   0      48.030   5.263  20.074  0.00  0.00    +0.000 C 
ATOM     25  N   UNK A   0      48.511   4.132  20.667  0.00  0.00    +0.000 N 
ATOM     26  O   UNK A   0      47.500   6.140  20.747  0.00  0.00    +0.000 OA
ATOM     27  H   UNK A   0      48.952   3.380  20.152  0.00  0.00    +0.000 HD
ATOM     28  H   UNK A   0      48.414   4.043  21.670  0.00  0.00    +0.000 HD
ENDBRANCH  20  24
ENDBRANCH  16  17
ENDBRANCH  15  16
ENDBRANCH   4  15
TORSDOF 9
ENDMDL
