MODEL 1
REMARK VINA RESULT:    -7.830      0.000      0.000
REMARK INTER + INTRA:         -10.213
REMARK INTER:                  -9.890
REMARK INTRA:                  -0.322
REMARK UNBOUND:                -0.322
REMARK  Name = 
REMARK  5 active torsions:
REMARK  status: ('A' for Active; 'I' for Inactive)
REMARK    1  A    between atoms: N_1  and  C_2
REMARK    2  A    between atoms: C_2  and  C_3
REMARK    3  A    between atoms: C_3  and  C_4
REMARK    4  A    between atoms: C_7  and  C_8
REMARK    5  A    between atoms: C_8  and  N_9
REMARK                            x       y       z     vdW  Elec       q    Type
REMARK                         _______ _______ _______ _____ _____    ______ ____
ROOT
ATOM      1  C   UNL     1      46.127   2.243   7.777  0.00  0.00    +0.000 A 
ATOM      2  C   UNL     1      45.306   1.608   8.716  0.00  0.00    +0.000 A 
ATOM      3  C   UNL     1      44.527   2.358   9.601  0.00  0.00    +0.000 A 
ATOM      4  C   UNL     1      44.548   3.758   9.563  0.00  0.00    +0.000 A 
ATOM      5  C   UNL     1      45.350   4.391   8.602  0.00  0.00    +0.000 A 
ATOM      6  C   UNL     1      46.127   3.641   7.715  0.00  0.00    +0.000 A 
ENDROOT
BRANCH   1   7
ATOM      7  C   UNL     1      47.009   1.435   6.857  0.00  0.00    +0.000 C 
BRANCH   7   8
ATOM      8  C   UNL     1      48.279   2.187   6.445  0.00  0.00    +0.000 C 
BRANCH   8   9
ATOM      9  N   UNL     1      48.272   2.478   5.011  0.00  0.00    +0.000 NA
ATOM     10  H   UNL     1      47.423   2.096   4.595  0.00  0.00    +0.000 HD
ATOM     11  H   UNL     1      49.050   1.997   4.560  0.00  0.00    +0.000 HD
ENDBRANCH   8   9
ENDBRANCH   7   8
ENDBRANCH   1   7
BRANCH   4  12
ATOM     12  C   UNL     1      43.736   4.573  10.537  0.00  0.00    +0.000 C 
BRANCH  12  13
ATOM     13  N   UNL     1      44.571   5.324  11.471  0.00  0.00    +0.000 N 
ATOM     14  C   UNL     1      44.504   6.688  11.640  0.00  0.00    +0.000 A 
ATOM     15  C   UNL     1      45.325   7.030  12.690  0.00  0.00    +0.000 A 
ATOM     16  C   UNL     1      45.908   5.838  13.188  0.00  0.00    +0.000 A 
ATOM     17  C   UNL     1      46.792   5.554  14.240  0.00  0.00    +0.000 A 
ATOM     18  C   UNL     1      47.138   4.224  14.419  0.00  0.00    +0.000 A 
ATOM     19  N   UNL     1      46.694   3.204  13.655  0.00  0.00    +0.000 NA
ATOM     20  C   UNL     1      45.842   3.470  12.638  0.00  0.00    +0.000 A 
ATOM     21  C   UNL     1      45.438   4.781  12.403  0.00  0.00    +0.000 A 
ENDBRANCH  12  13
ENDBRANCH   4  12
TORSDOF 5
ENDMDL
MODEL 2
REMARK VINA RESULT:    -7.593      1.070      2.440
REMARK INTER + INTRA:          -9.913
REMARK INTER:                  -9.387
REMARK INTRA:                  -0.526
REMARK UNBOUND:                -0.322
REMARK  Name = 
REMARK  5 active torsions:
REMARK  status: ('A' for Active; 'I' for Inactive)
REMARK    1  A    between atoms: N_1  and  C_2
REMARK    2  A    between atoms: C_2  and  C_3
REMARK    3  A    between atoms: C_3  and  C_4
REMARK    4  A    between atoms: C_7  and  C_8
REMARK    5  A    between atoms: C_8  and  N_9
REMARK                            x       y       z     vdW  Elec       q    Type
REMARK                         _______ _______ _______ _____ _____    ______ ____
ROOT
ATOM      1  C   UNL     1      46.129   2.277   7.849  0.00  0.00    +0.000 A 
ATOM      2  C   UNL     1      45.294   1.663   8.790  0.00  0.00    +0.000 A 
ATOM      3  C   UNL     1      44.527   2.432   9.670  0.00  0.00    +0.000 A 
ATOM      4  C   UNL     1      44.575   3.832   9.624  0.00  0.00    +0.000 A 
ATOM      5  C   UNL     1      45.390   4.444   8.661  0.00  0.00    +0.000 A 
ATOM      6  C   UNL     1      46.155   3.675   7.780  0.00  0.00    +0.000 A 
ENDROOT
BRANCH   1   7
ATOM      7  C   UNL     1      46.997   1.448   6.936  0.00  0.00    +0.000 C 
BRANCH   7   8
ATOM      8  C   UNL     1      48.287   2.170   6.532  0.00  0.00    +0.000 C 
BRANCH   8   9
ATOM      9  N   UNL     1      48.278   2.496   5.105  0.00  0.00    +0.000 NA
ATOM     10  H   UNL     1      47.318   2.656   4.803  0.00  0.00    +0.000 HD
ATOM     11  H   UNL     1      48.615   1.696   4.569  0.00  0.00    +0.000 HD
ENDBRANCH   8   9
ENDBRANCH   7   8
ENDBRANCH   1   7
BRANCH   4  12
ATOM     12  C   UNL     1      43.775   4.666  10.592  0.00  0.00    +0.000 C 
BRANCH  12  13
ATOM     13  N   UNL     1      44.601   5.235  11.654  0.00  0.00    +0.000 N 
ATOM     14  C   UNL     1      45.339   4.486  12.542  0.00  0.00    +0.000 A 
ATOM     15  C   UNL     1      46.095   5.348  13.303  0.00  0.00    +0.000 A 
ATOM     16  C   UNL     1      45.820   6.667  12.864  0.00  0.00    +0.000 A 
ATOM     17  C   UNL     1      46.295   7.933  13.236  0.00  0.00    +0.000 A 
ATOM     18  C   UNL     1      45.772   9.019  12.550  0.00  0.00    +0.000 A 
ATOM     19  N   UNL     1      44.846   8.937  11.571  0.00  0.00    +0.000 NA
ATOM     20  C   UNL     1      44.383   7.718  11.207  0.00  0.00    +0.000 A 
ATOM     21  C   UNL     1      44.870   6.579  11.842  0.00  0.00    +0.000 A 
ENDBRANCH  12  13
ENDBRANCH   4  12
TORSDOF 5
ENDMDL
MODEL 3
REMARK VINA RESULT:    -6.113      2.532      5.959
REMARK INTER + INTRA:          -8.044
REMARK INTER:                  -7.548
REMARK INTRA:                  -0.496
REMARK UNBOUND:                -0.322
REMARK  Name = 
REMARK  5 active torsions:
REMARK  status: ('A' for Active; 'I' for Inactive)
REMARK    1  A    between atoms: N_1  and  C_2
REMARK    2  A    between atoms: C_2  and  C_3
REMARK    3  A    between atoms: C_3  and  C_4
REMARK    4  A    between atoms: C_7  and  C_8
REMARK    5  A    between atoms: C_8  and  N_9
REMARK                            x       y       z     vdW  Elec       q    Type
REMARK                         _______ _______ _______ _____ _____    ______ ____
ROOT
ATOM      1  C   UNL     1      48.325   7.133  13.223  0.00  0.00    +0.000 A 
ATOM      2  C   UNL     1      47.522   7.931  12.400  0.00  0.00    +0.000 A 
ATOM      3  C   UNL     1      46.198   7.571  12.132  0.00  0.00    +0.000 A 
ATOM      4  C   UNL     1      45.648   6.407  12.686  0.00  0.00    +0.000 A 
ATOM      5  C   UNL     1      46.446   5.625  13.533  0.00  0.00    +0.000 A 
ATOM      6  C   UNL     1      47.768   5.987  13.803  0.00  0.00    +0.000 A 
ENDROOT
BRANCH   1   7
ATOM      7  C   UNL     1      49.769   7.493  13.468  0.00  0.00    +0.000 C 
BRANCH   7   8
ATOM      8  C   UNL     1      50.380   8.298  12.317  0.00  0.00    +0.000 C 
BRANCH   8   9
ATOM      9  N   UNL     1      51.082   7.420  11.380  0.00  0.00    +0.000 NA
ATOM     10  H   UNL     1      50.667   7.515  10.455  0.00  0.00    +0.000 HD
ATOM     11  H   UNL     1      50.945   6.447  11.655  0.00  0.00    +0.000 HD
ENDBRANCH   8   9
ENDBRANCH   7   8
ENDBRANCH   1   7
BRANCH   4  12
ATOM     12  C   UNL     1      44.232   5.995  12.375  0.00  0.00    +0.000 C 
BRANCH  12  13
ATOM     13  N   UNL     1      44.153   4.657  11.794  0.00  0.00    +0.000 N 
ATOM     14  C   UNL     1      43.487   3.602  12.376  0.00  0.00    +0.000 A 
ATOM     15  C   UNL     1      43.502   2.548  11.491  0.00  0.00    +0.000 A 
ATOM     16  C   UNL     1      44.191   2.970  10.327  0.00  0.00    +0.000 A 
ATOM     17  C   UNL     1      44.498   2.357   9.103  0.00  0.00    +0.000 A 
ATOM     18  C   UNL     1      45.206   3.119   8.186  0.00  0.00    +0.000 A 
ATOM     19  N   UNL     1      45.616   4.387   8.395  0.00  0.00    +0.000 NA
ATOM     20  C   UNL     1      45.324   4.986   9.573  0.00  0.00    +0.000 A 
ATOM     21  C   UNL     1      44.606   4.289  10.540  0.00  0.00    +0.000 A 
ENDBRANCH  12  13
ENDBRANCH   4  12
TORSDOF 5
ENDMDL
MODEL 4
REMARK VINA RESULT:    -6.047      2.240      6.614
REMARK INTER + INTRA:          -7.961
REMARK INTER:                  -7.486
REMARK INTRA:                  -0.475
REMARK UNBOUND:                -0.322
REMARK  Name = 
REMARK  5 active torsions:
REMARK  status: ('A' for Active; 'I' for Inactive)
REMARK    1  A    between atoms: N_1  and  C_2
REMARK    2  A    between atoms: C_2  and  C_3
REMARK    3  A    between atoms: C_3  and  C_4
REMARK    4  A    between atoms: C_7  and  C_8
REMARK    5  A    between atoms: C_8  and  N_9
REMARK                            x       y       z     vdW  Elec       q    Type
REMARK                         _______ _______ _______ _____ _____    ______ ____
ROOT
ATOM      1  C   UNL     1      48.055   6.876  14.056  0.00  0.00    +0.000 A 
ATOM      2  C   UNL     1      47.537   5.580  14.169  0.00  0.00    +0.000 A 
ATOM      3  C   UNL     1      46.282   5.268  13.636  0.00  0.00    +0.000 A 
ATOM      4  C   UNL     1      45.523   6.243  12.976  0.00  0.00    +0.000 A 
ATOM      5  C   UNL     1      46.058   7.533  12.840  0.00  0.00    +0.000 A 
ATOM      6  C   UNL     1      47.313   7.844  13.370  0.00  0.00    +0.000 A 
ENDROOT
BRANCH   1   7
ATOM      7  C   UNL     1      49.385   7.227  14.678  0.00  0.00    +0.000 C 
BRANCH   7   8
ATOM      8  C   UNL     1      49.252   8.232  15.826  0.00  0.00    +0.000 C 
BRANCH   8   9
ATOM      9  N   UNL     1      48.360   7.721  16.867  0.00  0.00    +0.000 NA
ATOM     10  H   UNL     1      48.055   8.493  17.458  0.00  0.00    +0.000 HD
ATOM     11  H   UNL     1      48.873   7.083  17.475  0.00  0.00    +0.000 HD
ENDBRANCH   8   9
ENDBRANCH   7   8
ENDBRANCH   1   7
BRANCH   4  12
ATOM     12  C   UNL     1      44.156   5.922  12.429  0.00  0.00    +0.000 C 
BRANCH  12  13
ATOM     13  N   UNL     1      44.120   4.639  11.731  0.00  0.00    +0.000 N 
ATOM     14  C   UNL     1      43.428   3.537  12.180  0.00  0.00    +0.000 A 
ATOM     15  C   UNL     1      43.502   2.563  11.210  0.00  0.00    +0.000 A 
ATOM     16  C   UNL     1      44.256   3.085  10.130  0.00  0.00    +0.000 A 
ATOM     17  C   UNL     1      44.639   2.579   8.878  0.00  0.00    +0.000 A 
ATOM     18  C   UNL     1      45.394   3.418   8.074  0.00  0.00    +0.000 A 
ATOM     19  N   UNL     1      45.784   4.664   8.415  0.00  0.00    +0.000 NA
ATOM     20  C   UNL     1      45.419   5.159   9.620  0.00  0.00    +0.000 A 
ATOM     21  C   UNL     1      44.649   4.380  10.480  0.00  0.00    +0.000 A 
ENDBRANCH  12  13
ENDBRANCH   4  12
TORSDOF 5
ENDMDL
MODEL 5
REMARK VINA RESULT:    -6.032      2.191      2.988
REMARK INTER + INTRA:          -7.942
REMARK INTER:                  -7.585
REMARK INTRA:                  -0.356
REMARK UNBOUND:                -0.322
REMARK  Name = 
REMARK  5 active torsions:
REMARK  status: ('A' for Active; 'I' for Inactive)
REMARK    1  A    between atoms: N_1  and  C_2
REMARK    2  A    between atoms: C_2  and  C_3
REMARK    3  A    between atoms: C_3  and  C_4
REMARK    4  A    between atoms: C_7  and  C_8
REMARK    5  A    between atoms: C_8  and  N_9
REMARK                            x       y       z     vdW  Elec       q    Type
REMARK                         _______ _______ _______ _____ _____    ______ ____
ROOT
ATOM      1  C   UNL     1      44.623   3.130   9.778  0.00  0.00    +0.000 A 
ATOM      2  C   UNL     1      43.939   2.864  10.970  0.00  0.00    +0.000 A 
ATOM      3  C   UNL     1      43.885   3.822  11.987  0.00  0.00    +0.000 A 
ATOM      4  C   UNL     1      44.509   5.067  11.831  0.00  0.00    +0.000 A 
ATOM      5  C   UNL     1      45.169   5.340  10.624  0.00  0.00    +0.000 A 
ATOM      6  C   UNL     1      45.221   4.383   9.607  0.00  0.00    +0.000 A 
ENDROOT
BRANCH   1   7
ATOM      7  C   UNL     1      44.727   2.077   8.702  0.00  0.00    +0.000 C 
BRANCH   7   8
ATOM      8  C   UNL     1      46.143   1.957   8.130  0.00  0.00    +0.000 C 
BRANCH   8   9
ATOM      9  N   UNL     1      46.542   0.554   8.013  0.00  0.00    +0.000 NA
ATOM     10  H   UNL     1      46.190   0.036   8.817  0.00  0.00    +0.000 HD
ATOM     11  H   UNL     1      47.559   0.482   8.053  0.00  0.00    +0.000 HD
ENDBRANCH   8   9
ENDBRANCH   7   8
ENDBRANCH   1   7
BRANCH   4  12
ATOM     12  C   UNL     1      44.483   6.091  12.937  0.00  0.00    +0.000 C 
BRANCH  12  13
ATOM     13  N   UNL     1      45.462   7.156  12.736  0.00  0.00    +0.000 N 
ATOM     14  C   UNL     1      45.155   8.402  12.239  0.00  0.00    +0.000 A 
ATOM     15  C   UNL     1      46.284   9.185  12.319  0.00  0.00    +0.000 A 
ATOM     16  C   UNL     1      47.315   8.397  12.890  0.00  0.00    +0.000 A 
ATOM     17  C   UNL     1      48.652   8.648  13.233  0.00  0.00    +0.000 A 
ATOM     18  C   UNL     1      49.359   7.594  13.790  0.00  0.00    +0.000 A 
ATOM     19  N   UNL     1      48.855   6.362  14.012  0.00  0.00    +0.000 NA
ATOM     20  C   UNL     1      47.566   6.112  13.683  0.00  0.00    +0.000 A 
ATOM     21  C   UNL     1      46.787   7.125  13.130  0.00  0.00    +0.000 A 
ENDBRANCH  12  13
ENDBRANCH   4  12
TORSDOF 5
ENDMDL
MODEL 6
REMARK VINA RESULT:    -6.017      2.768      4.128
REMARK INTER + INTRA:          -7.922
REMARK INTER:                  -7.412
REMARK INTRA:                  -0.511
REMARK UNBOUND:                -0.322
REMARK  Name = 
REMARK  5 active torsions:
REMARK  status: ('A' for Active; 'I' for Inactive)
REMARK    1  A    between atoms: N_1  and  C_2
REMARK    2  A    between atoms: C_2  and  C_3
REMARK    3  A    between atoms: C_3  and  C_4
REMARK    4  A    between atoms: C_7  and  C_8
REMARK    5  A    between atoms: C_8  and  N_9
REMARK                            x       y       z     vdW  Elec       q    Type
REMARK                         _______ _______ _______ _____ _____    ______ ____
ROOT
ATOM      1  C   UNL     1      44.980   3.245   9.851  0.00  0.00    +0.000 A 
ATOM      2  C   UNL     1      44.902   2.921  11.210  0.00  0.00    +0.000 A 
ATOM      3  C   UNL     1      45.064   3.909  12.186  0.00  0.00    +0.000 A 
ATOM      4  C   UNL     1      45.302   5.241  11.823  0.00  0.00    +0.000 A 
ATOM      5  C   UNL     1      45.350   5.567  10.460  0.00  0.00    +0.000 A 
ATOM      6  C   UNL     1      45.185   4.580   9.485  0.00  0.00    +0.000 A 
ENDROOT
BRANCH   1   7
ATOM      7  C   UNL     1      44.859   2.170   8.798  0.00  0.00    +0.000 C 
BRANCH   7   8
ATOM      8  C   UNL     1      46.167   1.944   8.034  0.00  0.00    +0.000 C 
BRANCH   8   9
ATOM      9  N   UNL     1      46.495   0.519   7.972  0.00  0.00    +0.000 NA
ATOM     10  H   UNL     1      47.330   0.390   7.402  0.00  0.00    +0.000 HD
ATOM     11  H   UNL     1      45.747   0.015   7.496  0.00  0.00    +0.000 HD
ENDBRANCH   8   9
ENDBRANCH   7   8
ENDBRANCH   1   7
BRANCH   4  12
ATOM     12  C   UNL     1      45.510   6.305  12.871  0.00  0.00    +0.000 C 
BRANCH  12  13
ATOM     13  N   UNL     1      46.773   7.019  12.699  0.00  0.00    +0.000 N 
ATOM     14  C   UNL     1      48.011   6.420  12.752  0.00  0.00    +0.000 A 
ATOM     15  C   UNL     1      48.955   7.360  12.409  0.00  0.00    +0.000 A 
ATOM     16  C   UNL     1      48.276   8.573  12.130  0.00  0.00    +0.000 A 
ATOM     17  C   UNL     1      48.693   9.847  11.717  0.00  0.00    +0.000 A 
ATOM     18  C   UNL     1      47.701  10.799  11.542  0.00  0.00    +0.000 A 
ATOM     19  N   UNL     1      46.384  10.585  11.747  0.00  0.00    +0.000 NA
ATOM     20  C   UNL     1      45.975   9.358  12.146  0.00  0.00    +0.000 A 
ATOM     21  C   UNL     1      46.912   8.345  12.332  0.00  0.00    +0.000 A 
ENDBRANCH  12  13
ENDBRANCH   4  12
TORSDOF 5
ENDMDL
MODEL 7
REMARK VINA RESULT:    -5.579      1.952      6.452
REMARK INTER + INTRA:          -7.369
REMARK INTER:                  -7.024
REMARK INTRA:                  -0.345
REMARK UNBOUND:                -0.322
REMARK  Name = 
REMARK  5 active torsions:
REMARK  status: ('A' for Active; 'I' for Inactive)
REMARK    1  A    between atoms: N_1  and  C_2
REMARK    2  A    between atoms: C_2  and  C_3
REMARK    3  A    between atoms: C_3  and  C_4
REMARK    4  A    between atoms: C_7  and  C_8
REMARK    5  A    between atoms: C_8  and  N_9
REMARK                            x       y       z     vdW  Elec       q    Type
REMARK                         _______ _______ _______ _____ _____    ______ ____
ROOT
ATOM      1  C   UNL     1      46.084   6.605  12.534  0.00  0.00    +0.000 A 
ATOM      2  C   UNL     1      44.872   5.929  12.722  0.00  0.00    +0.000 A 
ATOM      3  C   UNL     1      44.273   5.239  11.664  0.00  0.00    +0.000 A 
ATOM      4  C   UNL     1      44.873   5.207  10.399  0.00  0.00    +0.000 A 
ATOM      5  C   UNL     1      46.101   5.862  10.222  0.00  0.00    +0.000 A 
ATOM      6  C   UNL     1      46.702   6.549  11.280  0.00  0.00    +0.000 A 
ENDROOT
BRANCH   1   7
ATOM      7  C   UNL     1      46.704   7.395  13.661  0.00  0.00    +0.000 C 
BRANCH   7   8
ATOM      8  C   UNL     1      46.766   8.897  13.364  0.00  0.00    +0.000 C 
BRANCH   8   9
ATOM      9  N   UNL     1      45.463   9.396  12.926  0.00  0.00    +0.000 NA
ATOM     10  H   UNL     1      45.596  10.229  12.353  0.00  0.00    +0.000 HD
ATOM     11  H   UNL     1      44.919   9.693  13.736  0.00  0.00    +0.000 HD
ENDBRANCH   8   9
ENDBRANCH   7   8
ENDBRANCH   1   7
BRANCH   4  12
ATOM     12  C   UNL     1      44.215   4.493   9.246  0.00  0.00    +0.000 C 
BRANCH  12  13
ATOM     13  N   UNL     1      44.854   3.215   8.941  0.00  0.00    +0.000 N 
ATOM     14  C   UNL     1      44.384   1.995   9.373  0.00  0.00    +0.000 A 
ATOM     15  C   UNL     1      45.146   1.012   8.785  0.00  0.00    +0.000 A 
ATOM     16  C   UNL     1      46.109   1.646   7.961  0.00  0.00    +0.000 A 
ATOM     17  C   UNL     1      47.123   1.176   7.113  0.00  0.00    +0.000 A 
ATOM     18  C   UNL     1      47.877   2.135   6.454  0.00  0.00    +0.000 A 
ATOM     19  N   UNL     1      47.705   3.468   6.580  0.00  0.00    +0.000 NA
ATOM     20  C   UNL     1      46.729   3.929   7.396  0.00  0.00    +0.000 A 
ATOM     21  C   UNL     1      45.922   3.026   8.083  0.00  0.00    +0.000 A 
ENDBRANCH  12  13
ENDBRANCH   4  12
TORSDOF 5
ENDMDL
MODEL 8
REMARK VINA RESULT:    -5.208      3.579      5.616
REMARK INTER + INTRA:          -6.901
REMARK INTER:                  -6.366
REMARK INTRA:                  -0.535
REMARK UNBOUND:                -0.322
REMARK  Name = 
REMARK  5 active torsions:
REMARK  status: ('A' for Active; 'I' for Inactive)
REMARK    1  A    between atoms: N_1  and  C_2
REMARK    2  A    between atoms: C_2  and  C_3
REMARK    3  A    between atoms: C_3  and  C_4
REMARK    4  A    between atoms: C_7  and  C_8
REMARK    5  A    between atoms: C_8  and  N_9
REMARK                            x       y       z     vdW  Elec       q    Type
REMARK                         _______ _______ _______ _____ _____    ______ ____
ROOT
ATOM      1  C   UNL     1      44.946   5.151  12.100  0.00  0.00    +0.000 A 
ATOM      2  C   UNL     1      45.546   4.674  13.271  0.00  0.00    +0.000 A 
ATOM      3  C   UNL     1      46.787   5.166  13.685  0.00  0.00    +0.000 A 
ATOM      4  C   UNL     1      47.452   6.149  12.939  0.00  0.00    +0.000 A 
ATOM      5  C   UNL     1      46.834   6.645  11.782  0.00  0.00    +0.000 A 
ATOM      6  C   UNL     1      45.592   6.155  11.370  0.00  0.00    +0.000 A 
ENDROOT
BRANCH   1   7
ATOM      7  C   UNL     1      43.632   4.582  11.624  0.00  0.00    +0.000 C 
BRANCH   7   8
ATOM      8  C   UNL     1      43.790   3.215  10.951  0.00  0.00    +0.000 C 
BRANCH   8   9
ATOM      9  N   UNL     1      43.011   2.194  11.652  0.00  0.00    +0.000 NA
ATOM     10  H   UNL     1      42.687   1.498  10.982  0.00  0.00    +0.000 HD
ATOM     11  H   UNL     1      42.171   2.617  12.050  0.00  0.00    +0.000 HD
ENDBRANCH   8   9
ENDBRANCH   7   8
ENDBRANCH   1   7
BRANCH   4  12
ATOM     12  C   UNL     1      48.805   6.659  13.362  0.00  0.00    +0.000 C 
BRANCH  12  13
ATOM     13  N   UNL     1      48.731   7.551  14.517  0.00  0.00    +0.000 N 
ATOM     14  C   UNL     1      48.352   8.873  14.447  0.00  0.00    +0.000 A 
ATOM     15  C   UNL     1      48.260   9.360  15.731  0.00  0.00    +0.000 A 
ATOM     16  C   UNL     1      48.584   8.302  16.618  0.00  0.00    +0.000 A 
ATOM     17  C   UNL     1      48.640   8.189  18.015  0.00  0.00    +0.000 A 
ATOM     18  C   UNL     1      49.007   6.953  18.524  0.00  0.00    +0.000 A 
ATOM     19  N   UNL     1      49.315   5.873  17.775  0.00  0.00    +0.000 NA
ATOM     20  C   UNL     1      49.264   5.975  16.426  0.00  0.00    +0.000 A 
ATOM     21  C   UNL     1      48.892   7.182  15.840  0.00  0.00    +0.000 A 
ENDBRANCH  12  13
ENDBRANCH   4  12
TORSDOF 5
ENDMDL
MODEL 9
REMARK VINA RESULT:    -5.208      3.698      7.520
REMARK INTER + INTRA:          -6.900
REMARK INTER:                  -6.410
REMARK INTRA:                  -0.490
REMARK UNBOUND:                -0.322
REMARK  Name = 
REMARK  5 active torsions:
REMARK  status: ('A' for Active; 'I' for Inactive)
REMARK    1  A    between atoms: N_1  and  C_2
REMARK    2  A    between atoms: C_2  and  C_3
REMARK    3  A    between atoms: C_3  and  C_4
REMARK    4  A    between atoms: C_7  and  C_8
REMARK    5  A    between atoms: C_8  and  N_9
REMARK                            x       y       z     vdW  Elec       q    Type
REMARK                         _______ _______ _______ _____ _____    ______ ____
ROOT
ATOM      1  C   UNL     1      48.233   5.655  17.260  0.00  0.00    +0.000 A 
ATOM      2  C   UNL     1      47.505   4.655  16.605  0.00  0.00    +0.000 A 
ATOM      3  C   UNL     1      47.354   4.680  15.215  0.00  0.00    +0.000 A 
ATOM      4  C   UNL     1      47.931   5.703  14.451  0.00  0.00    +0.000 A 
ATOM      5  C   UNL     1      48.683   6.688  15.108  0.00  0.00    +0.000 A 
ATOM      6  C   UNL     1      48.837   6.661  16.496  0.00  0.00    +0.000 A 
ENDROOT
BRANCH   1   7
ATOM      7  C   UNL     1      48.352   5.658  18.764  0.00  0.00    +0.000 C 
BRANCH   7   8
ATOM      8  C   UNL     1      49.218   4.509  19.290  0.00  0.00    +0.000 C 
BRANCH   8   9
ATOM      9  N   UNL     1      48.410   3.548  20.040  0.00  0.00    +0.000 NA
ATOM     10  H   UNL     1      48.104   2.804  19.414  0.00  0.00    +0.000 HD
ATOM     11  H   UNL     1      47.560   4.002  20.376  0.00  0.00    +0.000 HD
ENDBRANCH   8   9
ENDBRANCH   7   8
ENDBRANCH   1   7
BRANCH   4  12
ATOM     12  C   UNL     1      47.743   5.754  12.957  0.00  0.00    +0.000 C 
BRANCH  12  13
ATOM     13  N   UNL     1      46.392   6.156  12.576  0.00  0.00    +0.000 N 
ATOM     14  C   UNL     1      46.002   7.461  12.378  0.00  0.00    +0.000 A 
ATOM     15  C   UNL     1      44.713   7.454  11.896  0.00  0.00    +0.000 A 
ATOM     16  C   UNL     1      44.300   6.102  11.787  0.00  0.00    +0.000 A 
ATOM     17  C   UNL     1      43.124   5.479  11.344  0.00  0.00    +0.000 A 
ATOM     18  C   UNL     1      43.102   4.093  11.387  0.00  0.00    +0.000 A 
ATOM     19  N   UNL     1      44.117   3.321  11.827  0.00  0.00    +0.000 NA
ATOM     20  C   UNL     1      45.255   3.916  12.256  0.00  0.00    +0.000 A 
ATOM     21  C   UNL     1      45.358   5.304  12.232  0.00  0.00    +0.000 A 
ENDBRANCH  12  13
ENDBRANCH   4  12
TORSDOF 5
ENDMDL
