MODEL 1
REMARK VINA RESULT:    -7.731      0.000      0.000
REMARK INTER + INTRA:          -9.921
REMARK INTER:                  -9.539
REMARK INTRA:                  -0.382
REMARK UNBOUND:                -0.382
REMARK  Name = 
REMARK  4 active torsions:
REMARK  status: ('A' for Active; 'I' for Inactive)
REMARK    1  A    between atoms: C_2  and  C_4
REMARK    2  A    between atoms: C_7  and  N_8
REMARK    3  A    between atoms: N_8  and  C_9
REMARK    4  A    between atoms: C_9  and  C_10
REMARK                            x       y       z     vdW  Elec       q    Type
REMARK                         _______ _______ _______ _____ _____    ______ ____
ROOT
ATOM      1  C   UNL     1      46.542   4.683  13.629  0.00  0.00    +0.000 A 
ATOM      2  C   UNL     1      46.813   5.846  12.929  0.00  0.00    +0.000 A 
ATOM      3  C   UNL     1      46.227   6.024  11.672  0.00  0.00    +0.000 A 
ATOM      4  C   UNL     1      45.372   5.048  11.140  0.00  0.00    +0.000 A 
ATOM      5  C   UNL     1      45.171   3.924  11.940  0.00  0.00    +0.000 A 
ATOM      6  N   UNL     1      45.721   3.703  13.163  0.00  0.00    +0.000 NA
ENDROOT
BRANCH   1   8
ATOM      7  N   UNL     1      47.509   5.502  15.729  0.00  0.00    +0.000 N 
ATOM      8  C   UNL     1      47.191   4.424  14.952  0.00  0.00    +0.000 C 
ATOM      9  O   UNL     1      47.419   3.278  15.359  0.00  0.00    +0.000 OA
ATOM     10  H   UNL     1      47.857   5.310  16.654  0.00  0.00    +0.000 HD
ATOM     11  H   UNL     1      47.106   6.413  15.534  0.00  0.00    +0.000 HD
ENDBRANCH   1   8
BRANCH   4  12
ATOM     12  N   UNL     1      44.840   5.199   9.852  0.00  0.00    +0.000 N 
ATOM     13  H   UNL     1      45.436   5.754   9.235  0.00  0.00    +0.000 HD
BRANCH  12  14
ATOM     14  C   UNL     1      44.279   4.017   9.199  0.00  0.00    +0.000 C 
BRANCH  14  15
ATOM     15  C   UNL     1      45.368   3.229   8.509  0.00  0.00    +0.000 A 
ATOM     16  C   UNL     1      45.492   1.848   8.730  0.00  0.00    +0.000 A 
ATOM     17  C   UNL     1      46.416   1.094   8.006  0.00  0.00    +0.000 A 
ATOM     18  C   UNL     1      47.230   1.713   7.058  0.00  0.00    +0.000 A 
ATOM     19  C   UNL     1      47.138   3.088   6.852  0.00  0.00    +0.000 A 
ATOM     20  C   UNL     1      46.216   3.845   7.578  0.00  0.00    +0.000 A 
ENDBRANCH  14  15
ENDBRANCH  12  14
ENDBRANCH   4  12
TORSDOF 4
ENDMDL
MODEL 2
REMARK VINA RESULT:    -7.686      3.097      5.881
REMARK INTER + INTRA:          -9.865
REMARK INTER:                  -9.368
REMARK INTRA:                  -0.498
REMARK UNBOUND:                -0.382
REMARK  Name = 
REMARK  4 active torsions:
REMARK  status: ('A' for Active; 'I' for Inactive)
REMARK    1  A    between atoms: C_2  and  C_4
REMARK    2  A    between atoms: C_7  and  N_8
REMARK    3  A    between atoms: N_8  and  C_9
REMARK    4  A    between atoms: C_9  and  C_10
REMARK                            x       y       z     vdW  Elec       q    Type
REMARK                         _______ _______ _______ _____ _____    ______ ____
ROOT
ATOM      1  C   UNL     1      46.239   2.062   8.006  0.00  0.00    +0.000 A 
ATOM      2  C   UNL     1      46.419   3.392   7.663  0.00  0.00    +0.000 A 
ATOM      3  C   UNL     1      45.594   4.354   8.253  0.00  0.00    +0.000 A 
ATOM      4  C   UNL     1      44.614   3.979   9.184  0.00  0.00    +0.000 A 
ATOM      5  C   UNL     1      44.531   2.613   9.452  0.00  0.00    +0.000 A 
ATOM      6  N   UNL     1      45.305   1.640   8.901  0.00  0.00    +0.000 NA
ENDROOT
BRANCH   1   8
ATOM      7  N   UNL     1      46.765  -0.307   7.653  0.00  0.00    +0.000 N 
ATOM      8  C   UNL     1      47.059   0.993   7.357  0.00  0.00    +0.000 C 
ATOM      9  O   UNL     1      47.963   1.256   6.553  0.00  0.00    +0.000 OA
ATOM     10  H   UNL     1      47.261  -1.016   7.138  0.00  0.00    +0.000 HD
ATOM     11  H   UNL     1      45.883  -0.547   8.096  0.00  0.00    +0.000 HD
ENDBRANCH   1   8
BRANCH   4  12
ATOM     12  N   UNL     1      43.745   4.938   9.723  0.00  0.00    +0.000 N 
ATOM     13  H   UNL     1      42.880   5.039   9.190  0.00  0.00    +0.000 HD
BRANCH  12  14
ATOM     14  C   UNL     1      43.532   4.932  11.170  0.00  0.00    +0.000 C 
BRANCH  14  15
ATOM     15  C   UNL     1      44.782   5.377  11.889  0.00  0.00    +0.000 A 
ATOM     16  C   UNL     1      45.279   4.635  12.973  0.00  0.00    +0.000 A 
ATOM     17  C   UNL     1      46.497   4.972  13.564  0.00  0.00    +0.000 A 
ATOM     18  C   UNL     1      47.229   6.057  13.084  0.00  0.00    +0.000 A 
ATOM     19  C   UNL     1      46.731   6.821  12.029  0.00  0.00    +0.000 A 
ATOM     20  C   UNL     1      45.511   6.487  11.438  0.00  0.00    +0.000 A 
ENDBRANCH  14  15
ENDBRANCH  12  14
ENDBRANCH   4  12
TORSDOF 4
ENDMDL
MODEL 3
REMARK VINA RESULT:    -7.281      2.172      2.717
REMARK INTER + INTRA:          -9.365
REMARK INTER:                  -8.935
REMARK INTRA:                  -0.430
REMARK UNBOUND:                -0.382
REMARK  Name = 
REMARK  4 active torsions:
REMARK  status: ('A' for Active; 'I' for Inactive)
REMARK    1  A    between atoms: C_2  and  C_4
REMARK    2  A    between atoms: C_7  and  N_8
REMARK    3  A    between atoms: N_8  and  C_9
REMARK    4  A    between atoms: C_9  and  C_10
REMARK                            x       y       z     vdW  Elec       q    Type
REMARK                         _______ _______ _______ _____ _____    ______ ____
ROOT
ATOM      1  C   UNL     1      45.622   6.689  12.535  0.00  0.00    +0.000 A 
ATOM      2  C   UNL     1      45.075   6.586  11.267  0.00  0.00    +0.000 A 
ATOM      3  C   UNL     1      44.856   5.313  10.732  0.00  0.00    +0.000 A 
ATOM      4  C   UNL     1      45.170   4.165  11.474  0.00  0.00    +0.000 A 
ATOM      5  C   UNL     1      45.710   4.395  12.739  0.00  0.00    +0.000 A 
ATOM      6  N   UNL     1      45.947   5.610  13.299  0.00  0.00    +0.000 NA
ENDROOT
BRANCH   1   8
ATOM      7  N   UNL     1      46.993   8.127  13.973  0.00  0.00    +0.000 N 
ATOM      8  C   UNL     1      45.927   8.029  13.124  0.00  0.00    +0.000 C 
ATOM      9  O   UNL     1      45.265   9.036  12.844  0.00  0.00    +0.000 OA
ATOM     10  H   UNL     1      47.244   9.050  14.286  0.00  0.00    +0.000 HD
ATOM     11  H   UNL     1      47.689   7.388  14.013  0.00  0.00    +0.000 HD
ENDBRANCH   1   8
BRANCH   4  12
ATOM     12  N   UNL     1      45.011   2.891  10.909  0.00  0.00    +0.000 N 
ATOM     13  H   UNL     1      44.696   2.191  11.582  0.00  0.00    +0.000 HD
BRANCH  12  14
ATOM     14  C   UNL     1      44.331   2.795   9.618  0.00  0.00    +0.000 C 
BRANCH  14  15
ATOM     15  C   UNL     1      45.331   2.566   8.510  0.00  0.00    +0.000 A 
ATOM     16  C   UNL     1      45.672   3.611   7.636  0.00  0.00    +0.000 A 
ATOM     17  C   UNL     1      46.682   3.441   6.688  0.00  0.00    +0.000 A 
ATOM     18  C   UNL     1      47.358   2.226   6.600  0.00  0.00    +0.000 A 
ATOM     19  C   UNL     1      47.007   1.170   7.440  0.00  0.00    +0.000 A 
ATOM     20  C   UNL     1      45.995   1.337   8.388  0.00  0.00    +0.000 A 
ENDBRANCH  14  15
ENDBRANCH  12  14
ENDBRANCH   4  12
TORSDOF 4
ENDMDL
MODEL 4
REMARK VINA RESULT:    -7.184      1.357      1.997
REMARK INTER + INTRA:          -9.245
REMARK INTER:                  -8.830
REMARK INTRA:                  -0.416
REMARK UNBOUND:                -0.382
REMARK  Name = 
REMARK  4 active torsions:
REMARK  status: ('A' for Active; 'I' for Inactive)
REMARK    1  A    between atoms: C_2  and  C_4
REMARK    2  A    between atoms: C_7  and  N_8
REMARK    3  A    between atoms: N_8  and  C_9
REMARK    4  A    between atoms: C_9  and  C_10
REMARK                            x       y       z     vdW  Elec       q    Type
REMARK                         _______ _______ _______ _____ _____    ______ ____
ROOT
ATOM      1  C   UNL     1      46.620   5.435  12.953  0.00  0.00    +0.000 A 
ATOM      2  C   UNL     1      46.114   4.163  13.167  0.00  0.00    +0.000 A 
ATOM      3  C   UNL     1      45.317   3.582  12.176  0.00  0.00    +0.000 A 
ATOM      4  C   UNL     1      45.049   4.270  10.984  0.00  0.00    +0.000 A 
ATOM      5  C   UNL     1      45.617   5.539  10.880  0.00  0.00    +0.000 A 
ATOM      6  N   UNL     1      46.392   6.148  11.816  0.00  0.00    +0.000 NA
ENDROOT
BRANCH   1   8
ATOM      7  N   UNL     1      47.377   7.481  14.072  0.00  0.00    +0.000 N 
ATOM      8  C   UNL     1      47.429   6.117  14.009  0.00  0.00    +0.000 C 
ATOM      9  O   UNL     1      48.110   5.485  14.826  0.00  0.00    +0.000 OA
ATOM     10  H   UNL     1      47.849   7.920  14.845  0.00  0.00    +0.000 HD
ATOM     11  H   UNL     1      46.642   7.991  13.591  0.00  0.00    +0.000 HD
ENDBRANCH   1   8
BRANCH   4  12
ATOM     12  N   UNL     1      44.195   3.713  10.021  0.00  0.00    +0.000 N 
ATOM     13  H   UNL     1      43.209   3.760  10.285  0.00  0.00    +0.000 HD
BRANCH  12  14
ATOM     14  C   UNL     1      44.432   4.050   8.618  0.00  0.00    +0.000 C 
BRANCH  14  15
ATOM     15  C   UNL     1      45.427   3.093   8.005  0.00  0.00    +0.000 A 
ATOM     16  C   UNL     1      46.318   3.535   7.015  0.00  0.00    +0.000 A 
ATOM     17  C   UNL     1      47.317   2.690   6.531  0.00  0.00    +0.000 A 
ATOM     18  C   UNL     1      47.433   1.393   7.029  0.00  0.00    +0.000 A 
ATOM     19  C   UNL     1      46.535   0.932   7.989  0.00  0.00    +0.000 A 
ATOM     20  C   UNL     1      45.532   1.775   8.472  0.00  0.00    +0.000 A 
ENDBRANCH  14  15
ENDBRANCH  12  14
ENDBRANCH   4  12
TORSDOF 4
ENDMDL
MODEL 5
REMARK VINA RESULT:    -5.763      2.947      7.158
REMARK INTER + INTRA:          -7.493
REMARK INTER:                  -7.187
REMARK INTRA:                  -0.306
REMARK UNBOUND:                -0.382
REMARK  Name = 
REMARK  4 active torsions:
REMARK  status: ('A' for Active; 'I' for Inactive)
REMARK    1  A    between atoms: C_2  and  C_4
REMARK    2  A    between atoms: C_7  and  N_8
REMARK    3  A    between atoms: N_8  and  C_9
REMARK    4  A    between atoms: C_9  and  C_10
REMARK                            x       y       z     vdW  Elec       q    Type
REMARK                         _______ _______ _______ _____ _____    ______ ____
ROOT
ATOM      1  C   UNL     1      45.023   4.264  11.796  0.00  0.00    +0.000 A 
ATOM      2  C   UNL     1      45.217   5.596  12.121  0.00  0.00    +0.000 A 
ATOM      3  C   UNL     1      45.988   5.908  13.245  0.00  0.00    +0.000 A 
ATOM      4  C   UNL     1      46.565   4.889  14.017  0.00  0.00    +0.000 A 
ATOM      5  C   UNL     1      46.303   3.588  13.589  0.00  0.00    +0.000 A 
ATOM      6  N   UNL     1      45.557   3.235  12.509  0.00  0.00    +0.000 NA
ENDROOT
BRANCH   1   8
ATOM      7  N   UNL     1      44.262   4.622   9.493  0.00  0.00    +0.000 N 
ATOM      8  C   UNL     1      44.158   3.883  10.637  0.00  0.00    +0.000 C 
ATOM      9  O   UNL     1      43.385   2.918  10.683  0.00  0.00    +0.000 OA
ATOM     10  H   UNL     1      43.746   4.297   8.692  0.00  0.00    +0.000 HD
ATOM     11  H   UNL     1      45.055   5.240   9.349  0.00  0.00    +0.000 HD
ENDBRANCH   1   8
BRANCH   4  12
ATOM     12  N   UNL     1      47.281   5.203  15.181  0.00  0.00    +0.000 N 
ATOM     13  H   UNL     1      47.177   6.178  15.465  0.00  0.00    +0.000 HD
BRANCH  12  14
ATOM     14  C   UNL     1      47.210   4.267  16.302  0.00  0.00    +0.000 C 
BRANCH  14  15
ATOM     15  C   UNL     1      48.594   3.816  16.703  0.00  0.00    +0.000 A 
ATOM     16  C   UNL     1      49.532   4.746  17.179  0.00  0.00    +0.000 A 
ATOM     17  C   UNL     1      50.770   4.320  17.663  0.00  0.00    +0.000 A 
ATOM     18  C   UNL     1      51.085   2.963  17.672  0.00  0.00    +0.000 A 
ATOM     19  C   UNL     1      50.175   2.032  17.173  0.00  0.00    +0.000 A 
ATOM     20  C   UNL     1      48.937   2.457  16.685  0.00  0.00    +0.000 A 
ENDBRANCH  14  15
ENDBRANCH  12  14
ENDBRANCH   4  12
TORSDOF 4
ENDMDL
MODEL 6
REMARK VINA RESULT:    -5.625      3.618      5.494
REMARK INTER + INTRA:          -7.322
REMARK INTER:                  -7.033
REMARK INTRA:                  -0.289
REMARK UNBOUND:                -0.382
REMARK  Name = 
REMARK  4 active torsions:
REMARK  status: ('A' for Active; 'I' for Inactive)
REMARK    1  A    between atoms: C_2  and  C_4
REMARK    2  A    between atoms: C_7  and  N_8
REMARK    3  A    between atoms: N_8  and  C_9
REMARK    4  A    between atoms: C_9  and  C_10
REMARK                            x       y       z     vdW  Elec       q    Type
REMARK                         _______ _______ _______ _____ _____    ______ ____
ROOT
ATOM      1  C   UNL     1      49.849   2.732  17.098  0.00  0.00    +0.000 A 
ATOM      2  C   UNL     1      49.498   4.018  17.477  0.00  0.00    +0.000 A 
ATOM      3  C   UNL     1      48.372   4.606  16.892  0.00  0.00    +0.000 A 
ATOM      4  C   UNL     1      47.607   3.900  15.953  0.00  0.00    +0.000 A 
ATOM      5  C   UNL     1      48.055   2.613  15.656  0.00  0.00    +0.000 A 
ATOM      6  N   UNL     1      49.144   2.002  16.191  0.00  0.00    +0.000 NA
ENDROOT
BRANCH   1   8
ATOM      7  N   UNL     1      51.897   2.843  18.441  0.00  0.00    +0.000 N 
ATOM      8  C   UNL     1      51.077   2.086  17.653  0.00  0.00    +0.000 C 
ATOM      9  O   UNL     1      51.348   0.897  17.440  0.00  0.00    +0.000 OA
ATOM     10  H   UNL     1      52.667   2.370  18.885  0.00  0.00    +0.000 HD
ATOM     11  H   UNL     1      51.569   3.722  18.830  0.00  0.00    +0.000 HD
ENDBRANCH   1   8
BRANCH   4  12
ATOM     12  N   UNL     1      46.518   4.517  15.320  0.00  0.00    +0.000 N 
ATOM     13  H   UNL     1      46.032   5.185  15.920  0.00  0.00    +0.000 HD
BRANCH  12  14
ATOM     14  C   UNL     1      46.705   5.001  13.953  0.00  0.00    +0.000 C 
BRANCH  14  15
ATOM     15  C   UNL     1      45.484   4.702  13.115  0.00  0.00    +0.000 A 
ATOM     16  C   UNL     1      45.370   3.475  12.442  0.00  0.00    +0.000 A 
ATOM     17  C   UNL     1      44.195   3.145  11.765  0.00  0.00    +0.000 A 
ATOM     18  C   UNL     1      43.124   4.037  11.751  0.00  0.00    +0.000 A 
ATOM     19  C   UNL     1      43.237   5.271  12.389  0.00  0.00    +0.000 A 
ATOM     20  C   UNL     1      44.413   5.605  13.064  0.00  0.00    +0.000 A 
ENDBRANCH  14  15
ENDBRANCH  12  14
ENDBRANCH   4  12
TORSDOF 4
ENDMDL
MODEL 7
REMARK VINA RESULT:    -5.573      3.275      6.263
REMARK INTER + INTRA:          -7.258
REMARK INTER:                  -6.827
REMARK INTRA:                  -0.431
REMARK UNBOUND:                -0.382
REMARK  Name = 
REMARK  4 active torsions:
REMARK  status: ('A' for Active; 'I' for Inactive)
REMARK    1  A    between atoms: C_2  and  C_4
REMARK    2  A    between atoms: C_7  and  N_8
REMARK    3  A    between atoms: N_8  and  C_9
REMARK    4  A    between atoms: C_9  and  C_10
REMARK                            x       y       z     vdW  Elec       q    Type
REMARK                         _______ _______ _______ _____ _____    ______ ____
ROOT
ATOM      1  C   UNL     1      44.836   3.900  11.698  0.00  0.00    +0.000 A 
ATOM      2  C   UNL     1      45.145   5.060  11.008  0.00  0.00    +0.000 A 
ATOM      3  C   UNL     1      45.915   6.037  11.648  0.00  0.00    +0.000 A 
ATOM      4  C   UNL     1      46.375   5.836  12.957  0.00  0.00    +0.000 A 
ATOM      5  C   UNL     1      46.004   4.627  13.546  0.00  0.00    +0.000 A 
ATOM      6  N   UNL     1      45.254   3.652  12.969  0.00  0.00    +0.000 NA
ENDROOT
BRANCH   1   8
ATOM      7  N   UNL     1      44.406   2.264   9.922  0.00  0.00    +0.000 N 
ATOM      8  C   UNL     1      43.968   2.855  11.074  0.00  0.00    +0.000 C 
ATOM      9  O   UNL     1      42.896   2.502  11.582  0.00  0.00    +0.000 OA
ATOM     10  H   UNL     1      43.859   1.498   9.566  0.00  0.00    +0.000 HD
ATOM     11  H   UNL     1      45.376   2.351   9.637  0.00  0.00    +0.000 HD
ENDBRANCH   1   8
BRANCH   4  12
ATOM     12  N   UNL     1      47.090   6.844  13.619  0.00  0.00    +0.000 N 
ATOM     13  H   UNL     1      46.848   6.923  14.608  0.00  0.00    +0.000 HD
BRANCH  12  14
ATOM     14  C   UNL     1      48.528   6.941  13.370  0.00  0.00    +0.000 C 
BRANCH  14  15
ATOM     15  C   UNL     1      48.853   8.231  12.654  0.00  0.00    +0.000 A 
ATOM     16  C   UNL     1      50.115   8.416  12.067  0.00  0.00    +0.000 A 
ATOM     17  C   UNL     1      50.382   9.553  11.303  0.00  0.00    +0.000 A 
ATOM     18  C   UNL     1      49.392  10.518  11.121  0.00  0.00    +0.000 A 
ATOM     19  C   UNL     1      48.146  10.361  11.725  0.00  0.00    +0.000 A 
ATOM     20  C   UNL     1      47.878   9.225  12.493  0.00  0.00    +0.000 A 
ENDBRANCH  14  15
ENDBRANCH  12  14
ENDBRANCH   4  12
TORSDOF 4
ENDMDL
MODEL 8
REMARK VINA RESULT:    -5.562      3.354      5.928
REMARK INTER + INTRA:          -7.245
REMARK INTER:                  -6.911
REMARK INTRA:                  -0.334
REMARK UNBOUND:                -0.382
REMARK  Name = 
REMARK  4 active torsions:
REMARK  status: ('A' for Active; 'I' for Inactive)
REMARK    1  A    between atoms: C_2  and  C_4
REMARK    2  A    between atoms: C_7  and  N_8
REMARK    3  A    between atoms: N_8  and  C_9
REMARK    4  A    between atoms: C_9  and  C_10
REMARK                            x       y       z     vdW  Elec       q    Type
REMARK                         _______ _______ _______ _____ _____    ______ ____
ROOT
ATOM      1  C   UNL     1      44.460   4.109  11.749  0.00  0.00    +0.000 A 
ATOM      2  C   UNL     1      45.448   4.023  12.715  0.00  0.00    +0.000 A 
ATOM      3  C   UNL     1      45.988   5.207  13.229  0.00  0.00    +0.000 A 
ATOM      4  C   UNL     1      45.525   6.453  12.783  0.00  0.00    +0.000 A 
ATOM      5  C   UNL     1      44.525   6.411  11.812  0.00  0.00    +0.000 A 
ATOM      6  N   UNL     1      43.973   5.290  11.279  0.00  0.00    +0.000 NA
ENDROOT
BRANCH   1   8
ATOM      7  N   UNL     1      44.514   2.371  10.019  0.00  0.00    +0.000 N 
ATOM      8  C   UNL     1      43.895   2.870  11.130  0.00  0.00    +0.000 C 
ATOM      9  O   UNL     1      42.914   2.286  11.608  0.00  0.00    +0.000 OA
ATOM     10  H   UNL     1      44.182   1.487   9.671  0.00  0.00    +0.000 HD
ATOM     11  H   UNL     1      45.449   2.678   9.769  0.00  0.00    +0.000 HD
ENDBRANCH   1   8
BRANCH   4  12
ATOM     12  N   UNL     1      46.115   7.636  13.251  0.00  0.00    +0.000 N 
ATOM     13  H   UNL     1      46.876   7.470  13.911  0.00  0.00    +0.000 HD
BRANCH  12  14
ATOM     14  C   UNL     1      46.417   8.683  12.276  0.00  0.00    +0.000 C 
BRANCH  14  15
ATOM     15  C   UNL     1      47.905   8.760  12.028  0.00  0.00    +0.000 A 
ATOM     16  C   UNL     1      48.668   7.585  11.930  0.00  0.00    +0.000 A 
ATOM     17  C   UNL     1      50.019   7.645  11.582  0.00  0.00    +0.000 A 
ATOM     18  C   UNL     1      50.621   8.877  11.333  0.00  0.00    +0.000 A 
ATOM     19  C   UNL     1      49.881  10.052  11.458  0.00  0.00    +0.000 A 
ATOM     20  C   UNL     1      48.531   9.995  11.809  0.00  0.00    +0.000 A 
ENDBRANCH  14  15
ENDBRANCH  12  14
ENDBRANCH   4  12
TORSDOF 4
ENDMDL
MODEL 9
REMARK VINA RESULT:    -5.549      2.737      7.286
REMARK INTER + INTRA:          -7.228
REMARK INTER:                  -6.913
REMARK INTRA:                  -0.315
REMARK UNBOUND:                -0.382
REMARK  Name = 
REMARK  4 active torsions:
REMARK  status: ('A' for Active; 'I' for Inactive)
REMARK    1  A    between atoms: C_2  and  C_4
REMARK    2  A    between atoms: C_7  and  N_8
REMARK    3  A    between atoms: N_8  and  C_9
REMARK    4  A    between atoms: C_9  and  C_10
REMARK                            x       y       z     vdW  Elec       q    Type
REMARK                         _______ _______ _______ _____ _____    ______ ____
ROOT
ATOM      1  C   UNL     1      45.236   4.271  10.304  0.00  0.00    +0.000 A 
ATOM      2  C   UNL     1      44.907   3.241  11.170  0.00  0.00    +0.000 A 
ATOM      3  C   UNL     1      45.144   3.413  12.538  0.00  0.00    +0.000 A 
ATOM      4  C   UNL     1      45.691   4.611  13.021  0.00  0.00    +0.000 A 
ATOM      5  C   UNL     1      45.975   5.575  12.055  0.00  0.00    +0.000 A 
ATOM      6  N   UNL     1      45.768   5.454  10.717  0.00  0.00    +0.000 NA
ENDROOT
BRANCH   1   8
ATOM      7  N   UNL     1      44.159   3.172   8.395  0.00  0.00    +0.000 N 
ATOM      8  C   UNL     1      45.053   4.109   8.829  0.00  0.00    +0.000 C 
ATOM      9  O   UNL     1      45.662   4.810   8.011  0.00  0.00    +0.000 OA
ATOM     10  H   UNL     1      43.976   3.140   7.405  0.00  0.00    +0.000 HD
ATOM     11  H   UNL     1      43.476   2.777   9.034  0.00  0.00    +0.000 HD
ENDBRANCH   1   8
BRANCH   4  12
ATOM     12  N   UNL     1      45.989   4.754  14.383  0.00  0.00    +0.000 N 
ATOM     13  H   UNL     1      45.745   3.930  14.935  0.00  0.00    +0.000 HD
BRANCH  12  14
ATOM     14  C   UNL     1      47.286   5.325  14.744  0.00  0.00    +0.000 C 
BRANCH  14  15
ATOM     15  C   UNL     1      47.780   4.734  16.043  0.00  0.00    +0.000 A 
ATOM     16  C   UNL     1      48.582   5.495  16.908  0.00  0.00    +0.000 A 
ATOM     17  C   UNL     1      48.941   4.998  18.162  0.00  0.00    +0.000 A 
ATOM     18  C   UNL     1      48.509   3.735  18.562  0.00  0.00    +0.000 A 
ATOM     19  C   UNL     1      47.739   2.957  17.699  0.00  0.00    +0.000 A 
ATOM     20  C   UNL     1      47.381   3.450  16.442  0.00  0.00    +0.000 A 
ENDBRANCH  14  15
ENDBRANCH  12  14
ENDBRANCH   4  12
TORSDOF 4
ENDMDL
