MODEL 1
REMARK VINA RESULT:    -7.946      0.000      0.000
REMARK INTER + INTRA:         -13.191
REMARK INTER:                 -11.895
REMARK INTRA:                  -1.296
REMARK UNBOUND:                -1.296
REMARK  Name = 
REMARK  9 active torsions:
REMARK  status: ('A' for Active; 'I' for Inactive)
REMARK    1  A    between atoms: N_1  and  C_2
REMARK    2  A    between atoms: C_2  and  C_3
REMARK    3  A    between atoms: C_3  and  N_4
REMARK    4  A    between atoms: N_4  and  C_5
REMARK    5  A    between atoms: C_5  and  C_6
REMARK    6  A    between atoms: C_9  and  C_10
REMARK    7  A    between atoms: C_10  and  N_11
REMARK    8  A    between atoms: C_12  and  C_14
REMARK    9  A    between atoms: C_26  and  C_28
REMARK                            x       y       z     vdW  Elec       q    Type
REMARK                         _______ _______ _______ _____ _____    ______ ____
ROOT
ATOM      1  C   UNL     1      45.412   6.596  11.171  0.00  0.00    +0.000 A 
ATOM      2  C   UNL     1      46.761   6.257  11.334  0.00  0.00    +0.000 A 
ATOM      3  C   UNL     1      47.571   6.985  12.207  0.00  0.00    +0.000 A 
ATOM      4  C   UNL     1      47.037   8.047  12.946  0.00  0.00    +0.000 A 
ATOM      5  C   UNL     1      45.720   8.453  12.702  0.00  0.00    +0.000 A 
ATOM      6  C   UNL     1      44.913   7.733  11.823  0.00  0.00    +0.000 A 
ENDROOT
BRANCH   1   7
ATOM      7  C   UNL     1      44.518   5.778  10.279  0.00  0.00    +0.000 C 
BRANCH   7   8
ATOM      8  N   UNL     1      43.855   4.597  10.839  0.00  0.00    +0.000 N 
ATOM      9  C   UNL     1      44.002   3.321  10.263  0.00  0.00    +0.000 C 
ATOM     10  O   UNL     1      43.360   2.362  10.698  0.00  0.00    +0.000 OA
BRANCH   9  11
ATOM     11  C   UNL     1      44.956   3.090   9.187  0.00  0.00    +0.000 A 
ATOM     12  C   UNL     1      45.464   3.863   8.151  0.00  0.00    +0.000 A 
ATOM     13  C   UNL     1      46.392   3.085   7.418  0.00  0.00    +0.000 A 
ATOM     14  C   UNL     1      46.390   1.828   7.971  0.00  0.00    +0.000 A 
ATOM     15  N   UNL     1      45.498   1.829   9.007  0.00  0.00    +0.000 N 
ATOM     16  H   UNL     1      45.259   1.035   9.589  0.00  0.00    +0.000 HD
ENDBRANCH   9  11
BRANCH   8  17
ATOM     17  C   UNL     1      42.741   4.752  11.796  0.00  0.00    +0.000 C 
BRANCH  17  18
ATOM     18  C   UNL     1      43.139   4.472  13.263  0.00  0.00    +0.000 C 
BRANCH  18  19
ATOM     19  N   UNL     1      44.534   4.027  13.392  0.00  0.00    +0.000 NA
ATOM     20  H   UNL     1      45.090   4.481  12.667  0.00  0.00    +0.000 HD
ATOM     21  H   UNL     1      44.583   3.028  13.185  0.00  0.00    +0.000 HD
ENDBRANCH  18  19
ENDBRANCH  17  18
ENDBRANCH   8  17
ENDBRANCH   7   8
ENDBRANCH   1   7
BRANCH   4  22
ATOM     22  C   UNL     1      47.841   8.709  14.030  0.00  0.00    +0.000 C 
BRANCH  22  23
ATOM     23  N   UNL     1      48.045   7.858  15.168  0.00  0.00    +0.000 N 
ATOM     24  C   UNL     1      49.230   7.178  15.301  0.00  0.00    +0.000 C 
ATOM     25  O   UNL     1      50.157   7.326  14.507  0.00  0.00    +0.000 OA
ATOM     26  H   UNL     1      47.224   7.543  15.675  0.00  0.00    +0.000 HD
BRANCH  24  27
ATOM     27  C   UNL     1      49.368   6.313  16.476  0.00  0.00    +0.000 A 
ATOM     28  C   UNL     1      50.342   6.596  17.424  0.00  0.00    +0.000 A 
ATOM     29  S   UNL     1      50.333   5.526  18.751  0.00  0.00    +0.000 S 
ATOM     30  C   UNL     1      49.065   4.614  18.075  0.00  0.00    +0.000 A 
ATOM     31  N   UNL     1      48.584   3.511  18.708  0.00  0.00    +0.000 NA
ATOM     32  C   UNL     1      47.648   2.895  18.070  0.00  0.00    +0.000 A 
ATOM     33  N   UNL     1      47.143   3.284  16.855  0.00  0.00    +0.000 N 
ATOM     34  C   UNL     1      47.584   4.403  16.187  0.00  0.00    +0.000 A 
ATOM     35  O   UNL     1      47.087   4.748  15.118  0.00  0.00    +0.000 OA
ATOM     36  C   UNL     1      48.643   5.129  16.863  0.00  0.00    +0.000 A 
ATOM     37  H   UNL     1      46.409   2.760  16.407  0.00  0.00    +0.000 HD
ENDBRANCH  24  27
ENDBRANCH  22  23
ENDBRANCH   4  22
TORSDOF 9
ENDMDL
MODEL 2
REMARK VINA RESULT:    -7.760      2.245      2.616
REMARK INTER + INTRA:         -12.912
REMARK INTER:                 -12.271
REMARK INTRA:                  -0.641
REMARK UNBOUND:                -1.296
REMARK  Name = 
REMARK  9 active torsions:
REMARK  status: ('A' for Active; 'I' for Inactive)
REMARK    1  A    between atoms: N_1  and  C_2
REMARK    2  A    between atoms: C_2  and  C_3
REMARK    3  A    between atoms: C_3  and  N_4
REMARK    4  A    between atoms: N_4  and  C_5
REMARK    5  A    between atoms: C_5  and  C_6
REMARK    6  A    between atoms: C_9  and  C_10
REMARK    7  A    between atoms: C_10  and  N_11
REMARK    8  A    between atoms: C_12  and  C_14
REMARK    9  A    between atoms: C_26  and  C_28
REMARK                            x       y       z     vdW  Elec       q    Type
REMARK                         _______ _______ _______ _____ _____    ______ ____
ROOT
ATOM      1  C   UNL     1      46.422   5.679  12.298  0.00  0.00    +0.000 A 
ATOM      2  C   UNL     1      46.677   4.885  13.424  0.00  0.00    +0.000 A 
ATOM      3  C   UNL     1      47.515   5.350  14.439  0.00  0.00    +0.000 A 
ATOM      4  C   UNL     1      48.089   6.624  14.353  0.00  0.00    +0.000 A 
ATOM      5  C   UNL     1      47.921   7.370  13.182  0.00  0.00    +0.000 A 
ATOM      6  C   UNL     1      47.093   6.903  12.163  0.00  0.00    +0.000 A 
ENDROOT
BRANCH   1   7
ATOM      7  C   UNL     1      45.472   5.210  11.230  0.00  0.00    +0.000 C 
BRANCH   7   8
ATOM      8  N   UNL     1      44.527   4.136  11.550  0.00  0.00    +0.000 N 
ATOM      9  C   UNL     1      44.211   3.124  10.625  0.00  0.00    +0.000 C 
ATOM     10  O   UNL     1      43.344   2.288  10.886  0.00  0.00    +0.000 OA
BRANCH   9  11
ATOM     11  C   UNL     1      44.940   3.004   9.369  0.00  0.00    +0.000 A 
ATOM     12  C   UNL     1      45.106   3.816   8.256  0.00  0.00    +0.000 A 
ATOM     13  C   UNL     1      45.959   3.157   7.337  0.00  0.00    +0.000 A 
ATOM     14  C   UNL     1      46.249   1.926   7.869  0.00  0.00    +0.000 A 
ATOM     15  N   UNL     1      45.603   1.826   9.070  0.00  0.00    +0.000 N 
ATOM     16  H   UNL     1      45.606   1.020   9.684  0.00  0.00    +0.000 HD
ENDBRANCH   9  11
BRANCH   8  17
ATOM     17  C   UNL     1      43.611   4.270  12.702  0.00  0.00    +0.000 C 
BRANCH  17  18
ATOM     18  C   UNL     1      42.992   5.679  12.842  0.00  0.00    +0.000 C 
BRANCH  18  19
ATOM     19  N   UNL     1      42.048   5.989  11.760  0.00  0.00    +0.000 NA
ATOM     20  H   UNL     1      42.398   6.795  11.242  0.00  0.00    +0.000 HD
ATOM     21  H   UNL     1      41.164   6.294  12.169  0.00  0.00    +0.000 HD
ENDBRANCH  18  19
ENDBRANCH  17  18
ENDBRANCH   8  17
ENDBRANCH   7   8
ENDBRANCH   1   7
BRANCH   4  22
ATOM     22  C   UNL     1      48.828   7.214  15.522  0.00  0.00    +0.000 C 
BRANCH  22  23
ATOM     23  N   UNL     1      49.919   6.391  15.962  0.00  0.00    +0.000 N 
ATOM     24  C   UNL     1      49.837   5.749  17.173  0.00  0.00    +0.000 C 
ATOM     25  O   UNL     1      48.826   5.800  17.868  0.00  0.00    +0.000 OA
ATOM     26  H   UNL     1      50.826   6.541  15.531  0.00  0.00    +0.000 HD
BRANCH  24  27
ATOM     27  C   UNL     1      50.992   4.940  17.571  0.00  0.00    +0.000 A 
ATOM     28  C   UNL     1      52.128   5.565  18.068  0.00  0.00    +0.000 A 
ATOM     29  S   UNL     1      53.357   4.480  18.533  0.00  0.00    +0.000 S 
ATOM     30  C   UNL     1      52.435   3.139  18.033  0.00  0.00    +0.000 A 
ATOM     31  N   UNL     1      52.929   1.876  18.132  0.00  0.00    +0.000 NA
ATOM     32  C   UNL     1      52.141   0.959  17.686  0.00  0.00    +0.000 A 
ATOM     33  N   UNL     1      50.898   1.187  17.153  0.00  0.00    +0.000 N 
ATOM     34  C   UNL     1      50.349   2.444  17.050  0.00  0.00    +0.000 A 
ATOM     35  O   UNL     1      49.219   2.614  16.602  0.00  0.00    +0.000 OA
ATOM     36  C   UNL     1      51.201   3.515  17.534  0.00  0.00    +0.000 A 
ATOM     37  H   UNL     1      50.328   0.425  16.821  0.00  0.00    +0.000 HD
ENDBRANCH  24  27
ENDBRANCH  22  23
ENDBRANCH   4  22
TORSDOF 9
ENDMDL
MODEL 3
REMARK VINA RESULT:    -7.056      3.165      4.158
REMARK INTER + INTRA:         -11.858
REMARK INTER:                 -10.534
REMARK INTRA:                  -1.324
REMARK UNBOUND:                -1.296
REMARK  Name = 
REMARK  9 active torsions:
REMARK  status: ('A' for Active; 'I' for Inactive)
REMARK    1  A    between atoms: N_1  and  C_2
REMARK    2  A    between atoms: C_2  and  C_3
REMARK    3  A    between atoms: C_3  and  N_4
REMARK    4  A    between atoms: N_4  and  C_5
REMARK    5  A    between atoms: C_5  and  C_6
REMARK    6  A    between atoms: C_9  and  C_10
REMARK    7  A    between atoms: C_10  and  N_11
REMARK    8  A    between atoms: C_12  and  C_14
REMARK    9  A    between atoms: C_26  and  C_28
REMARK                            x       y       z     vdW  Elec       q    Type
REMARK                         _______ _______ _______ _____ _____    ______ ____
ROOT
ATOM      1  C   UNL     1      46.823   5.493  13.112  0.00  0.00    +0.000 A 
ATOM      2  C   UNL     1      46.550   4.319  13.826  0.00  0.00    +0.000 A 
ATOM      3  C   UNL     1      47.118   4.112  15.084  0.00  0.00    +0.000 A 
ATOM      4  C   UNL     1      47.947   5.085  15.655  0.00  0.00    +0.000 A 
ATOM      5  C   UNL     1      48.303   6.206  14.897  0.00  0.00    +0.000 A 
ATOM      6  C   UNL     1      47.745   6.410  13.637  0.00  0.00    +0.000 A 
ENDROOT
BRANCH   1   7
ATOM      7  C   UNL     1      46.166   5.751  11.783  0.00  0.00    +0.000 C 
BRANCH   7   8
ATOM      8  N   UNL     1      44.751   6.133  11.759  0.00  0.00    +0.000 N 
ATOM      9  C   UNL     1      43.822   5.490  10.919  0.00  0.00    +0.000 C 
ATOM     10  O   UNL     1      42.659   5.893  10.851  0.00  0.00    +0.000 OA
BRANCH   9  11
ATOM     11  C   UNL     1      44.195   4.302  10.163  0.00  0.00    +0.000 A 
ATOM     12  C   UNL     1      44.364   2.960  10.475  0.00  0.00    +0.000 A 
ATOM     13  C   UNL     1      44.723   2.263   9.296  0.00  0.00    +0.000 A 
ATOM     14  C   UNL     1      44.835   3.195   8.295  0.00  0.00    +0.000 A 
ATOM     15  N   UNL     1      44.554   4.420   8.831  0.00  0.00    +0.000 N 
ATOM     16  H   UNL     1      44.581   5.306   8.341  0.00  0.00    +0.000 HD
ENDBRANCH   9  11
BRANCH   8  17
ATOM     17  C   UNL     1      44.319   7.422  12.337  0.00  0.00    +0.000 C 
BRANCH  17  18
ATOM     18  C   UNL     1      44.500   8.623  11.381  0.00  0.00    +0.000 C 
BRANCH  18  19
ATOM     19  N   UNL     1      43.248   9.008  10.716  0.00  0.00    +0.000 NA
ATOM     20  H   UNL     1      43.139  10.019  10.786  0.00  0.00    +0.000 HD
ATOM     21  H   UNL     1      42.463   8.613  11.236  0.00  0.00    +0.000 HD
ENDBRANCH  18  19
ENDBRANCH  17  18
ENDBRANCH   8  17
ENDBRANCH   7   8
ENDBRANCH   1   7
BRANCH   4  22
ATOM     22  C   UNL     1      48.401   4.965  17.083  0.00  0.00    +0.000 C 
BRANCH  22  23
ATOM     23  N   UNL     1      49.726   4.424  17.200  0.00  0.00    +0.000 N 
ATOM     24  C   UNL     1      50.372   4.470  18.411  0.00  0.00    +0.000 C 
ATOM     25  O   UNL     1      49.824   4.903  19.423  0.00  0.00    +0.000 OA
ATOM     26  H   UNL     1      50.263   4.301  16.347  0.00  0.00    +0.000 HD
BRANCH  24  27
ATOM     27  C   UNL     1      51.727   3.917  18.459  0.00  0.00    +0.000 A 
ATOM     28  C   UNL     1      52.763   4.685  18.974  0.00  0.00    +0.000 A 
ATOM     29  S   UNL     1      54.262   3.875  19.008  0.00  0.00    +0.000 S 
ATOM     30  C   UNL     1      53.590   2.491  18.280  0.00  0.00    +0.000 A 
ATOM     31  N   UNL     1      54.362   1.408  17.996  0.00  0.00    +0.000 NA
ATOM     32  C   UNL     1      53.734   0.443  17.416  0.00  0.00    +0.000 A 
ATOM     33  N   UNL     1      52.399   0.458  17.098  0.00  0.00    +0.000 N 
ATOM     34  C   UNL     1      51.576   1.522  17.383  0.00  0.00    +0.000 A 
ATOM     35  O   UNL     1      50.377   1.492  17.120  0.00  0.00    +0.000 OA
ATOM     36  C   UNL     1      52.238   2.639  18.033  0.00  0.00    +0.000 A 
ATOM     37  H   UNL     1      51.966  -0.330  16.644  0.00  0.00    +0.000 HD
ENDBRANCH  24  27
ENDBRANCH  22  23
ENDBRANCH   4  22
TORSDOF 9
ENDMDL
MODEL 4
REMARK VINA RESULT:    -6.820      3.134      8.257
REMARK INTER + INTRA:         -11.506
REMARK INTER:                 -10.192
REMARK INTRA:                  -1.314
REMARK UNBOUND:                -1.296
REMARK  Name = 
REMARK  9 active torsions:
REMARK  status: ('A' for Active; 'I' for Inactive)
REMARK    1  A    between atoms: N_1  and  C_2
REMARK    2  A    between atoms: C_2  and  C_3
REMARK    3  A    between atoms: C_3  and  N_4
REMARK    4  A    between atoms: N_4  and  C_5
REMARK    5  A    between atoms: C_5  and  C_6
REMARK    6  A    between atoms: C_9  and  C_10
REMARK    7  A    between atoms: C_10  and  N_11
REMARK    8  A    between atoms: C_12  and  C_14
REMARK    9  A    between atoms: C_26  and  C_28
REMARK                            x       y       z     vdW  Elec       q    Type
REMARK                         _______ _______ _______ _____ _____    ______ ____
ROOT
ATOM      1  C   UNL     1      49.925   6.617  15.968  0.00  0.00    +0.000 A 
ATOM      2  C   UNL     1      48.618   6.281  15.590  0.00  0.00    +0.000 A 
ATOM      3  C   UNL     1      48.096   6.734  14.378  0.00  0.00    +0.000 A 
ATOM      4  C   UNL     1      48.880   7.510  13.516  0.00  0.00    +0.000 A 
ATOM      5  C   UNL     1      50.144   7.934  13.942  0.00  0.00    +0.000 A 
ATOM      6  C   UNL     1      50.663   7.491  15.157  0.00  0.00    +0.000 A 
ENDROOT
BRANCH   1   7
ATOM      7  C   UNL     1      50.515   6.082  17.244  0.00  0.00    +0.000 C 
BRANCH   7   8
ATOM      8  N   UNL     1      49.770   5.065  17.992  0.00  0.00    +0.000 N 
ATOM      9  C   UNL     1      48.906   5.404  19.050  0.00  0.00    +0.000 C 
ATOM     10  O   UNL     1      48.364   4.524  19.721  0.00  0.00    +0.000 OA
BRANCH   9  11
ATOM     11  C   UNL     1      48.585   6.796  19.336  0.00  0.00    +0.000 A 
ATOM     12  C   UNL     1      49.126   7.773  20.161  0.00  0.00    +0.000 A 
ATOM     13  C   UNL     1      48.380   8.966  20.001  0.00  0.00    +0.000 A 
ATOM     14  C   UNL     1      47.354   8.686  19.134  0.00  0.00    +0.000 A 
ATOM     15  N   UNL     1      47.460   7.372  18.769  0.00  0.00    +0.000 N 
ATOM     16  H   UNL     1      46.828   6.870  18.158  0.00  0.00    +0.000 HD
ENDBRANCH   9  11
BRANCH   8  17
ATOM     17  C   UNL     1      50.160   3.643  17.905  0.00  0.00    +0.000 C 
BRANCH  17  18
ATOM     18  C   UNL     1      49.215   2.792  17.027  0.00  0.00    +0.000 C 
BRANCH  18  19
ATOM     19  N   UNL     1      49.933   1.765  16.259  0.00  0.00    +0.000 NA
ATOM     20  H   UNL     1      49.304   1.391  15.548  0.00  0.00    +0.000 HD
ATOM     21  H   UNL     1      50.144   0.979  16.875  0.00  0.00    +0.000 HD
ENDBRANCH  18  19
ENDBRANCH  17  18
ENDBRANCH   8  17
ENDBRANCH   7   8
ENDBRANCH   1   7
BRANCH   4  22
ATOM     22  C   UNL     1      48.404   7.836  12.128  0.00  0.00    +0.000 C 
BRANCH  22  23
ATOM     23  N   UNL     1      47.688   6.752  11.518  0.00  0.00    +0.000 N 
ATOM     24  C   UNL     1      46.322   6.825  11.400  0.00  0.00    +0.000 C 
ATOM     25  O   UNL     1      45.693   7.824  11.741  0.00  0.00    +0.000 OA
ATOM     26  H   UNL     1      48.151   5.850  11.467  0.00  0.00    +0.000 HD
BRANCH  24  27
ATOM     27  C   UNL     1      45.650   5.678  10.784  0.00  0.00    +0.000 A 
ATOM     28  C   UNL     1      45.719   5.500   9.409  0.00  0.00    +0.000 A 
ATOM     29  S   UNL     1      44.930   4.092   8.862  0.00  0.00    +0.000 S 
ATOM     30  C   UNL     1      44.420   3.701  10.438  0.00  0.00    +0.000 A 
ATOM     31  N   UNL     1      43.659   2.599  10.673  0.00  0.00    +0.000 NA
ATOM     32  C   UNL     1      43.315   2.441  11.904  0.00  0.00    +0.000 A 
ATOM     33  N   UNL     1      43.667   3.282  12.929  0.00  0.00    +0.000 N 
ATOM     34  C   UNL     1      44.451   4.397  12.744  0.00  0.00    +0.000 A 
ATOM     35  O   UNL     1      44.781   5.112  13.686  0.00  0.00    +0.000 OA
ATOM     36  C   UNL     1      44.861   4.623  11.370  0.00  0.00    +0.000 A 
ATOM     37  H   UNL     1      43.367   3.103  13.874  0.00  0.00    +0.000 HD
ENDBRANCH  24  27
ENDBRANCH  22  23
ENDBRANCH   4  22
TORSDOF 9
ENDMDL
MODEL 5
REMARK VINA RESULT:    -6.760      3.024      7.743
REMARK INTER + INTRA:         -11.415
REMARK INTER:                 -10.136
REMARK INTRA:                  -1.279
REMARK UNBOUND:                -1.296
REMARK  Name = 
REMARK  9 active torsions:
REMARK  status: ('A' for Active; 'I' for Inactive)
REMARK    1  A    between atoms: N_1  and  C_2
REMARK    2  A    between atoms: C_2  and  C_3
REMARK    3  A    between atoms: C_3  and  N_4
REMARK    4  A    between atoms: N_4  and  C_5
REMARK    5  A    between atoms: C_5  and  C_6
REMARK    6  A    between atoms: C_9  and  C_10
REMARK    7  A    between atoms: C_10  and  N_11
REMARK    8  A    between atoms: C_12  and  C_14
REMARK    9  A    between atoms: C_26  and  C_28
REMARK                            x       y       z     vdW  Elec       q    Type
REMARK                         _______ _______ _______ _____ _____    ______ ____
ROOT
ATOM      1  C   UNL     1      50.063   6.891  15.727  0.00  0.00    +0.000 A 
ATOM      2  C   UNL     1      48.757   6.492  15.416  0.00  0.00    +0.000 A 
ATOM      3  C   UNL     1      48.153   6.919  14.233  0.00  0.00    +0.000 A 
ATOM      4  C   UNL     1      48.854   7.731  13.334  0.00  0.00    +0.000 A 
ATOM      5  C   UNL     1      50.116   8.216  13.696  0.00  0.00    +0.000 A 
ATOM      6  C   UNL     1      50.717   7.799  14.882  0.00  0.00    +0.000 A 
ENDROOT
BRANCH   1   7
ATOM      7  C   UNL     1      50.742   6.386  16.971  0.00  0.00    +0.000 C 
BRANCH   7   8
ATOM      8  N   UNL     1      49.980   6.346  18.223  0.00  0.00    +0.000 N 
ATOM      9  C   UNL     1      49.283   5.193  18.631  0.00  0.00    +0.000 C 
ATOM     10  O   UNL     1      48.575   5.216  19.640  0.00  0.00    +0.000 OA
BRANCH   9  11
ATOM     11  C   UNL     1      49.432   3.935  17.912  0.00  0.00    +0.000 A 
ATOM     12  C   UNL     1      48.632   3.211  17.037  0.00  0.00    +0.000 A 
ATOM     13  C   UNL     1      49.333   2.046  16.642  0.00  0.00    +0.000 A 
ATOM     14  C   UNL     1      50.521   2.037  17.330  0.00  0.00    +0.000 A 
ATOM     15  N   UNL     1      50.556   3.154  18.118  0.00  0.00    +0.000 N 
ATOM     16  H   UNL     1      51.297   3.407  18.761  0.00  0.00    +0.000 HD
ENDBRANCH   9  11
BRANCH   8  17
ATOM     17  C   UNL     1      49.619   7.600  18.916  0.00  0.00    +0.000 C 
BRANCH  17  18
ATOM     18  C   UNL     1      48.442   8.356  18.258  0.00  0.00    +0.000 C 
BRANCH  18  19
ATOM     19  N   UNL     1      47.138   7.939  18.789  0.00  0.00    +0.000 NA
ATOM     20  H   UNL     1      46.577   8.772  18.970  0.00  0.00    +0.000 HD
ATOM     21  H   UNL     1      47.277   7.502  19.702  0.00  0.00    +0.000 HD
ENDBRANCH  18  19
ENDBRANCH  17  18
ENDBRANCH   8  17
ENDBRANCH   7   8
ENDBRANCH   1   7
BRANCH   4  22
ATOM     22  C   UNL     1      48.293   8.033  11.972  0.00  0.00    +0.000 C 
BRANCH  22  23
ATOM     23  N   UNL     1      47.614   6.910  11.390  0.00  0.00    +0.000 N 
ATOM     24  C   UNL     1      46.242   6.897  11.345  0.00  0.00    +0.000 C 
ATOM     25  O   UNL     1      45.571   7.853  11.729  0.00  0.00    +0.000 OA
ATOM     26  H   UNL     1      48.129   6.040  11.305  0.00  0.00    +0.000 HD
BRANCH  24  27
ATOM     27  C   UNL     1      45.611   5.715  10.754  0.00  0.00    +0.000 A 
ATOM     28  C   UNL     1      45.727   5.486   9.390  0.00  0.00    +0.000 A 
ATOM     29  S   UNL     1      44.983   4.042   8.874  0.00  0.00    +0.000 S 
ATOM     30  C   UNL     1      44.431   3.702  10.447  0.00  0.00    +0.000 A 
ATOM     31  N   UNL     1      43.683   2.595  10.701  0.00  0.00    +0.000 NA
ATOM     32  C   UNL     1      43.304   2.478  11.927  0.00  0.00    +0.000 A 
ATOM     33  N   UNL     1      43.607   3.364  12.929  0.00  0.00    +0.000 N 
ATOM     34  C   UNL     1      44.376   4.487  12.724  0.00  0.00    +0.000 A 
ATOM     35  O   UNL     1      44.662   5.243  13.648  0.00  0.00    +0.000 OA
ATOM     36  C   UNL     1      44.824   4.668  11.356  0.00  0.00    +0.000 A 
ATOM     37  H   UNL     1      43.280   3.216  13.870  0.00  0.00    +0.000 HD
ENDBRANCH  24  27
ENDBRANCH  22  23
ENDBRANCH   4  22
TORSDOF 9
ENDMDL
MODEL 6
REMARK VINA RESULT:    -6.720      4.170      9.453
REMARK INTER + INTRA:         -11.355
REMARK INTER:                  -9.835
REMARK INTRA:                  -1.520
REMARK UNBOUND:                -1.296
REMARK  Name = 
REMARK  9 active torsions:
REMARK  status: ('A' for Active; 'I' for Inactive)
REMARK    1  A    between atoms: N_1  and  C_2
REMARK    2  A    between atoms: C_2  and  C_3
REMARK    3  A    between atoms: C_3  and  N_4
REMARK    4  A    between atoms: N_4  and  C_5
REMARK    5  A    between atoms: C_5  and  C_6
REMARK    6  A    between atoms: C_9  and  C_10
REMARK    7  A    between atoms: C_10  and  N_11
REMARK    8  A    between atoms: C_12  and  C_14
REMARK    9  A    between atoms: C_26  and  C_28
REMARK                            x       y       z     vdW  Elec       q    Type
REMARK                         _______ _______ _______ _____ _____    ______ ____
ROOT
ATOM      1  C   UNL     1      51.273   3.743  18.059  0.00  0.00    +0.000 A 
ATOM      2  C   UNL     1      50.415   4.848  18.114  0.00  0.00    +0.000 A 
ATOM      3  C   UNL     1      49.112   4.754  17.623  0.00  0.00    +0.000 A 
ATOM      4  C   UNL     1      48.643   3.546  17.091  0.00  0.00    +0.000 A 
ATOM      5  C   UNL     1      49.534   2.478  16.938  0.00  0.00    +0.000 A 
ATOM      6  C   UNL     1      50.838   2.575  17.419  0.00  0.00    +0.000 A 
ENDROOT
BRANCH   1   7
ATOM      7  C   UNL     1      52.658   3.820  18.642  0.00  0.00    +0.000 C 
BRANCH   7   8
ATOM      8  N   UNL     1      53.761   4.258  17.781  0.00  0.00    +0.000 N 
ATOM      9  C   UNL     1      54.792   3.383  17.392  0.00  0.00    +0.000 C 
ATOM     10  O   UNL     1      55.755   3.801  16.745  0.00  0.00    +0.000 OA
BRANCH   9  11
ATOM     11  C   UNL     1      54.716   1.959  17.689  0.00  0.00    +0.000 A 
ATOM     12  C   UNL     1      54.084   0.871  17.100  0.00  0.00    +0.000 A 
ATOM     13  C   UNL     1      54.397  -0.292  17.845  0.00  0.00    +0.000 A 
ATOM     14  C   UNL     1      55.159   0.107  18.914  0.00  0.00    +0.000 A 
ATOM     15  N   UNL     1      55.314   1.463  18.835  0.00  0.00    +0.000 N 
ATOM     16  H   UNL     1      55.806   2.047  19.500  0.00  0.00    +0.000 HD
ENDBRANCH   9  11
BRANCH   8  17
ATOM     17  C   UNL     1      54.025   5.698  17.584  0.00  0.00    +0.000 C 
BRANCH  17  18
ATOM     18  C   UNL     1      53.393   6.275  16.297  0.00  0.00    +0.000 C 
BRANCH  18  19
ATOM     19  N   UNL     1      54.299   6.201  15.143  0.00  0.00    +0.000 NA
ATOM     20  H   UNL     1      54.429   5.221  14.893  0.00  0.00    +0.000 HD
ATOM     21  H   UNL     1      55.222   6.533  15.426  0.00  0.00    +0.000 HD
ENDBRANCH  18  19
ENDBRANCH  17  18
ENDBRANCH   8  17
ENDBRANCH   7   8
ENDBRANCH   1   7
BRANCH   4  22
ATOM     22  C   UNL     1      47.191   3.373  16.743  0.00  0.00    +0.000 C 
BRANCH  22  23
ATOM     23  N   UNL     1      46.717   4.370  15.825  0.00  0.00    +0.000 N 
ATOM     24  C   UNL     1      46.809   4.146  14.474  0.00  0.00    +0.000 C 
ATOM     25  O   UNL     1      47.226   3.083  14.019  0.00  0.00    +0.000 OA
ATOM     26  H   UNL     1      46.611   5.318  16.172  0.00  0.00    +0.000 HD
BRANCH  24  27
ATOM     27  C   UNL     1      46.324   5.211  13.592  0.00  0.00    +0.000 A 
ATOM     28  C   UNL     1      47.121   6.323  13.359  0.00  0.00    +0.000 A 
ATOM     29  S   UNL     1      46.433   7.440  12.271  0.00  0.00    +0.000 S 
ATOM     30  C   UNL     1      45.021   6.502  12.118  0.00  0.00    +0.000 A 
ATOM     31  N   UNL     1      43.990   6.915  11.334  0.00  0.00    +0.000 NA
ATOM     32  C   UNL     1      42.970   6.128  11.336  0.00  0.00    +0.000 A 
ATOM     33  N   UNL     1      42.886   4.957  12.047  0.00  0.00    +0.000 N 
ATOM     34  C   UNL     1      43.911   4.489  12.837  0.00  0.00    +0.000 A 
ATOM     35  O   UNL     1      43.821   3.419  13.433  0.00  0.00    +0.000 OA
ATOM     36  C   UNL     1      45.082   5.345  12.874  0.00  0.00    +0.000 A 
ATOM     37  H   UNL     1      42.060   4.383  12.006  0.00  0.00    +0.000 HD
ENDBRANCH  24  27
ENDBRANCH  22  23
ENDBRANCH   4  22
TORSDOF 9
ENDMDL
MODEL 7
REMARK VINA RESULT:    -6.563      3.225      8.135
REMARK INTER + INTRA:         -11.121
REMARK INTER:                  -9.816
REMARK INTRA:                  -1.304
REMARK UNBOUND:                -1.296
REMARK  Name = 
REMARK  9 active torsions:
REMARK  status: ('A' for Active; 'I' for Inactive)
REMARK    1  A    between atoms: N_1  and  C_2
REMARK    2  A    between atoms: C_2  and  C_3
REMARK    3  A    between atoms: C_3  and  N_4
REMARK    4  A    between atoms: N_4  and  C_5
REMARK    5  A    between atoms: C_5  and  C_6
REMARK    6  A    between atoms: C_9  and  C_10
REMARK    7  A    between atoms: C_10  and  N_11
REMARK    8  A    between atoms: C_12  and  C_14
REMARK    9  A    between atoms: C_26  and  C_28
REMARK                            x       y       z     vdW  Elec       q    Type
REMARK                         _______ _______ _______ _____ _____    ______ ____
ROOT
ATOM      1  C   UNL     1      50.067   5.774  17.417  0.00  0.00    +0.000 A 
ATOM      2  C   UNL     1      48.843   6.381  17.725  0.00  0.00    +0.000 A 
ATOM      3  C   UNL     1      48.317   7.368  16.890  0.00  0.00    +0.000 A 
ATOM      4  C   UNL     1      48.994   7.743  15.724  0.00  0.00    +0.000 A 
ATOM      5  C   UNL     1      50.266   7.214  15.475  0.00  0.00    +0.000 A 
ATOM      6  C   UNL     1      50.797   6.236  16.313  0.00  0.00    +0.000 A 
ENDROOT
BRANCH   1   7
ATOM      7  C   UNL     1      50.611   4.667  18.280  0.00  0.00    +0.000 C 
BRANCH   7   8
ATOM      8  N   UNL     1      50.435   3.280  17.840  0.00  0.00    +0.000 N 
ATOM      9  C   UNL     1      51.526   2.403  17.691  0.00  0.00    +0.000 C 
ATOM     10  O   UNL     1      51.360   1.272  17.231  0.00  0.00    +0.000 OA
BRANCH   9  11
ATOM     11  C   UNL     1      52.860   2.788  18.132  0.00  0.00    +0.000 A 
ATOM     12  C   UNL     1      53.888   3.546  17.586  0.00  0.00    +0.000 A 
ATOM     13  C   UNL     1      54.963   3.581  18.507  0.00  0.00    +0.000 A 
ATOM     14  C   UNL     1      54.607   2.793  19.572  0.00  0.00    +0.000 A 
ATOM     15  N   UNL     1      53.361   2.290  19.323  0.00  0.00    +0.000 N 
ATOM     16  H   UNL     1      52.845   1.652  19.917  0.00  0.00    +0.000 HD
ENDBRANCH   9  11
BRANCH   8  17
ATOM     17  C   UNL     1      49.172   2.856  17.201  0.00  0.00    +0.000 C 
BRANCH  17  18
ATOM     18  C   UNL     1      47.960   2.856  18.161  0.00  0.00    +0.000 C 
BRANCH  18  19
ATOM     19  N   UNL     1      46.697   3.154  17.472  0.00  0.00    +0.000 NA
ATOM     20  H   UNL     1      46.171   2.286  17.366  0.00  0.00    +0.000 HD
ATOM     21  H   UNL     1      46.904   3.463  16.521  0.00  0.00    +0.000 HD
ENDBRANCH  18  19
ENDBRANCH  17  18
ENDBRANCH   8  17
ENDBRANCH   7   8
ENDBRANCH   1   7
BRANCH   4  22
ATOM     22  C   UNL     1      48.347   8.654  14.719  0.00  0.00    +0.000 C 
BRANCH  22  23
ATOM     23  N   UNL     1      47.166   8.085  14.133  0.00  0.00    +0.000 N 
ATOM     24  C   UNL     1      47.285   7.228  13.067  0.00  0.00    +0.000 C 
ATOM     25  O   UNL     1      48.381   6.875  12.636  0.00  0.00    +0.000 OA
ATOM     26  H   UNL     1      46.281   8.550  14.309  0.00  0.00    +0.000 HD
BRANCH  24  27
ATOM     27  C   UNL     1      46.041   6.697  12.504  0.00  0.00    +0.000 A 
ATOM     28  C   UNL     1      45.137   7.562  11.903  0.00  0.00    +0.000 A 
ATOM     29  S   UNL     1      43.770   6.779  11.253  0.00  0.00    +0.000 S 
ATOM     30  C   UNL     1      44.312   5.262  11.804  0.00  0.00    +0.000 A 
ATOM     31  N   UNL     1      43.574   4.139  11.597  0.00  0.00    +0.000 NA
ATOM     32  C   UNL     1      44.084   3.066  12.095  0.00  0.00    +0.000 A 
ATOM     33  N   UNL     1      45.272   3.009  12.779  0.00  0.00    +0.000 N 
ATOM     34  C   UNL     1      46.062   4.114  12.996  0.00  0.00    +0.000 A 
ATOM     35  O   UNL     1      47.139   4.026  13.580  0.00  0.00    +0.000 OA
ATOM     36  C   UNL     1      45.527   5.352  12.459  0.00  0.00    +0.000 A 
ATOM     37  H   UNL     1      45.619   2.137  13.145  0.00  0.00    +0.000 HD
ENDBRANCH  24  27
ENDBRANCH  22  23
ENDBRANCH   4  22
TORSDOF 9
ENDMDL
MODEL 8
REMARK VINA RESULT:    -6.537      3.096      5.331
REMARK INTER + INTRA:         -11.081
REMARK INTER:                  -9.850
REMARK INTRA:                  -1.231
REMARK UNBOUND:                -1.296
REMARK  Name = 
REMARK  9 active torsions:
REMARK  status: ('A' for Active; 'I' for Inactive)
REMARK    1  A    between atoms: N_1  and  C_2
REMARK    2  A    between atoms: C_2  and  C_3
REMARK    3  A    between atoms: C_3  and  N_4
REMARK    4  A    between atoms: N_4  and  C_5
REMARK    5  A    between atoms: C_5  and  C_6
REMARK    6  A    between atoms: C_9  and  C_10
REMARK    7  A    between atoms: C_10  and  N_11
REMARK    8  A    between atoms: C_12  and  C_14
REMARK    9  A    between atoms: C_26  and  C_28
REMARK                            x       y       z     vdW  Elec       q    Type
REMARK                         _______ _______ _______ _____ _____    ______ ____
ROOT
ATOM      1  C   UNL     1      47.477   5.532  13.668  0.00  0.00    +0.000 A 
ATOM      2  C   UNL     1      48.079   6.083  14.806  0.00  0.00    +0.000 A 
ATOM      3  C   UNL     1      48.123   5.360  15.999  0.00  0.00    +0.000 A 
ATOM      4  C   UNL     1      47.587   4.068  16.064  0.00  0.00    +0.000 A 
ATOM      5  C   UNL     1      46.893   3.563  14.959  0.00  0.00    +0.000 A 
ATOM      6  C   UNL     1      46.839   4.288  13.770  0.00  0.00    +0.000 A 
ENDROOT
BRANCH   1   7
ATOM      7  C   UNL     1      47.480   6.281  12.363  0.00  0.00    +0.000 C 
BRANCH   7   8
ATOM      8  N   UNL     1      46.810   7.584  12.297  0.00  0.00    +0.000 N 
ATOM      9  C   UNL     1      45.446   7.702  11.972  0.00  0.00    +0.000 C 
ATOM     10  O   UNL     1      44.931   8.813  11.833  0.00  0.00    +0.000 OA
BRANCH   9  11
ATOM     11  C   UNL     1      44.600   6.521  11.853  0.00  0.00    +0.000 A 
ATOM     12  C   UNL     1      43.826   5.783  12.738  0.00  0.00    +0.000 A 
ATOM     13  C   UNL     1      43.205   4.729  12.025  0.00  0.00    +0.000 A 
ATOM     14  C   UNL     1      43.658   4.796  10.730  0.00  0.00    +0.000 A 
ATOM     15  N   UNL     1      44.524   5.850  10.645  0.00  0.00    +0.000 N 
ATOM     16  H   UNL     1      45.039   6.132   9.820  0.00  0.00    +0.000 HD
ENDBRANCH   9  11
BRANCH   8  17
ATOM     17  C   UNL     1      47.604   8.826  12.218  0.00  0.00    +0.000 C 
BRANCH  17  18
ATOM     18  C   UNL     1      48.151   9.302  13.584  0.00  0.00    +0.000 C 
BRANCH  18  19
ATOM     19  N   UNL     1      47.172   9.144  14.667  0.00  0.00    +0.000 NA
ATOM     20  H   UNL     1      47.159   8.165  14.956  0.00  0.00    +0.000 HD
ATOM     21  H   UNL     1      46.237   9.329  14.298  0.00  0.00    +0.000 HD
ENDBRANCH  18  19
ENDBRANCH  17  18
ENDBRANCH   8  17
ENDBRANCH   7   8
ENDBRANCH   1   7
BRANCH   4  22
ATOM     22  C   UNL     1      47.803   3.206  17.276  0.00  0.00    +0.000 C 
BRANCH  22  23
ATOM     23  N   UNL     1      49.185   3.115  17.654  0.00  0.00    +0.000 N 
ATOM     24  C   UNL     1      50.024   2.280  16.958  0.00  0.00    +0.000 C 
ATOM     25  O   UNL     1      49.644   1.653  15.972  0.00  0.00    +0.000 OA
ATOM     26  H   UNL     1      49.440   3.422  18.588  0.00  0.00    +0.000 HD
BRANCH  24  27
ATOM     27  C   UNL     1      51.417   2.220  17.406  0.00  0.00    +0.000 A 
ATOM     28  C   UNL     1      52.002   0.987  17.663  0.00  0.00    +0.000 A 
ATOM     29  S   UNL     1      53.640   1.089  18.122  0.00  0.00    +0.000 S 
ATOM     30  C   UNL     1      53.608   2.790  18.049  0.00  0.00    +0.000 A 
ATOM     31  N   UNL     1      54.710   3.523  18.361  0.00  0.00    +0.000 NA
ATOM     32  C   UNL     1      54.538   4.798  18.297  0.00  0.00    +0.000 A 
ATOM     33  N   UNL     1      53.364   5.413  17.943  0.00  0.00    +0.000 N 
ATOM     34  C   UNL     1      52.229   4.713  17.601  0.00  0.00    +0.000 A 
ATOM     35  O   UNL     1      51.203   5.290  17.252  0.00  0.00    +0.000 OA
ATOM     36  C   UNL     1      52.370   3.270  17.663  0.00  0.00    +0.000 A 
ATOM     37  H   UNL     1      53.293   6.417  17.911  0.00  0.00    +0.000 HD
ENDBRANCH  24  27
ENDBRANCH  22  23
ENDBRANCH   4  22
TORSDOF 9
ENDMDL
MODEL 9
REMARK VINA RESULT:    -6.491      3.026      8.159
REMARK INTER + INTRA:         -11.013
REMARK INTER:                  -9.540
REMARK INTRA:                  -1.473
REMARK UNBOUND:                -1.296
REMARK  Name = 
REMARK  9 active torsions:
REMARK  status: ('A' for Active; 'I' for Inactive)
REMARK    1  A    between atoms: N_1  and  C_2
REMARK    2  A    between atoms: C_2  and  C_3
REMARK    3  A    between atoms: C_3  and  N_4
REMARK    4  A    between atoms: N_4  and  C_5
REMARK    5  A    between atoms: C_5  and  C_6
REMARK    6  A    between atoms: C_9  and  C_10
REMARK    7  A    between atoms: C_10  and  N_11
REMARK    8  A    between atoms: C_12  and  C_14
REMARK    9  A    between atoms: C_26  and  C_28
REMARK                            x       y       z     vdW  Elec       q    Type
REMARK                         _______ _______ _______ _____ _____    ______ ____
ROOT
ATOM      1  C   UNL     1      49.102   7.750  15.935  0.00  0.00    +0.000 A 
ATOM      2  C   UNL     1      48.378   8.891  15.568  0.00  0.00    +0.000 A 
ATOM      3  C   UNL     1      47.789   8.977  14.305  0.00  0.00    +0.000 A 
ATOM      4  C   UNL     1      47.896   7.912  13.402  0.00  0.00    +0.000 A 
ATOM      5  C   UNL     1      48.708   6.820  13.728  0.00  0.00    +0.000 A 
ATOM      6  C   UNL     1      49.306   6.739  14.985  0.00  0.00    +0.000 A 
ENDROOT
BRANCH   1   7
ATOM      7  C   UNL     1      49.688   7.626  17.315  0.00  0.00    +0.000 C 
BRANCH   7   8
ATOM      8  N   UNL     1      48.781   7.620  18.467  0.00  0.00    +0.000 N 
ATOM      9  C   UNL     1      47.971   6.509  18.768  0.00  0.00    +0.000 C 
ATOM     10  O   UNL     1      47.151   6.565  19.686  0.00  0.00    +0.000 OA
BRANCH   9  11
ATOM     11  C   UNL     1      48.125   5.252  18.047  0.00  0.00    +0.000 A 
ATOM     12  C   UNL     1      49.113   4.278  17.984  0.00  0.00    +0.000 A 
ATOM     13  C   UNL     1      48.685   3.256  17.102  0.00  0.00    +0.000 A 
ATOM     14  C   UNL     1      47.475   3.648  16.587  0.00  0.00    +0.000 A 
ATOM     15  N   UNL     1      47.164   4.864  17.129  0.00  0.00    +0.000 N 
ATOM     16  H   UNL     1      46.343   5.419  16.919  0.00  0.00    +0.000 HD
ENDBRANCH   9  11
BRANCH   8  17
ATOM     17  C   UNL     1      48.419   8.886  19.136  0.00  0.00    +0.000 C 
BRANCH  17  18
ATOM     18  C   UNL     1      49.541   9.455  20.035  0.00  0.00    +0.000 C 
BRANCH  18  19
ATOM     19  N   UNL     1      50.299   8.401  20.723  0.00  0.00    +0.000 NA
ATOM     20  H   UNL     1      50.200   7.532  20.198  0.00  0.00    +0.000 HD
ATOM     21  H   UNL     1      49.867   8.220  21.630  0.00  0.00    +0.000 HD
ENDBRANCH  18  19
ENDBRANCH  17  18
ENDBRANCH   8  17
ENDBRANCH   7   8
ENDBRANCH   1   7
BRANCH   4  22
ATOM     22  C   UNL     1      47.105   7.907  12.123  0.00  0.00    +0.000 C 
BRANCH  22  23
ATOM     23  N   UNL     1      46.556   6.617  11.815  0.00  0.00    +0.000 N 
ATOM     24  C   UNL     1      45.198   6.477  11.667  0.00  0.00    +0.000 C 
ATOM     25  O   UNL     1      44.436   7.440  11.724  0.00  0.00    +0.000 OA
ATOM     26  H   UNL     1      47.128   5.801  12.011  0.00  0.00    +0.000 HD
BRANCH  24  27
ATOM     27  C   UNL     1      44.700   5.131  11.371  0.00  0.00    +0.000 A 
ATOM     28  C   UNL     1      43.952   4.453  12.324  0.00  0.00    +0.000 A 
ATOM     29  S   UNL     1      43.406   2.925  11.802  0.00  0.00    +0.000 S 
ATOM     30  C   UNL     1      44.200   3.094  10.306  0.00  0.00    +0.000 A 
ATOM     31  N   UNL     1      44.157   2.102   9.377  0.00  0.00    +0.000 NA
ATOM     32  C   UNL     1      44.829   2.346   8.305  0.00  0.00    +0.000 A 
ATOM     33  N   UNL     1      45.538   3.497   8.070  0.00  0.00    +0.000 N 
ATOM     34  C   UNL     1      45.594   4.535   8.971  0.00  0.00    +0.000 A 
ATOM     35  O   UNL     1      46.206   5.569   8.719  0.00  0.00    +0.000 OA
ATOM     36  C   UNL     1      44.857   4.306  10.201  0.00  0.00    +0.000 A 
ATOM     37  H   UNL     1      46.043   3.629   7.209  0.00  0.00    +0.000 HD
ENDBRANCH  24  27
ENDBRANCH  22  23
ENDBRANCH   4  22
TORSDOF 9
ENDMDL
