MODEL 1
REMARK VINA RESULT:    -7.581      0.000      0.000
REMARK INTER + INTRA:         -10.398
REMARK INTER:                 -10.462
REMARK INTRA:                   0.064
REMARK UNBOUND:                 0.064
REMARK  Name = 
REMARK  10 active torsions:
REMARK  status: ('A' for Active; 'I' for Inactive)
REMARK    1  A    between atoms: C_1  and  O_2
REMARK    2  A    between atoms: O_2  and  C_3
REMARK    3  A    between atoms: C_3  and  C_5
REMARK    4  A    between atoms: C_8  and  N_9
REMARK    5  A    between atoms: N_9  and  C_10
REMARK    6  A    between atoms: C_10  and  C_11
REMARK    7  A    between atoms: C_11  and  C_12
REMARK    8  A    between atoms: C_11  and  C_13
REMARK    9  A    between atoms: C_11  and  C_14
REMARK   10  A    between atoms: C_17  and  O_18
REMARK                            x       y       z     vdW  Elec       q    Type
REMARK                         _______ _______ _______ _____ _____    ______ ____
ROOT
ATOM      1  N   UNL     1      43.935   4.722   9.641  0.00  0.00    +0.000 N 
ATOM      2  H   UNL     1      43.306   5.154   8.969  0.00  0.00    +0.000 HD
ENDROOT
BRANCH   1   6
ATOM      3  C   UNL     1      46.443   1.975   7.778  0.00  0.00    +0.000 A 
ATOM      4  C   UNL     1      46.540   3.303   7.382  0.00  0.00    +0.000 A 
ATOM      5  C   UNL     1      45.725   4.252   8.010  0.00  0.00    +0.000 A 
ATOM      6  C   UNL     1      44.855   3.873   9.032  0.00  0.00    +0.000 A 
ATOM      7  C   UNL     1      44.842   2.509   9.345  0.00  0.00    +0.000 A 
ATOM      8  N   UNL     1      45.609   1.559   8.763  0.00  0.00    +0.000 NA
BRANCH   3   9
ATOM      9  C   UNL     1      47.260   0.940   7.072  0.00  0.00    +0.000 C 
ATOM     10  O   UNL     1      47.017  -0.257   7.098  0.00  0.00    +0.000 OA
BRANCH   9  12
ATOM     11  C   UNL     1      47.964   2.186   5.213  0.00  0.00    +0.000 C 
ATOM     12  O   UNL     1      48.303   1.528   6.430  0.00  0.00    +0.000 OA
ENDBRANCH   9  12
ENDBRANCH   3   9
ENDBRANCH   1   6
BRANCH   1  13
ATOM     13  C   UNL     1      43.342   4.414  10.942  0.00  0.00    +0.000 C 
BRANCH  13  14
ATOM     14  C   UNL     1      43.524   5.574  11.977  0.00  0.00    +0.000 C 
ATOM     15  C   UNL     1      42.849   6.853  11.425  0.00  0.00    +0.000 C 
ATOM     16  C   UNL     1      42.822   5.229  13.313  0.00  0.00    +0.000 C 
BRANCH  14  17
ATOM     17  C   UNL     1      45.036   5.764  12.249  0.00  0.00    +0.000 A 
ATOM     18  C   UNL     1      45.819   6.707  11.557  0.00  0.00    +0.000 A 
ATOM     19  C   UNL     1      47.180   6.870  11.833  0.00  0.00    +0.000 A 
ATOM     20  C   UNL     1      47.786   6.085  12.802  0.00  0.00    +0.000 A 
ATOM     21  C   UNL     1      47.047   5.138  13.498  0.00  0.00    +0.000 A 
ATOM     22  C   UNL     1      45.684   4.981  13.227  0.00  0.00    +0.000 A 
BRANCH  20  23
ATOM     23  O   UNL     1      49.106   6.214  13.104  0.00  0.00    +0.000 OA
ATOM     24  H   UNL     1      49.478   6.930  12.566  0.00  0.00    +0.000 HD
ENDBRANCH  20  23
ENDBRANCH  14  17
ENDBRANCH  13  14
ENDBRANCH   1  13
TORSDOF 7
ENDMDL
MODEL 2
REMARK VINA RESULT:    -7.208      2.359      6.275
REMARK INTER + INTRA:          -9.883
REMARK INTER:                  -8.877
REMARK INTRA:                  -1.006
REMARK UNBOUND:                 0.064
REMARK  Name = 
REMARK  10 active torsions:
REMARK  status: ('A' for Active; 'I' for Inactive)
REMARK    1  A    between atoms: C_1  and  O_2
REMARK    2  A    between atoms: O_2  and  C_3
REMARK    3  A    between atoms: C_3  and  C_5
REMARK    4  A    between atoms: C_8  and  N_9
REMARK    5  A    between atoms: N_9  and  C_10
REMARK    6  A    between atoms: C_10  and  C_11
REMARK    7  A    between atoms: C_11  and  C_12
REMARK    8  A    between atoms: C_11  and  C_13
REMARK    9  A    between atoms: C_11  and  C_14
REMARK   10  A    between atoms: C_17  and  O_18
REMARK                            x       y       z     vdW  Elec       q    Type
REMARK                         _______ _______ _______ _____ _____    ______ ____
ROOT
ATOM      1  N   UNL     1      45.316   5.013  12.943  0.00  0.00    +0.000 N 
ATOM      2  H   UNL     1      44.445   5.534  12.899  0.00  0.00    +0.000 HD
ENDROOT
BRANCH   1   6
ATOM      3  C   UNL     1      48.834   7.219  12.702  0.00  0.00    +0.000 A 
ATOM      4  C   UNL     1      47.878   7.425  11.714  0.00  0.00    +0.000 A 
ATOM      5  C   UNL     1      46.676   6.714  11.785  0.00  0.00    +0.000 A 
ATOM      6  C   UNL     1      46.432   5.838  12.843  0.00  0.00    +0.000 A 
ATOM      7  C   UNL     1      47.466   5.711  13.777  0.00  0.00    +0.000 A 
ATOM      8  N   UNL     1      48.644   6.375  13.745  0.00  0.00    +0.000 NA
BRANCH   3   9
ATOM      9  C   UNL     1      50.150   7.923  12.603  0.00  0.00    +0.000 C 
ATOM     10  O   UNL     1      50.882   8.139  13.557  0.00  0.00    +0.000 OA
BRANCH   9  12
ATOM     11  C   UNL     1      51.529   7.692  10.719  0.00  0.00    +0.000 C 
ATOM     12  O   UNL     1      50.385   8.295  11.317  0.00  0.00    +0.000 OA
ENDBRANCH   9  12
ENDBRANCH   3   9
ENDBRANCH   1   6
BRANCH   1  13
ATOM     13  C   UNL     1      45.279   3.683  12.332  0.00  0.00    +0.000 C 
BRANCH  13  14
ATOM     14  C   UNL     1      44.239   3.585  11.166  0.00  0.00    +0.000 C 
ATOM     15  C   UNL     1      43.308   2.374  11.421  0.00  0.00    +0.000 C 
ATOM     16  C   UNL     1      43.343   4.847  11.127  0.00  0.00    +0.000 C 
BRANCH  14  17
ATOM     17  C   UNL     1      45.004   3.482   9.825  0.00  0.00    +0.000 A 
ATOM     18  C   UNL     1      45.296   2.249   9.211  0.00  0.00    +0.000 A 
ATOM     19  C   UNL     1      45.975   2.184   7.990  0.00  0.00    +0.000 A 
ATOM     20  C   UNL     1      46.383   3.351   7.365  0.00  0.00    +0.000 A 
ATOM     21  C   UNL     1      46.121   4.585   7.945  0.00  0.00    +0.000 A 
ATOM     22  C   UNL     1      45.435   4.651   9.162  0.00  0.00    +0.000 A 
BRANCH  20  23
ATOM     23  O   UNL     1      47.042   3.333   6.175  0.00  0.00    +0.000 OA
ATOM     24  H   UNL     1      46.405   3.135   5.472  0.00  0.00    +0.000 HD
ENDBRANCH  20  23
ENDBRANCH  14  17
ENDBRANCH  13  14
ENDBRANCH   1  13
TORSDOF 7
ENDMDL
MODEL 3
REMARK VINA RESULT:    -6.864      4.594      6.442
REMARK INTER + INTRA:          -9.409
REMARK INTER:                  -8.775
REMARK INTRA:                  -0.634
REMARK UNBOUND:                 0.064
REMARK  Name = 
REMARK  10 active torsions:
REMARK  status: ('A' for Active; 'I' for Inactive)
REMARK    1  A    between atoms: C_1  and  O_2
REMARK    2  A    between atoms: O_2  and  C_3
REMARK    3  A    between atoms: C_3  and  C_5
REMARK    4  A    between atoms: C_8  and  N_9
REMARK    5  A    between atoms: N_9  and  C_10
REMARK    6  A    between atoms: C_10  and  C_11
REMARK    7  A    between atoms: C_11  and  C_12
REMARK    8  A    between atoms: C_11  and  C_13
REMARK    9  A    between atoms: C_11  and  C_14
REMARK   10  A    between atoms: C_17  and  O_18
REMARK                            x       y       z     vdW  Elec       q    Type
REMARK                         _______ _______ _______ _____ _____    ______ ____
ROOT
ATOM      1  N   UNL     1      47.518   5.423  15.035  0.00  0.00    +0.000 N 
ATOM      2  H   UNL     1      47.708   6.420  14.975  0.00  0.00    +0.000 HD
ENDROOT
BRANCH   1   6
ATOM      3  C   UNL     1      45.072   3.832  12.071  0.00  0.00    +0.000 A 
ATOM      4  C   UNL     1      45.049   5.210  12.250  0.00  0.00    +0.000 A 
ATOM      5  C   UNL     1      45.881   5.774  13.223  0.00  0.00    +0.000 A 
ATOM      6  C   UNL     1      46.735   4.970  13.978  0.00  0.00    +0.000 A 
ATOM      7  C   UNL     1      46.671   3.597  13.711  0.00  0.00    +0.000 A 
ATOM      8  N   UNL     1      45.881   3.010  12.783  0.00  0.00    +0.000 NA
BRANCH   3   9
ATOM      9  C   UNL     1      44.141   3.209  11.079  0.00  0.00    +0.000 C 
ATOM     10  O   UNL     1      43.102   2.642  11.381  0.00  0.00    +0.000 OA
BRANCH   9  12
ATOM     11  C   UNL     1      44.910   2.129   9.144  0.00  0.00    +0.000 C 
ATOM     12  O   UNL     1      44.636   3.352   9.822  0.00  0.00    +0.000 OA
ENDBRANCH   9  12
ENDBRANCH   3   9
ENDBRANCH   1   6
BRANCH   1  13
ATOM     13  C   UNL     1      47.364   4.898  16.392  0.00  0.00    +0.000 C 
BRANCH  13  14
ATOM     14  C   UNL     1      48.594   5.222  17.306  0.00  0.00    +0.000 C 
ATOM     15  C   UNL     1      49.283   6.508  16.788  0.00  0.00    +0.000 C 
ATOM     16  C   UNL     1      48.136   5.505  18.757  0.00  0.00    +0.000 C 
BRANCH  14  17
ATOM     17  C   UNL     1      49.540   3.998  17.318  0.00  0.00    +0.000 A 
ATOM     18  C   UNL     1      50.883   4.081  17.732  0.00  0.00    +0.000 A 
ATOM     19  C   UNL     1      51.714   2.956  17.749  0.00  0.00    +0.000 A 
ATOM     20  C   UNL     1      51.218   1.727  17.341  0.00  0.00    +0.000 A 
ATOM     21  C   UNL     1      49.902   1.609  16.916  0.00  0.00    +0.000 A 
ATOM     22  C   UNL     1      49.069   2.733  16.908  0.00  0.00    +0.000 A 
BRANCH  20  23
ATOM     23  O   UNL     1      51.991   0.607  17.345  0.00  0.00    +0.000 OA
ATOM     24  H   UNL     1      52.698   0.722  17.998  0.00  0.00    +0.000 HD
ENDBRANCH  20  23
ENDBRANCH  14  17
ENDBRANCH  13  14
ENDBRANCH   1  13
TORSDOF 7
ENDMDL
MODEL 4
REMARK VINA RESULT:    -6.820      2.580      6.592
REMARK INTER + INTRA:          -9.347
REMARK INTER:                  -8.400
REMARK INTRA:                  -0.947
REMARK UNBOUND:                 0.064
REMARK  Name = 
REMARK  10 active torsions:
REMARK  status: ('A' for Active; 'I' for Inactive)
REMARK    1  A    between atoms: C_1  and  O_2
REMARK    2  A    between atoms: O_2  and  C_3
REMARK    3  A    between atoms: C_3  and  C_5
REMARK    4  A    between atoms: C_8  and  N_9
REMARK    5  A    between atoms: N_9  and  C_10
REMARK    6  A    between atoms: C_10  and  C_11
REMARK    7  A    between atoms: C_11  and  C_12
REMARK    8  A    between atoms: C_11  and  C_13
REMARK    9  A    between atoms: C_11  and  C_14
REMARK   10  A    between atoms: C_17  and  O_18
REMARK                            x       y       z     vdW  Elec       q    Type
REMARK                         _______ _______ _______ _____ _____    ______ ____
ROOT
ATOM      1  N   UNL     1      45.034   5.527  13.093  0.00  0.00    +0.000 N 
ATOM      2  H   UNL     1      44.092   5.898  13.182  0.00  0.00    +0.000 HD
ENDROOT
BRANCH   1   6
ATOM      3  C   UNL     1      47.674   8.614  12.199  0.00  0.00    +0.000 A 
ATOM      4  C   UNL     1      48.172   7.317  12.174  0.00  0.00    +0.000 A 
ATOM      5  C   UNL     1      47.299   6.259  12.446  0.00  0.00    +0.000 A 
ATOM      6  C   UNL     1      45.951   6.501  12.710  0.00  0.00    +0.000 A 
ATOM      7  C   UNL     1      45.564   7.846  12.709  0.00  0.00    +0.000 A 
ATOM      8  N   UNL     1      46.374   8.899  12.455  0.00  0.00    +0.000 NA
BRANCH   3   9
ATOM      9  C   UNL     1      48.609   9.760  11.974  0.00  0.00    +0.000 C 
ATOM     10  O   UNL     1      49.825   9.676  12.061  0.00  0.00    +0.000 OA
BRANCH   9  12
ATOM     11  C   UNL     1      48.258  11.514  10.455  0.00  0.00    +0.000 C 
ATOM     12  O   UNL     1      47.906  10.887  11.685  0.00  0.00    +0.000 OA
ENDBRANCH   9  12
ENDBRANCH   3   9
ENDBRANCH   1   6
BRANCH   1  13
ATOM     13  C   UNL     1      45.118   4.150  12.607  0.00  0.00    +0.000 C 
BRANCH  13  14
ATOM     14  C   UNL     1      44.088   3.849  11.468  0.00  0.00    +0.000 C 
ATOM     15  C   UNL     1      43.346   2.529  11.793  0.00  0.00    +0.000 C 
ATOM     16  C   UNL     1      43.018   4.965  11.391  0.00  0.00    +0.000 C 
BRANCH  14  17
ATOM     17  C   UNL     1      44.841   3.795  10.117  0.00  0.00    +0.000 A 
ATOM     18  C   UNL     1      45.399   4.938   9.513  0.00  0.00    +0.000 A 
ATOM     19  C   UNL     1      46.089   4.861   8.299  0.00  0.00    +0.000 A 
ATOM     20  C   UNL     1      46.227   3.638   7.662  0.00  0.00    +0.000 A 
ATOM     21  C   UNL     1      45.682   2.490   8.223  0.00  0.00    +0.000 A 
ATOM     22  C   UNL     1      44.999   2.567   9.441  0.00  0.00    +0.000 A 
BRANCH  20  23
ATOM     23  O   UNL     1      46.893   3.517   6.482  0.00  0.00    +0.000 OA
ATOM     24  H   UNL     1      46.570   2.726   6.024  0.00  0.00    +0.000 HD
ENDBRANCH  20  23
ENDBRANCH  14  17
ENDBRANCH  13  14
ENDBRANCH   1  13
TORSDOF 7
ENDMDL
MODEL 5
REMARK VINA RESULT:    -6.819      3.226      7.476
REMARK INTER + INTRA:          -9.347
REMARK INTER:                  -8.723
REMARK INTRA:                  -0.623
REMARK UNBOUND:                 0.064
REMARK  Name = 
REMARK  10 active torsions:
REMARK  status: ('A' for Active; 'I' for Inactive)
REMARK    1  A    between atoms: C_1  and  O_2
REMARK    2  A    between atoms: O_2  and  C_3
REMARK    3  A    between atoms: C_3  and  C_5
REMARK    4  A    between atoms: C_8  and  N_9
REMARK    5  A    between atoms: N_9  and  C_10
REMARK    6  A    between atoms: C_10  and  C_11
REMARK    7  A    between atoms: C_11  and  C_12
REMARK    8  A    between atoms: C_11  and  C_13
REMARK    9  A    between atoms: C_11  and  C_14
REMARK   10  A    between atoms: C_17  and  O_18
REMARK                            x       y       z     vdW  Elec       q    Type
REMARK                         _______ _______ _______ _____ _____    ______ ____
ROOT
ATOM      1  N   UNL     1      45.797   4.085  13.635  0.00  0.00    +0.000 N 
ATOM      2  H   UNL     1      45.299   3.269  13.983  0.00  0.00    +0.000 HD
ENDROOT
BRANCH   1   6
ATOM      3  C   UNL     1      48.652   5.663  16.215  0.00  0.00    +0.000 A 
ATOM      4  C   UNL     1      47.978   4.520  16.627  0.00  0.00    +0.000 A 
ATOM      5  C   UNL     1      47.030   3.954  15.767  0.00  0.00    +0.000 A 
ATOM      6  C   UNL     1      46.789   4.511  14.512  0.00  0.00    +0.000 A 
ATOM      7  C   UNL     1      47.526   5.662  14.206  0.00  0.00    +0.000 A 
ATOM      8  N   UNL     1      48.448   6.243  15.007  0.00  0.00    +0.000 NA
BRANCH   3   9
ATOM      9  C   UNL     1      49.620   6.316  17.150  0.00  0.00    +0.000 C 
ATOM     10  O   UNL     1      49.748   7.526  17.265  0.00  0.00    +0.000 OA
BRANCH   9  12
ATOM     11  C   UNL     1      51.667   5.188  17.351  0.00  0.00    +0.000 C 
ATOM     12  O   UNL     1      50.334   5.371  17.817  0.00  0.00    +0.000 OA
ENDBRANCH   9  12
ENDBRANCH   3   9
ENDBRANCH   1   6
BRANCH   1  13
ATOM     13  C   UNL     1      44.986   5.029  12.865  0.00  0.00    +0.000 C 
BRANCH  13  14
ATOM     14  C   UNL     1      44.005   4.314  11.877  0.00  0.00    +0.000 C 
ATOM     15  C   UNL     1      43.619   2.933  12.460  0.00  0.00    +0.000 C 
ATOM     16  C   UNL     1      42.696   5.126  11.725  0.00  0.00    +0.000 C 
BRANCH  14  17
ATOM     17  C   UNL     1      44.684   4.210  10.490  0.00  0.00    +0.000 A 
ATOM     18  C   UNL     1      44.528   3.090   9.651  0.00  0.00    +0.000 A 
ATOM     19  C   UNL     1      45.140   3.027   8.395  0.00  0.00    +0.000 A 
ATOM     20  C   UNL     1      45.928   4.081   7.959  0.00  0.00    +0.000 A 
ATOM     21  C   UNL     1      46.112   5.197   8.763  0.00  0.00    +0.000 A 
ATOM     22  C   UNL     1      45.494   5.263  10.016  0.00  0.00    +0.000 A 
BRANCH  20  23
ATOM     23  O   UNL     1      46.539   4.062   6.743  0.00  0.00    +0.000 OA
ATOM     24  H   UNL     1      46.241   4.833   6.236  0.00  0.00    +0.000 HD
ENDBRANCH  20  23
ENDBRANCH  14  17
ENDBRANCH  13  14
ENDBRANCH   1  13
TORSDOF 7
ENDMDL
MODEL 6
REMARK VINA RESULT:    -6.473      4.044      5.961
REMARK INTER + INTRA:          -8.869
REMARK INTER:                  -8.303
REMARK INTRA:                  -0.567
REMARK UNBOUND:                 0.064
REMARK  Name = 
REMARK  10 active torsions:
REMARK  status: ('A' for Active; 'I' for Inactive)
REMARK    1  A    between atoms: C_1  and  O_2
REMARK    2  A    between atoms: O_2  and  C_3
REMARK    3  A    between atoms: C_3  and  C_5
REMARK    4  A    between atoms: C_8  and  N_9
REMARK    5  A    between atoms: N_9  and  C_10
REMARK    6  A    between atoms: C_10  and  C_11
REMARK    7  A    between atoms: C_11  and  C_12
REMARK    8  A    between atoms: C_11  and  C_13
REMARK    9  A    between atoms: C_11  and  C_14
REMARK   10  A    between atoms: C_17  and  O_18
REMARK                            x       y       z     vdW  Elec       q    Type
REMARK                         _______ _______ _______ _____ _____    ______ ____
ROOT
ATOM      1  N   UNL     1      47.195   6.742  13.887  0.00  0.00    +0.000 N 
ATOM      2  H   UNL     1      46.650   7.100  14.667  0.00  0.00    +0.000 HD
ENDROOT
BRANCH   1   6
ATOM      3  C   UNL     1      44.781   4.133  11.727  0.00  0.00    +0.000 A 
ATOM      4  C   UNL     1      45.260   5.258  11.067  0.00  0.00    +0.000 A 
ATOM      5  C   UNL     1      46.095   6.139  11.763  0.00  0.00    +0.000 A 
ATOM      6  C   UNL     1      46.459   5.876  13.083  0.00  0.00    +0.000 A 
ATOM      7  C   UNL     1      45.915   4.715  13.644  0.00  0.00    +0.000 A 
ATOM      8  N   UNL     1      45.103   3.839  13.010  0.00  0.00    +0.000 NA
BRANCH   3   9
ATOM      9  C   UNL     1      43.836   3.217  11.015  0.00  0.00    +0.000 C 
ATOM     10  O   UNL     1      42.999   2.528  11.579  0.00  0.00    +0.000 OA
BRANCH   9  12
ATOM     11  C   UNL     1      44.717   2.103   9.148  0.00  0.00    +0.000 C 
ATOM     12  O   UNL     1      44.067   3.256   9.677  0.00  0.00    +0.000 OA
ENDBRANCH   9  12
ENDBRANCH   3   9
ENDBRANCH   1   6
BRANCH   1  13
ATOM     13  C   UNL     1      48.614   6.521  14.167  0.00  0.00    +0.000 C 
BRANCH  13  14
ATOM     14  C   UNL     1      49.074   7.182  15.508  0.00  0.00    +0.000 C 
ATOM     15  C   UNL     1      50.547   7.639  15.368  0.00  0.00    +0.000 C 
ATOM     16  C   UNL     1      48.233   8.446  15.810  0.00  0.00    +0.000 C 
BRANCH  14  17
ATOM     17  C   UNL     1      48.869   6.168  16.659  0.00  0.00    +0.000 A 
ATOM     18  C   UNL     1      48.295   4.898  16.458  0.00  0.00    +0.000 A 
ATOM     19  C   UNL     1      48.134   3.994  17.512  0.00  0.00    +0.000 A 
ATOM     20  C   UNL     1      48.537   4.347  18.790  0.00  0.00    +0.000 A 
ATOM     21  C   UNL     1      49.097   5.594  19.029  0.00  0.00    +0.000 A 
ATOM     22  C   UNL     1      49.265   6.495  17.973  0.00  0.00    +0.000 A 
BRANCH  20  23
ATOM     23  O   UNL     1      48.402   3.496  19.843  0.00  0.00    +0.000 OA
ATOM     24  H   UNL     1      47.907   3.947  20.544  0.00  0.00    +0.000 HD
ENDBRANCH  20  23
ENDBRANCH  14  17
ENDBRANCH  13  14
ENDBRANCH   1  13
TORSDOF 7
ENDMDL
MODEL 7
REMARK VINA RESULT:    -6.211      4.537      6.280
REMARK INTER + INTRA:          -8.508
REMARK INTER:                  -7.935
REMARK INTRA:                  -0.573
REMARK UNBOUND:                 0.064
REMARK  Name = 
REMARK  10 active torsions:
REMARK  status: ('A' for Active; 'I' for Inactive)
REMARK    1  A    between atoms: C_1  and  O_2
REMARK    2  A    between atoms: O_2  and  C_3
REMARK    3  A    between atoms: C_3  and  C_5
REMARK    4  A    between atoms: C_8  and  N_9
REMARK    5  A    between atoms: N_9  and  C_10
REMARK    6  A    between atoms: C_10  and  C_11
REMARK    7  A    between atoms: C_11  and  C_12
REMARK    8  A    between atoms: C_11  and  C_13
REMARK    9  A    between atoms: C_11  and  C_14
REMARK   10  A    between atoms: C_17  and  O_18
REMARK                            x       y       z     vdW  Elec       q    Type
REMARK                         _______ _______ _______ _____ _____    ______ ____
ROOT
ATOM      1  N   UNL     1      47.100   3.824  14.987  0.00  0.00    +0.000 N 
ATOM      2  H   UNL     1      47.583   2.930  14.990  0.00  0.00    +0.000 HD
ENDROOT
BRANCH   1   6
ATOM      3  C   UNL     1      45.245   4.575  11.341  0.00  0.00    +0.000 A 
ATOM      4  C   UNL     1      45.847   5.648  11.987  0.00  0.00    +0.000 A 
ATOM      5  C   UNL     1      46.499   5.418  13.203  0.00  0.00    +0.000 A 
ATOM      6  C   UNL     1      46.567   4.133  13.739  0.00  0.00    +0.000 A 
ATOM      7  C   UNL     1      45.924   3.132  13.001  0.00  0.00    +0.000 A 
ATOM      8  N   UNL     1      45.280   3.310  11.825  0.00  0.00    +0.000 NA
BRANCH   3   9
ATOM      9  C   UNL     1      44.488   4.818  10.073  0.00  0.00    +0.000 C 
ATOM     10  O   UNL     1      43.293   5.065  10.029  0.00  0.00    +0.000 OA
BRANCH   9  12
ATOM     11  C   UNL     1      45.058   3.578   8.165  0.00  0.00    +0.000 C 
ATOM     12  O   UNL     1      45.319   4.699   9.004  0.00  0.00    +0.000 OA
ENDBRANCH   9  12
ENDBRANCH   3   9
ENDBRANCH   1   6
BRANCH   1  13
ATOM     13  C   UNL     1      47.679   4.849  15.856  0.00  0.00    +0.000 C 
BRANCH  13  14
ATOM     14  C   UNL     1      48.007   4.309  17.288  0.00  0.00    +0.000 C 
ATOM     15  C   UNL     1      47.391   5.262  18.341  0.00  0.00    +0.000 C 
ATOM     16  C   UNL     1      47.369   2.916  17.506  0.00  0.00    +0.000 C 
BRANCH  14  17
ATOM     17  C   UNL     1      49.543   4.174  17.429  0.00  0.00    +0.000 A 
ATOM     18  C   UNL     1      50.182   2.934  17.613  0.00  0.00    +0.000 A 
ATOM     19  C   UNL     1      51.573   2.837  17.721  0.00  0.00    +0.000 A 
ATOM     20  C   UNL     1      52.350   3.982  17.656  0.00  0.00    +0.000 A 
ATOM     21  C   UNL     1      51.754   5.225  17.485  0.00  0.00    +0.000 A 
ATOM     22  C   UNL     1      50.364   5.320  17.369  0.00  0.00    +0.000 A 
BRANCH  20  23
ATOM     23  O   UNL     1      53.706   3.933  17.754  0.00  0.00    +0.000 OA
ATOM     24  H   UNL     1      54.078   3.870  16.861  0.00  0.00    +0.000 HD
ENDBRANCH  20  23
ENDBRANCH  14  17
ENDBRANCH  13  14
ENDBRANCH   1  13
TORSDOF 7
ENDMDL
MODEL 8
REMARK VINA RESULT:    -5.753      4.454      8.527
REMARK INTER + INTRA:          -7.875
REMARK INTER:                  -7.296
REMARK INTRA:                  -0.579
REMARK UNBOUND:                 0.064
REMARK  Name = 
REMARK  10 active torsions:
REMARK  status: ('A' for Active; 'I' for Inactive)
REMARK    1  A    between atoms: C_1  and  O_2
REMARK    2  A    between atoms: O_2  and  C_3
REMARK    3  A    between atoms: C_3  and  C_5
REMARK    4  A    between atoms: C_8  and  N_9
REMARK    5  A    between atoms: N_9  and  C_10
REMARK    6  A    between atoms: C_10  and  C_11
REMARK    7  A    between atoms: C_11  and  C_12
REMARK    8  A    between atoms: C_11  and  C_13
REMARK    9  A    between atoms: C_11  and  C_14
REMARK   10  A    between atoms: C_17  and  O_18
REMARK                            x       y       z     vdW  Elec       q    Type
REMARK                         _______ _______ _______ _____ _____    ______ ____
ROOT
ATOM      1  N   UNL     1      47.701   6.188  14.196  0.00  0.00    +0.000 N 
ATOM      2  H   UNL     1      48.468   6.172  13.528  0.00  0.00    +0.000 HD
ENDROOT
BRANCH   1   6
ATOM      3  C   UNL     1      48.792   5.148  18.073  0.00  0.00    +0.000 A 
ATOM      4  C   UNL     1      47.973   4.266  17.379  0.00  0.00    +0.000 A 
ATOM      5  C   UNL     1      47.611   4.580  16.064  0.00  0.00    +0.000 A 
ATOM      6  C   UNL     1      48.088   5.741  15.456  0.00  0.00    +0.000 A 
ATOM      7  C   UNL     1      48.904   6.553  16.252  0.00  0.00    +0.000 A 
ATOM      8  N   UNL     1      49.275   6.290  17.526  0.00  0.00    +0.000 NA
BRANCH   3   9
ATOM      9  C   UNL     1      49.134   4.858  19.500  0.00  0.00    +0.000 C 
ATOM     10  O   UNL     1      48.528   4.059  20.198  0.00  0.00    +0.000 OA
BRANCH   9  12
ATOM     11  C   UNL     1      51.393   4.906  20.130  0.00  0.00    +0.000 C 
ATOM     12  O   UNL     1      50.185   5.624  19.893  0.00  0.00    +0.000 OA
ENDBRANCH   9  12
ENDBRANCH   3   9
ENDBRANCH   1   6
BRANCH   1  13
ATOM     13  C   UNL     1      46.382   5.887  13.639  0.00  0.00    +0.000 C 
BRANCH  13  14
ATOM     14  C   UNL     1      46.179   6.493  12.210  0.00  0.00    +0.000 C 
ATOM     15  C   UNL     1      45.224   7.708  12.308  0.00  0.00    +0.000 C 
ATOM     16  C   UNL     1      47.521   7.014  11.643  0.00  0.00    +0.000 C 
BRANCH  14  17
ATOM     17  C   UNL     1      45.644   5.385  11.272  0.00  0.00    +0.000 A 
ATOM     18  C   UNL     1      45.001   4.228  11.752  0.00  0.00    +0.000 A 
ATOM     19  C   UNL     1      44.513   3.249  10.882  0.00  0.00    +0.000 A 
ATOM     20  C   UNL     1      44.667   3.404   9.513  0.00  0.00    +0.000 A 
ATOM     21  C   UNL     1      45.304   4.527   9.003  0.00  0.00    +0.000 A 
ATOM     22  C   UNL     1      45.785   5.510   9.874  0.00  0.00    +0.000 A 
BRANCH  20  23
ATOM     23  O   UNL     1      44.204   2.477   8.632  0.00  0.00    +0.000 OA
ATOM     24  H   UNL     1      43.409   2.066   9.005  0.00  0.00    +0.000 HD
ENDBRANCH  20  23
ENDBRANCH  14  17
ENDBRANCH  13  14
ENDBRANCH   1  13
TORSDOF 7
ENDMDL
MODEL 9
REMARK VINA RESULT:    -5.380      4.572      7.437
REMARK INTER + INTRA:          -7.361
REMARK INTER:                  -6.256
REMARK INTRA:                  -1.104
REMARK UNBOUND:                 0.064
REMARK  Name = 
REMARK  10 active torsions:
REMARK  status: ('A' for Active; 'I' for Inactive)
REMARK    1  A    between atoms: C_1  and  O_2
REMARK    2  A    between atoms: O_2  and  C_3
REMARK    3  A    between atoms: C_3  and  C_5
REMARK    4  A    between atoms: C_8  and  N_9
REMARK    5  A    between atoms: N_9  and  C_10
REMARK    6  A    between atoms: C_10  and  C_11
REMARK    7  A    between atoms: C_11  and  C_12
REMARK    8  A    between atoms: C_11  and  C_13
REMARK    9  A    between atoms: C_11  and  C_14
REMARK   10  A    between atoms: C_17  and  O_18
REMARK                            x       y       z     vdW  Elec       q    Type
REMARK                         _______ _______ _______ _____ _____    ______ ____
ROOT
ATOM      1  N   UNL     1      46.347   4.073  13.750  0.00  0.00    +0.000 N 
ATOM      2  H   UNL     1      46.384   3.079  13.541  0.00  0.00    +0.000 HD
ENDROOT
BRANCH   1   6
ATOM      3  C   UNL     1      48.895   4.829  16.949  0.00  0.00    +0.000 A 
ATOM      4  C   UNL     1      48.558   5.900  16.130  0.00  0.00    +0.000 A 
ATOM      5  C   UNL     1      47.683   5.678  15.062  0.00  0.00    +0.000 A 
ATOM      6  C   UNL     1      47.138   4.413  14.842  0.00  0.00    +0.000 A 
ATOM      7  C   UNL     1      47.550   3.412  15.730  0.00  0.00    +0.000 A 
ATOM      8  N   UNL     1      48.395   3.581  16.772  0.00  0.00    +0.000 NA
BRANCH   3   9
ATOM      9  C   UNL     1      49.879   5.037  18.056  0.00  0.00    +0.000 C 
ATOM     10  O   UNL     1      50.924   4.412  18.167  0.00  0.00    +0.000 OA
BRANCH   9  12
ATOM     11  C   UNL     1      48.447   5.548  19.842  0.00  0.00    +0.000 C 
ATOM     12  O   UNL     1      49.427   5.993  18.909  0.00  0.00    +0.000 OA
ENDBRANCH   9  12
ENDBRANCH   3   9
ENDBRANCH   1   6
BRANCH   1  13
ATOM     13  C   UNL     1      45.056   4.715  13.499  0.00  0.00    +0.000 C 
BRANCH  13  14
ATOM     14  C   UNL     1      45.005   5.446  12.116  0.00  0.00    +0.000 C 
ATOM     15  C   UNL     1      45.400   4.446  11.002  0.00  0.00    +0.000 C 
ATOM     16  C   UNL     1      43.567   5.928  11.806  0.00  0.00    +0.000 C 
BRANCH  14  17
ATOM     17  C   UNL     1      45.936   6.680  12.172  0.00  0.00    +0.000 A 
ATOM     18  C   UNL     1      47.218   6.691  11.589  0.00  0.00    +0.000 A 
ATOM     19  C   UNL     1      48.035   7.825  11.640  0.00  0.00    +0.000 A 
ATOM     20  C   UNL     1      47.588   8.968  12.283  0.00  0.00    +0.000 A 
ATOM     21  C   UNL     1      46.333   8.992  12.877  0.00  0.00    +0.000 A 
ATOM     22  C   UNL     1      45.514   7.860  12.819  0.00  0.00    +0.000 A 
BRANCH  20  23
ATOM     23  O   UNL     1      48.348  10.094  12.352  0.00  0.00    +0.000 OA
ATOM     24  H   UNL     1      48.821  10.096  13.198  0.00  0.00    +0.000 HD
ENDBRANCH  20  23
ENDBRANCH  14  17
ENDBRANCH  13  14
ENDBRANCH   1  13
TORSDOF 7
ENDMDL
