MODEL 1
REMARK VINA RESULT:    -6.802      0.000      0.000
REMARK INTER + INTRA:          -8.081
REMARK INTER:                  -7.598
REMARK INTRA:                  -0.483
REMARK UNBOUND:                -0.483
REMARK  Name = 
REMARK  2 active torsions:
REMARK  status: ('A' for Active; 'I' for Inactive)
REMARK    1  A    between atoms: C_7  and  C_8
REMARK    2  A    between atoms: C_8  and  N_9
REMARK                            x       y       z     vdW  Elec       q    Type
REMARK                         _______ _______ _______ _____ _____    ______ ____
ROOT
ATOM      1  N   UNL     1      50.197   7.380  11.983  0.00  0.00    +0.000 NA
ATOM      2  C   UNL     1      49.294   8.132  12.506  0.00  0.00    +0.000 C 
ATOM      3  N   UNL     1      49.585   9.351  13.012  0.00  0.00    +0.000 N 
ATOM      4  N   UNL     1      47.982   7.780  12.665  0.00  0.00    +0.000 N 
ATOM      5  C   UNL     1      46.946   8.671  12.115  0.00  0.00    +0.000 C 
ATOM      6  C   UNL     1      45.650   8.468  12.894  0.00  0.00    +0.000 C 
ATOM      7  C   UNL     1      45.162   7.012  12.832  0.00  0.00    +0.000 C 
ATOM      8  C   UNL     1      46.310   6.092  13.297  0.00  0.00    +0.000 C 
ATOM      9  C   UNL     1      47.631   6.358  12.562  0.00  0.00    +0.000 C 
ATOM     10  H   UNL     1      51.086   7.882  11.969  0.00  0.00    +0.000 HD
ATOM     11  H   UNL     1      50.560   9.493  13.237  0.00  0.00    +0.000 HD
ATOM     12  H   UNL     1      48.992   9.571  13.804  0.00  0.00    +0.000 HD
ENDROOT
BRANCH   7  13
ATOM     13  C   UNL     1      44.652   6.580  11.444  0.00  0.00    +0.000 C 
BRANCH  13  14
ATOM     14  N   UNL     1      44.405   5.152  11.289  0.00  0.00    +0.000 N 
ATOM     15  C   UNL     1      43.576   4.430  12.112  0.00  0.00    +0.000 A 
ATOM     16  C   UNL     1      43.419   3.176  11.571  0.00  0.00    +0.000 A 
ATOM     17  C   UNL     1      44.154   3.136  10.359  0.00  0.00    +0.000 A 
ATOM     18  C   UNL     1      44.312   2.159   9.355  0.00  0.00    +0.000 A 
ATOM     19  C   UNL     1      45.113   2.437   8.244  0.00  0.00    +0.000 A 
ATOM     20  C   UNL     1      45.778   3.656   8.147  0.00  0.00    +0.000 A 
ATOM     21 CL   UNL     1      46.763   3.971   6.768  0.00  0.00    +0.000 Cl
ATOM     22  C   UNL     1      45.649   4.640   9.133  0.00  0.00    +0.000 A 
ATOM     23  C   UNL     1      44.805   4.369  10.223  0.00  0.00    +0.000 A 
ENDBRANCH  13  14
ENDBRANCH   7  13
TORSDOF 2
ENDMDL
MODEL 2
REMARK VINA RESULT:    -6.248      3.438      6.685
REMARK INTER + INTRA:          -7.461
REMARK INTER:                  -6.993
REMARK INTRA:                  -0.468
REMARK UNBOUND:                -0.483
REMARK  Name = 
REMARK  2 active torsions:
REMARK  status: ('A' for Active; 'I' for Inactive)
REMARK    1  A    between atoms: C_7  and  C_8
REMARK    2  A    between atoms: C_8  and  N_9
REMARK                            x       y       z     vdW  Elec       q    Type
REMARK                         _______ _______ _______ _____ _____    ______ ____
ROOT
ATOM      1  N   UNL     1      45.912   5.139   8.393  0.00  0.00    +0.000 NA
ATOM      2  C   UNL     1      45.022   4.699   9.211  0.00  0.00    +0.000 C 
ATOM      3  N   UNL     1      43.873   4.133   8.781  0.00  0.00    +0.000 N 
ATOM      4  N   UNL     1      45.095   4.803  10.574  0.00  0.00    +0.000 N 
ATOM      5  C   UNL     1      44.958   3.577  11.377  0.00  0.00    +0.000 C 
ATOM      6  C   UNL     1      44.453   3.948  12.768  0.00  0.00    +0.000 C 
ATOM      7  C   UNL     1      45.397   4.928  13.483  0.00  0.00    +0.000 C 
ATOM      8  C   UNL     1      45.621   6.147  12.564  0.00  0.00    +0.000 C 
ATOM      9  C   UNL     1      46.053   5.760  11.143  0.00  0.00    +0.000 C 
ATOM     10  H   UNL     1      45.626   4.923   7.437  0.00  0.00    +0.000 HD
ATOM     11  H   UNL     1      43.624   4.357   7.827  0.00  0.00    +0.000 HD
ATOM     12  H   UNL     1      43.106   4.328   9.414  0.00  0.00    +0.000 HD
ENDROOT
BRANCH   7  13
ATOM     13  C   UNL     1      46.746   4.309  13.898  0.00  0.00    +0.000 C 
BRANCH  13  14
ATOM     14  N   UNL     1      47.298   4.807  15.152  0.00  0.00    +0.000 N 
ATOM     15  C   UNL     1      47.147   4.165  16.357  0.00  0.00    +0.000 A 
ATOM     16  C   UNL     1      47.949   4.792  17.280  0.00  0.00    +0.000 A 
ATOM     17  C   UNL     1      48.637   5.837  16.614  0.00  0.00    +0.000 A 
ATOM     18  C   UNL     1      49.624   6.759  17.020  0.00  0.00    +0.000 A 
ATOM     19  C   UNL     1      50.128   7.679  16.096  0.00  0.00    +0.000 A 
ATOM     20  C   UNL     1      49.634   7.708  14.794  0.00  0.00    +0.000 A 
ATOM     21 CL   UNL     1      50.270   8.855  13.678  0.00  0.00    +0.000 Cl
ATOM     22  C   UNL     1      48.648   6.812  14.367  0.00  0.00    +0.000 A 
ATOM     23  C   UNL     1      48.181   5.861  15.290  0.00  0.00    +0.000 A 
ENDBRANCH  13  14
ENDBRANCH   7  13
TORSDOF 2
ENDMDL
MODEL 3
REMARK VINA RESULT:    -6.198      1.665      2.277
REMARK INTER + INTRA:          -7.406
REMARK INTER:                  -6.931
REMARK INTRA:                  -0.475
REMARK UNBOUND:                -0.483
REMARK  Name = 
REMARK  2 active torsions:
REMARK  status: ('A' for Active; 'I' for Inactive)
REMARK    1  A    between atoms: C_7  and  C_8
REMARK    2  A    between atoms: C_8  and  N_9
REMARK                            x       y       z     vdW  Elec       q    Type
REMARK                         _______ _______ _______ _____ _____    ______ ____
ROOT
ATOM      1  N   UNL     1      47.912   9.015  16.379  0.00  0.00    +0.000 NA
ATOM      2  C   UNL     1      48.397   8.077  15.645  0.00  0.00    +0.000 C 
ATOM      3  N   UNL     1      49.412   7.291  16.067  0.00  0.00    +0.000 N 
ATOM      4  N   UNL     1      48.002   7.806  14.363  0.00  0.00    +0.000 N 
ATOM      5  C   UNL     1      47.575   6.434  14.037  0.00  0.00    +0.000 C 
ATOM      6  C   UNL     1      47.781   6.191  12.545  0.00  0.00    +0.000 C 
ATOM      7  C   UNL     1      46.996   7.192  11.683  0.00  0.00    +0.000 C 
ATOM      8  C   UNL     1      47.372   8.620  12.130  0.00  0.00    +0.000 C 
ATOM      9  C   UNL     1      47.236   8.833  13.645  0.00  0.00    +0.000 C 
ATOM     10  H   UNL     1      48.366   8.995  17.293  0.00  0.00    +0.000 HD
ATOM     11  H   UNL     1      49.954   7.675  16.828  0.00  0.00    +0.000 HD
ATOM     12  H   UNL     1      50.010   7.015  15.296  0.00  0.00    +0.000 HD
ENDROOT
BRANCH   7  13
ATOM     13  C   UNL     1      45.469   6.996  11.727  0.00  0.00    +0.000 C 
BRANCH  13  14
ATOM     14  N   UNL     1      45.022   5.611  11.800  0.00  0.00    +0.000 N 
ATOM     15  C   UNL     1      44.332   5.090  12.867  0.00  0.00    +0.000 A 
ATOM     16  C   UNL     1      43.900   3.831  12.526  0.00  0.00    +0.000 A 
ATOM     17  C   UNL     1      44.314   3.580  11.193  0.00  0.00    +0.000 A 
ATOM     18  C   UNL     1      44.108   2.508  10.301  0.00  0.00    +0.000 A 
ATOM     19  C   UNL     1      44.648   2.570   9.013  0.00  0.00    +0.000 A 
ATOM     20  C   UNL     1      45.413   3.668   8.626  0.00  0.00    +0.000 A 
ATOM     21 CL   UNL     1      46.070   3.717   7.035  0.00  0.00    +0.000 Cl
ATOM     22  C   UNL     1      45.643   4.741   9.494  0.00  0.00    +0.000 A 
ATOM     23  C   UNL     1      45.057   4.690  10.770  0.00  0.00    +0.000 A 
ENDBRANCH  13  14
ENDBRANCH   7  13
TORSDOF 2
ENDMDL
MODEL 4
REMARK VINA RESULT:    -5.967      2.357      6.209
REMARK INTER + INTRA:          -7.148
REMARK INTER:                  -6.762
REMARK INTRA:                  -0.386
REMARK UNBOUND:                -0.483
REMARK  Name = 
REMARK  2 active torsions:
REMARK  status: ('A' for Active; 'I' for Inactive)
REMARK    1  A    between atoms: C_7  and  C_8
REMARK    2  A    between atoms: C_8  and  N_9
REMARK                            x       y       z     vdW  Elec       q    Type
REMARK                         _______ _______ _______ _____ _____    ______ ____
ROOT
ATOM      1  N   UNL     1      45.718   2.999   8.217  0.00  0.00    +0.000 NA
ATOM      2  C   UNL     1      45.070   2.739   9.297  0.00  0.00    +0.000 C 
ATOM      3  N   UNL     1      44.479   1.541   9.506  0.00  0.00    +0.000 N 
ATOM      4  N   UNL     1      44.852   3.632  10.310  0.00  0.00    +0.000 N 
ATOM      5  C   UNL     1      45.248   3.252  11.677  0.00  0.00    +0.000 C 
ATOM      6  C   UNL     1      44.402   4.034  12.676  0.00  0.00    +0.000 C 
ATOM      7  C   UNL     1      44.558   5.553  12.500  0.00  0.00    +0.000 C 
ATOM      8  C   UNL     1      44.256   5.907  11.028  0.00  0.00    +0.000 C 
ATOM      9  C   UNL     1      45.055   5.059  10.029  0.00  0.00    +0.000 C 
ATOM     10  H   UNL     1      45.750   2.161   7.634  0.00  0.00    +0.000 HD
ATOM     11  H   UNL     1      44.312   1.002   8.667  0.00  0.00    +0.000 HD
ATOM     12  H   UNL     1      43.632   1.639  10.053  0.00  0.00    +0.000 HD
ENDROOT
BRANCH   7  13
ATOM     13  C   UNL     1      45.940   6.094  12.913  0.00  0.00    +0.000 C 
BRANCH  13  14
ATOM     14  N   UNL     1      46.190   7.488  12.569  0.00  0.00    +0.000 N 
ATOM     15  C   UNL     1      45.303   8.505  12.822  0.00  0.00    +0.000 A 
ATOM     16  C   UNL     1      45.929   9.699  12.555  0.00  0.00    +0.000 A 
ATOM     17  C   UNL     1      47.257   9.406  12.150  0.00  0.00    +0.000 A 
ATOM     18  C   UNL     1      48.367  10.210  11.820  0.00  0.00    +0.000 A 
ATOM     19  C   UNL     1      49.577   9.603  11.469  0.00  0.00    +0.000 A 
ATOM     20  C   UNL     1      49.673   8.215  11.412  0.00  0.00    +0.000 A 
ATOM     21 CL   UNL     1      51.174   7.493  10.971  0.00  0.00    +0.000 Cl
ATOM     22  C   UNL     1      48.585   7.393  11.723  0.00  0.00    +0.000 A 
ATOM     23  C   UNL     1      47.387   8.012  12.120  0.00  0.00    +0.000 A 
ENDBRANCH  13  14
ENDBRANCH   7  13
TORSDOF 2
ENDMDL
MODEL 5
REMARK VINA RESULT:    -5.965      3.503      7.051
REMARK INTER + INTRA:          -7.146
REMARK INTER:                  -6.740
REMARK INTRA:                  -0.405
REMARK UNBOUND:                -0.483
REMARK  Name = 
REMARK  2 active torsions:
REMARK  status: ('A' for Active; 'I' for Inactive)
REMARK    1  A    between atoms: C_7  and  C_8
REMARK    2  A    between atoms: C_8  and  N_9
REMARK                            x       y       z     vdW  Elec       q    Type
REMARK                         _______ _______ _______ _____ _____    ______ ____
ROOT
ATOM      1  N   UNL     1      44.521   2.351   9.720  0.00  0.00    +0.000 NA
ATOM      2  C   UNL     1      44.156   2.890  10.830  0.00  0.00    +0.000 C 
ATOM      3  N   UNL     1      43.139   2.392  11.567  0.00  0.00    +0.000 N 
ATOM      4  N   UNL     1      44.694   4.034  11.355  0.00  0.00    +0.000 N 
ATOM      5  C   UNL     1      45.214   3.995  12.732  0.00  0.00    +0.000 C 
ATOM      6  C   UNL     1      45.174   5.403  13.319  0.00  0.00    +0.000 C 
ATOM      7  C   UNL     1      45.998   6.398  12.486  0.00  0.00    +0.000 C 
ATOM      8  C   UNL     1      45.515   6.328  11.022  0.00  0.00    +0.000 C 
ATOM      9  C   UNL     1      45.483   4.897  10.466  0.00  0.00    +0.000 C 
ATOM     10  H   UNL     1      43.975   1.502   9.565  0.00  0.00    +0.000 HD
ATOM     11  H   UNL     1      42.505   1.792  11.058  0.00  0.00    +0.000 HD
ATOM     12  H   UNL     1      42.638   3.130  12.049  0.00  0.00    +0.000 HD
ENDROOT
BRANCH   7  13
ATOM     13  C   UNL     1      47.520   6.172  12.564  0.00  0.00    +0.000 C 
BRANCH  13  14
ATOM     14  N   UNL     1      48.171   6.723  13.746  0.00  0.00    +0.000 N 
ATOM     15  C   UNL     1      48.705   7.987  13.801  0.00  0.00    +0.000 A 
ATOM     16  C   UNL     1      49.055   8.249  15.104  0.00  0.00    +0.000 A 
ATOM     17  C   UNL     1      48.699   7.118  15.882  0.00  0.00    +0.000 A 
ATOM     18  C   UNL     1      48.752   6.837  17.262  0.00  0.00    +0.000 A 
ATOM     19  C   UNL     1      48.296   5.601  17.731  0.00  0.00    +0.000 A 
ATOM     20  C   UNL     1      47.826   4.643  16.837  0.00  0.00    +0.000 A 
ATOM     21 CL   UNL     1      47.275   3.126  17.442  0.00  0.00    +0.000 Cl
ATOM     22  C   UNL     1      47.772   4.890  15.462  0.00  0.00    +0.000 A 
ATOM     23  C   UNL     1      48.188   6.152  15.005  0.00  0.00    +0.000 A 
ENDBRANCH  13  14
ENDBRANCH   7  13
TORSDOF 2
ENDMDL
MODEL 6
REMARK VINA RESULT:    -5.869      4.084      7.529
REMARK INTER + INTRA:          -7.038
REMARK INTER:                  -6.542
REMARK INTRA:                  -0.496
REMARK UNBOUND:                -0.483
REMARK  Name = 
REMARK  2 active torsions:
REMARK  status: ('A' for Active; 'I' for Inactive)
REMARK    1  A    between atoms: C_7  and  C_8
REMARK    2  A    between atoms: C_8  and  N_9
REMARK                            x       y       z     vdW  Elec       q    Type
REMARK                         _______ _______ _______ _____ _____    ______ ____
ROOT
ATOM      1  N   UNL     1      42.674   5.278  13.234  0.00  0.00    +0.000 NA
ATOM      2  C   UNL     1      43.451   5.670  12.287  0.00  0.00    +0.000 C 
ATOM      3  N   UNL     1      42.994   5.905  11.037  0.00  0.00    +0.000 N 
ATOM      4  N   UNL     1      44.805   5.833  12.406  0.00  0.00    +0.000 N 
ATOM      5  C   UNL     1      45.389   7.132  12.031  0.00  0.00    +0.000 C 
ATOM      6  C   UNL     1      46.850   6.926  11.641  0.00  0.00    +0.000 C 
ATOM      7  C   UNL     1      47.670   6.304  12.783  0.00  0.00    +0.000 C 
ATOM      8  C   UNL     1      46.966   5.008  13.239  0.00  0.00    +0.000 C 
ATOM      9  C   UNL     1      45.477   5.210  13.553  0.00  0.00    +0.000 C 
ATOM     10  H   UNL     1      41.712   5.254  12.890  0.00  0.00    +0.000 HD
ATOM     11  H   UNL     1      42.110   5.466  10.822  0.00  0.00    +0.000 HD
ATOM     12  H   UNL     1      43.694   5.677  10.340  0.00  0.00    +0.000 HD
ENDROOT
BRANCH   7  13
ATOM     13  C   UNL     1      47.894   7.247  13.980  0.00  0.00    +0.000 C 
BRANCH  13  14
ATOM     14  N   UNL     1      49.186   7.115  14.641  0.00  0.00    +0.000 N 
ATOM     15  C   UNL     1      50.287   7.868  14.316  0.00  0.00    +0.000 A 
ATOM     16  C   UNL     1      51.263   7.631  15.254  0.00  0.00    +0.000 A 
ATOM     17  C   UNL     1      50.734   6.720  16.204  0.00  0.00    +0.000 A 
ATOM     18  C   UNL     1      51.235   6.172  17.402  0.00  0.00    +0.000 A 
ATOM     19  C   UNL     1      50.440   5.292  18.142  0.00  0.00    +0.000 A 
ATOM     20  C   UNL     1      49.177   4.933  17.680  0.00  0.00    +0.000 A 
ATOM     21 CL   UNL     1      48.220   3.842  18.610  0.00  0.00    +0.000 Cl
ATOM     22  C   UNL     1      48.658   5.452  16.490  0.00  0.00    +0.000 A 
ATOM     23  C   UNL     1      49.446   6.372  15.777  0.00  0.00    +0.000 A 
ENDBRANCH  13  14
ENDBRANCH   7  13
TORSDOF 2
ENDMDL
MODEL 7
REMARK VINA RESULT:    -5.674      4.835      6.160
REMARK INTER + INTRA:          -6.820
REMARK INTER:                  -6.437
REMARK INTRA:                  -0.383
REMARK UNBOUND:                -0.483
REMARK  Name = 
REMARK  2 active torsions:
REMARK  status: ('A' for Active; 'I' for Inactive)
REMARK    1  A    between atoms: C_7  and  C_8
REMARK    2  A    between atoms: C_8  and  N_9
REMARK                            x       y       z     vdW  Elec       q    Type
REMARK                         _______ _______ _______ _____ _____    ______ ____
ROOT
ATOM      1  N   UNL     1      48.580   4.021  20.782  0.00  0.00    +0.000 NA
ATOM      2  C   UNL     1      49.540   4.532  20.095  0.00  0.00    +0.000 C 
ATOM      3  N   UNL     1      50.821   4.500  20.523  0.00  0.00    +0.000 N 
ATOM      4  N   UNL     1      49.382   5.205  18.914  0.00  0.00    +0.000 N 
ATOM      5  C   UNL     1      50.156   4.757  17.744  0.00  0.00    +0.000 C 
ATOM      6  C   UNL     1      50.328   5.929  16.783  0.00  0.00    +0.000 C 
ATOM      7  C   UNL     1      48.977   6.497  16.318  0.00  0.00    +0.000 C 
ATOM      8  C   UNL     1      48.138   6.843  17.566  0.00  0.00    +0.000 C 
ATOM      9  C   UNL     1      48.037   5.682  18.565  0.00  0.00    +0.000 C 
ATOM     10  H   UNL     1      48.966   3.564  21.610  0.00  0.00    +0.000 HD
ATOM     11  H   UNL     1      50.931   4.344  21.515  0.00  0.00    +0.000 HD
ATOM     12  H   UNL     1      51.330   5.324  20.224  0.00  0.00    +0.000 HD
ENDROOT
BRANCH   7  13
ATOM     13  C   UNL     1      48.191   5.560  15.381  0.00  0.00    +0.000 C 
BRANCH  13  14
ATOM     14  N   UNL     1      47.828   6.132  14.091  0.00  0.00    +0.000 N 
ATOM     15  C   UNL     1      48.612   7.031  13.410  0.00  0.00    +0.000 A 
ATOM     16  C   UNL     1      48.075   7.209  12.158  0.00  0.00    +0.000 A 
ATOM     17  C   UNL     1      46.936   6.369  12.056  0.00  0.00    +0.000 A 
ATOM     18  C   UNL     1      46.038   6.080  11.009  0.00  0.00    +0.000 A 
ATOM     19  C   UNL     1      44.999   5.169  11.224  0.00  0.00    +0.000 A 
ATOM     20  C   UNL     1      44.833   4.579  12.475  0.00  0.00    +0.000 A 
ATOM     21 CL   UNL     1      43.541   3.464  12.714  0.00  0.00    +0.000 Cl
ATOM     22  C   UNL     1      45.702   4.856  13.535  0.00  0.00    +0.000 A 
ATOM     23  C   UNL     1      46.770   5.737  13.295  0.00  0.00    +0.000 A 
ENDBRANCH  13  14
ENDBRANCH   7  13
TORSDOF 2
ENDMDL
MODEL 8
REMARK VINA RESULT:    -5.666      4.510      5.515
REMARK INTER + INTRA:          -6.811
REMARK INTER:                  -6.654
REMARK INTRA:                  -0.158
REMARK UNBOUND:                -0.483
REMARK  Name = 
REMARK  2 active torsions:
REMARK  status: ('A' for Active; 'I' for Inactive)
REMARK    1  A    between atoms: C_7  and  C_8
REMARK    2  A    between atoms: C_8  and  N_9
REMARK                            x       y       z     vdW  Elec       q    Type
REMARK                         _______ _______ _______ _____ _____    ______ ____
ROOT
ATOM      1  N   UNL     1      51.768   2.894  18.502  0.00  0.00    +0.000 NA
ATOM      2  C   UNL     1      51.060   3.968  18.527  0.00  0.00    +0.000 C 
ATOM      3  N   UNL     1      51.439   5.058  19.230  0.00  0.00    +0.000 N 
ATOM      4  N   UNL     1      49.845   4.116  17.915  0.00  0.00    +0.000 N 
ATOM      5  C   UNL     1      49.662   5.244  16.986  0.00  0.00    +0.000 C 
ATOM      6  C   UNL     1      48.178   5.594  16.916  0.00  0.00    +0.000 C 
ATOM      7  C   UNL     1      47.325   4.402  16.453  0.00  0.00    +0.000 C 
ATOM      8  C   UNL     1      47.631   3.198  17.368  0.00  0.00    +0.000 C 
ATOM      9  C   UNL     1      49.132   2.903  17.495  0.00  0.00    +0.000 C 
ATOM     10  H   UNL     1      52.634   3.051  19.021  0.00  0.00    +0.000 HD
ATOM     11  H   UNL     1      52.115   4.875  19.959  0.00  0.00    +0.000 HD
ATOM     12  H   UNL     1      50.636   5.559  19.594  0.00  0.00    +0.000 HD
ENDROOT
BRANCH   7  13
ATOM     13  C   UNL     1      47.529   4.022  14.974  0.00  0.00    +0.000 C 
BRANCH  13  14
ATOM     14  N   UNL     1      47.081   5.017  14.008  0.00  0.00    +0.000 N 
ATOM     15  C   UNL     1      47.729   6.207  13.786  0.00  0.00    +0.000 A 
ATOM     16  C   UNL     1      47.161   6.807  12.688  0.00  0.00    +0.000 A 
ATOM     17  C   UNL     1      46.146   5.943  12.202  0.00  0.00    +0.000 A 
ATOM     18  C   UNL     1      45.287   5.991  11.086  0.00  0.00    +0.000 A 
ATOM     19  C   UNL     1      44.384   4.947  10.866  0.00  0.00    +0.000 A 
ATOM     20  C   UNL     1      44.311   3.884  11.763  0.00  0.00    +0.000 A 
ATOM     21 CL   UNL     1      43.186   2.613  11.470  0.00  0.00    +0.000 Cl
ATOM     22  C   UNL     1      45.143   3.815  12.884  0.00  0.00    +0.000 A 
ATOM     23  C   UNL     1      46.079   4.847  13.071  0.00  0.00    +0.000 A 
ENDBRANCH  13  14
ENDBRANCH   7  13
TORSDOF 2
ENDMDL
MODEL 9
REMARK VINA RESULT:    -5.572      4.862      7.458
REMARK INTER + INTRA:          -6.706
REMARK INTER:                  -6.219
REMARK INTRA:                  -0.487
REMARK UNBOUND:                -0.483
REMARK  Name = 
REMARK  2 active torsions:
REMARK  status: ('A' for Active; 'I' for Inactive)
REMARK    1  A    between atoms: C_7  and  C_8
REMARK    2  A    between atoms: C_8  and  N_9
REMARK                            x       y       z     vdW  Elec       q    Type
REMARK                         _______ _______ _______ _____ _____    ______ ____
ROOT
ATOM      1  N   UNL     1      42.962   6.437  11.793  0.00  0.00    +0.000 NA
ATOM      2  C   UNL     1      44.235   6.571  11.662  0.00  0.00    +0.000 C 
ATOM      3  N   UNL     1      44.776   7.462  10.802  0.00  0.00    +0.000 N 
ATOM      4  N   UNL     1      45.170   5.811  12.311  0.00  0.00    +0.000 N 
ATOM      5  C   UNL     1      46.213   6.499  13.090  0.00  0.00    +0.000 C 
ATOM      6  C   UNL     1      47.438   5.594  13.189  0.00  0.00    +0.000 C 
ATOM      7  C   UNL     1      47.108   4.246  13.849  0.00  0.00    +0.000 C 
ATOM      8  C   UNL     1      45.929   3.605  13.087  0.00  0.00    +0.000 C 
ATOM      9  C   UNL     1      44.731   4.550  12.924  0.00  0.00    +0.000 C 
ATOM     10  H   UNL     1      42.490   7.133  11.214  0.00  0.00    +0.000 HD
ATOM     11  H   UNL     1      44.152   7.773  10.070  0.00  0.00    +0.000 HD
ATOM     12  H   UNL     1      45.648   7.119  10.417  0.00  0.00    +0.000 HD
ENDROOT
BRANCH   7  13
ATOM     13  C   UNL     1      46.788   4.346  15.353  0.00  0.00    +0.000 C 
BRANCH  13  14
ATOM     14  N   UNL     1      47.851   3.900  16.245  0.00  0.00    +0.000 N 
ATOM     15  C   UNL     1      48.246   2.591  16.363  0.00  0.00    +0.000 A 
ATOM     16  C   UNL     1      49.386   2.553  17.130  0.00  0.00    +0.000 A 
ATOM     17  C   UNL     1      49.718   3.889  17.472  0.00  0.00    +0.000 A 
ATOM     18  C   UNL     1      50.795   4.469  18.173  0.00  0.00    +0.000 A 
ATOM     19  C   UNL     1      50.846   5.856  18.332  0.00  0.00    +0.000 A 
ATOM     20  C   UNL     1      49.821   6.656  17.832  0.00  0.00    +0.000 A 
ATOM     21 CL   UNL     1      49.906   8.364  18.047  0.00  0.00    +0.000 Cl
ATOM     22  C   UNL     1      48.735   6.108  17.143  0.00  0.00    +0.000 A 
ATOM     23  C   UNL     1      48.717   4.716  16.948  0.00  0.00    +0.000 A 
ENDBRANCH  13  14
ENDBRANCH   7  13
TORSDOF 2
ENDMDL
