MODEL 1
REMARK VINA RESULT:    -8.446      0.000      0.000
REMARK INTER + INTRA:         -11.703
REMARK INTER:                 -10.915
REMARK INTRA:                  -0.788
REMARK UNBOUND:                -0.788
REMARK  Name = 
REMARK  5 active torsions:
REMARK  status: ('A' for Active; 'I' for Inactive)
REMARK    1  A    between atoms: C_2  and  C_4
REMARK    2  A    between atoms: C_7  and  N_8
REMARK    3  A    between atoms: N_8  and  C_9
REMARK    4  A    between atoms: C_9  and  C_10
REMARK    5  A    between atoms: C_12  and  N_13
REMARK                            x       y       z     vdW  Elec       q    Type
REMARK                         _______ _______ _______ _____ _____    ______ ____
ROOT
ATOM      1  N   UNL     1      43.776   4.807  10.025  0.00  0.00    +0.000 N 
ATOM      2  H   UNL     1      42.912   5.040   9.538  0.00  0.00    +0.000 HD
ENDROOT
BRANCH   1   6
ATOM      3  C   UNL     1      46.345   2.283   7.814  0.00  0.00    +0.000 A 
ATOM      4  C   UNL     1      45.428   1.717   8.700  0.00  0.00    +0.000 A 
ATOM      5  C   UNL     1      44.559   2.540   9.430  0.00  0.00    +0.000 A 
ATOM      6  C   UNL     1      44.567   3.931   9.275  0.00  0.00    +0.000 A 
ATOM      7  C   UNL     1      45.501   4.481   8.384  0.00  0.00    +0.000 A 
ATOM      8  C   UNL     1      46.388   3.670   7.666  0.00  0.00    +0.000 A 
BRANCH   3  10
ATOM      9  N   UNL     1      48.431   2.075   6.571  0.00  0.00    +0.000 N 
ATOM     10  C   UNL     1      47.317   1.448   7.058  0.00  0.00    +0.000 C 
ATOM     11  O   UNL     1      47.148   0.246   6.904  0.00  0.00    +0.000 OA
ATOM     12  H   UNL     1      49.127   1.478   6.146  0.00  0.00    +0.000 HD
ATOM     13  H   UNL     1      48.723   2.986   6.891  0.00  0.00    +0.000 HD
ENDBRANCH   3  10
ENDBRANCH   1   6
BRANCH   1  14
ATOM     14  C   UNL     1      43.561   4.549  11.449  0.00  0.00    +0.000 C 
BRANCH  14  15
ATOM     15  C   UNL     1      44.834   4.721  12.256  0.00  0.00    +0.000 A 
ATOM     16  C   UNL     1      45.476   5.961  12.318  0.00  0.00    +0.000 A 
ATOM     17  C   UNL     1      46.684   6.097  13.010  0.00  0.00    +0.000 A 
ATOM     18  C   UNL     1      47.192   4.945  13.614  0.00  0.00    +0.000 A 
ATOM     19  C   UNL     1      46.493   3.753  13.524  0.00  0.00    +0.000 A 
ATOM     20  N   UNL     1      45.330   3.614  12.860  0.00  0.00    +0.000 NA
BRANCH  17  21
ATOM     21  N   UNL     1      47.350   7.300  13.112  0.00  0.00    +0.000 N 
ATOM     22  C   UNL     1      46.662   8.588  13.283  0.00  0.00    +0.000 C 
ATOM     23  C   UNL     1      46.981   9.527  12.112  0.00  0.00    +0.000 C 
ATOM     24  O   UNL     1      48.399   9.672  11.922  0.00  0.00    +0.000 OA
ATOM     25  C   UNL     1      48.999   8.394  11.651  0.00  0.00    +0.000 C 
ATOM     26  C   UNL     1      48.787   7.409  12.815  0.00  0.00    +0.000 C 
ENDBRANCH  17  21
ENDBRANCH  14  15
ENDBRANCH   1  14
TORSDOF 5
ENDMDL
MODEL 2
REMARK VINA RESULT:    -7.949      1.969      2.874
REMARK INTER + INTRA:         -11.060
REMARK INTER:                 -10.636
REMARK INTRA:                  -0.424
REMARK UNBOUND:                -0.788
REMARK  Name = 
REMARK  5 active torsions:
REMARK  status: ('A' for Active; 'I' for Inactive)
REMARK    1  A    between atoms: C_2  and  C_4
REMARK    2  A    between atoms: C_7  and  N_8
REMARK    3  A    between atoms: N_8  and  C_9
REMARK    4  A    between atoms: C_9  and  C_10
REMARK    5  A    between atoms: C_12  and  N_13
REMARK                            x       y       z     vdW  Elec       q    Type
REMARK                         _______ _______ _______ _____ _____    ______ ____
ROOT
ATOM      1  N   UNL     1      43.768   3.780  10.598  0.00  0.00    +0.000 N 
ATOM      2  H   UNL     1      44.071   3.401  11.494  0.00  0.00    +0.000 HD
ENDROOT
BRANCH   1   6
ATOM      3  C   UNL     1      46.409   2.655   7.497  0.00  0.00    +0.000 A 
ATOM      4  C   UNL     1      45.915   1.678   8.362  0.00  0.00    +0.000 A 
ATOM      5  C   UNL     1      45.027   2.032   9.386  0.00  0.00    +0.000 A 
ATOM      6  C   UNL     1      44.595   3.353   9.555  0.00  0.00    +0.000 A 
ATOM      7  C   UNL     1      45.109   4.322   8.679  0.00  0.00    +0.000 A 
ATOM      8  C   UNL     1      46.014   3.982   7.665  0.00  0.00    +0.000 A 
BRANCH   3  10
ATOM      9  N   UNL     1      47.396   3.126   5.319  0.00  0.00    +0.000 N 
ATOM     10  C   UNL     1      47.392   2.327   6.429  0.00  0.00    +0.000 C 
ATOM     11  O   UNL     1      48.186   1.404   6.548  0.00  0.00    +0.000 OA
ATOM     12  H   UNL     1      48.132   2.952   4.648  0.00  0.00    +0.000 HD
ATOM     13  H   UNL     1      46.945   4.028   5.299  0.00  0.00    +0.000 HD
ENDBRANCH   3  10
ENDBRANCH   1   6
BRANCH   1  14
ATOM     14  C   UNL     1      43.388   5.191  10.689  0.00  0.00    +0.000 C 
BRANCH  14  15
ATOM     15  C   UNL     1      44.420   6.009  11.442  0.00  0.00    +0.000 A 
ATOM     16  C   UNL     1      45.399   5.382  12.217  0.00  0.00    +0.000 A 
ATOM     17  C   UNL     1      46.306   6.145  12.961  0.00  0.00    +0.000 A 
ATOM     18  C   UNL     1      46.170   7.533  12.882  0.00  0.00    +0.000 A 
ATOM     19  C   UNL     1      45.184   8.084  12.080  0.00  0.00    +0.000 A 
ATOM     20  N   UNL     1      44.308   7.357  11.362  0.00  0.00    +0.000 NA
BRANCH  17  21
ATOM     21  N   UNL     1      47.298   5.576  13.730  0.00  0.00    +0.000 N 
ATOM     22  C   UNL     1      47.152   4.274  14.397  0.00  0.00    +0.000 C 
ATOM     23  C   UNL     1      47.296   4.432  15.917  0.00  0.00    +0.000 C 
ATOM     24  O   UNL     1      48.518   5.103  16.267  0.00  0.00    +0.000 OA
ATOM     25  C   UNL     1      48.554   6.413  15.673  0.00  0.00    +0.000 C 
ATOM     26  C   UNL     1      48.487   6.341  14.137  0.00  0.00    +0.000 C 
ENDBRANCH  17  21
ENDBRANCH  14  15
ENDBRANCH   1  14
TORSDOF 5
ENDMDL
MODEL 3
REMARK VINA RESULT:    -7.444      1.554      2.426
REMARK INTER + INTRA:         -10.407
REMARK INTER:                  -9.767
REMARK INTRA:                  -0.641
REMARK UNBOUND:                -0.788
REMARK  Name = 
REMARK  5 active torsions:
REMARK  status: ('A' for Active; 'I' for Inactive)
REMARK    1  A    between atoms: C_2  and  C_4
REMARK    2  A    between atoms: C_7  and  N_8
REMARK    3  A    between atoms: N_8  and  C_9
REMARK    4  A    between atoms: C_9  and  C_10
REMARK    5  A    between atoms: C_12  and  N_13
REMARK                            x       y       z     vdW  Elec       q    Type
REMARK                         _______ _______ _______ _____ _____    ______ ____
ROOT
ATOM      1  N   UNL     1      43.788   4.926   9.959  0.00  0.00    +0.000 N 
ATOM      2  H   UNL     1      42.797   4.726   9.837  0.00  0.00    +0.000 HD
ENDROOT
BRANCH   1   6
ATOM      3  C   UNL     1      46.376   2.348   7.834  0.00  0.00    +0.000 A 
ATOM      4  C   UNL     1      45.404   1.802   8.673  0.00  0.00    +0.000 A 
ATOM      5  C   UNL     1      44.529   2.642   9.374  0.00  0.00    +0.000 A 
ATOM      6  C   UNL     1      44.585   4.034   9.235  0.00  0.00    +0.000 A 
ATOM      7  C   UNL     1      45.573   4.565   8.392  0.00  0.00    +0.000 A 
ATOM      8  C   UNL     1      46.467   3.735   7.704  0.00  0.00    +0.000 A 
BRANCH   3  10
ATOM      9  N   UNL     1      48.427   2.119   6.538  0.00  0.00    +0.000 N 
ATOM     10  C   UNL     1      47.355   1.492   7.112  0.00  0.00    +0.000 C 
ATOM     11  O   UNL     1      47.229   0.277   7.059  0.00  0.00    +0.000 OA
ATOM     12  H   UNL     1      49.132   1.516   6.136  0.00  0.00    +0.000 HD
ATOM     13  H   UNL     1      48.693   3.062   6.774  0.00  0.00    +0.000 HD
ENDBRANCH   3  10
ENDBRANCH   1   6
BRANCH   1  14
ATOM     14  C   UNL     1      44.128   5.235  11.349  0.00  0.00    +0.000 C 
BRANCH  14  15
ATOM     15  C   UNL     1      44.678   6.641  11.501  0.00  0.00    +0.000 A 
ATOM     16  C   UNL     1      45.945   6.854  12.051  0.00  0.00    +0.000 A 
ATOM     17  C   UNL     1      46.419   8.155  12.248  0.00  0.00    +0.000 A 
ATOM     18  C   UNL     1      45.566   9.196  11.873  0.00  0.00    +0.000 A 
ATOM     19  C   UNL     1      44.329   8.908  11.321  0.00  0.00    +0.000 A 
ATOM     20  N   UNL     1      43.866   7.659  11.128  0.00  0.00    +0.000 NA
BRANCH  17  21
ATOM     21  N   UNL     1      47.666   8.419  12.773  0.00  0.00    +0.000 N 
ATOM     22  C   UNL     1      48.841   8.719  11.943  0.00  0.00    +0.000 C 
ATOM     23  C   UNL     1      49.943   7.677  12.178  0.00  0.00    +0.000 C 
ATOM     24  O   UNL     1      50.264   7.551  13.574  0.00  0.00    +0.000 OA
ATOM     25  C   UNL     1      49.100   7.151  14.318  0.00  0.00    +0.000 C 
ATOM     26  C   UNL     1      47.966   8.183  14.194  0.00  0.00    +0.000 C 
ENDBRANCH  17  21
ENDBRANCH  14  15
ENDBRANCH   1  14
TORSDOF 5
ENDMDL
MODEL 4
REMARK VINA RESULT:    -6.869      3.193      7.730
REMARK INTER + INTRA:          -9.665
REMARK INTER:                  -9.105
REMARK INTRA:                  -0.560
REMARK UNBOUND:                -0.788
REMARK  Name = 
REMARK  5 active torsions:
REMARK  status: ('A' for Active; 'I' for Inactive)
REMARK    1  A    between atoms: C_2  and  C_4
REMARK    2  A    between atoms: C_7  and  N_8
REMARK    3  A    between atoms: N_8  and  C_9
REMARK    4  A    between atoms: C_9  and  C_10
REMARK    5  A    between atoms: C_12  and  N_13
REMARK                            x       y       z     vdW  Elec       q    Type
REMARK                         _______ _______ _______ _____ _____    ______ ____
ROOT
ATOM      1  N   UNL     1      47.128   5.584  13.383  0.00  0.00    +0.000 N 
ATOM      2  H   UNL     1      47.505   4.887  12.743  0.00  0.00    +0.000 HD
ENDROOT
BRANCH   1   6
ATOM      3  C   UNL     1      48.450   4.683  17.294  0.00  0.00    +0.000 A 
ATOM      4  C   UNL     1      48.847   5.880  16.697  0.00  0.00    +0.000 A 
ATOM      5  C   UNL     1      48.405   6.201  15.406  0.00  0.00    +0.000 A 
ATOM      6  C   UNL     1      47.545   5.354  14.697  0.00  0.00    +0.000 A 
ATOM      7  C   UNL     1      47.163   4.152  15.312  0.00  0.00    +0.000 A 
ATOM      8  C   UNL     1      47.616   3.812  16.592  0.00  0.00    +0.000 A 
BRANCH   3  10
ATOM      9  N   UNL     1      48.307   3.230  19.245  0.00  0.00    +0.000 N 
ATOM     10  C   UNL     1      48.937   4.284  18.642  0.00  0.00    +0.000 C 
ATOM     11  O   UNL     1      49.881   4.848  19.177  0.00  0.00    +0.000 OA
ATOM     12  H   UNL     1      48.711   2.909  20.115  0.00  0.00    +0.000 HD
ATOM     13  H   UNL     1      47.712   2.593  18.739  0.00  0.00    +0.000 HD
ENDBRANCH   3  10
ENDBRANCH   1   6
BRANCH   1  14
ATOM     14  C   UNL     1      45.722   5.886  13.113  0.00  0.00    +0.000 C 
BRANCH  14  15
ATOM     15  C   UNL     1      45.004   4.717  12.465  0.00  0.00    +0.000 A 
ATOM     16  C   UNL     1      45.237   4.392  11.125  0.00  0.00    +0.000 A 
ATOM     17  C   UNL     1      44.523   3.355  10.517  0.00  0.00    +0.000 A 
ATOM     18  C   UNL     1      43.588   2.687  11.311  0.00  0.00    +0.000 A 
ATOM     19  C   UNL     1      43.421   3.055  12.636  0.00  0.00    +0.000 A 
ATOM     20  N   UNL     1      44.104   4.052  13.229  0.00  0.00    +0.000 NA
BRANCH  17  21
ATOM     21  N   UNL     1      44.725   2.986   9.204  0.00  0.00    +0.000 N 
ATOM     22  C   UNL     1      44.978   1.598   8.789  0.00  0.00    +0.000 C 
ATOM     23  C   UNL     1      46.344   1.486   8.099  0.00  0.00    +0.000 C 
ATOM     24  O   UNL     1      46.470   2.424   7.016  0.00  0.00    +0.000 OA
ATOM     25  C   UNL     1      46.321   3.769   7.504  0.00  0.00    +0.000 C 
ATOM     26  C   UNL     1      44.941   3.988   8.149  0.00  0.00    +0.000 C 
ENDBRANCH  17  21
ENDBRANCH  14  15
ENDBRANCH   1  14
TORSDOF 5
ENDMDL
MODEL 5
REMARK VINA RESULT:    -6.673      5.117      8.152
REMARK INTER + INTRA:          -9.411
REMARK INTER:                  -8.863
REMARK INTRA:                  -0.548
REMARK UNBOUND:                -0.788
REMARK  Name = 
REMARK  5 active torsions:
REMARK  status: ('A' for Active; 'I' for Inactive)
REMARK    1  A    between atoms: C_2  and  C_4
REMARK    2  A    between atoms: C_7  and  N_8
REMARK    3  A    between atoms: N_8  and  C_9
REMARK    4  A    between atoms: C_9  and  C_10
REMARK    5  A    between atoms: C_12  and  N_13
REMARK                            x       y       z     vdW  Elec       q    Type
REMARK                         _______ _______ _______ _____ _____    ______ ____
ROOT
ATOM      1  N   UNL     1      48.545   4.699  17.137  0.00  0.00    +0.000 N 
ATOM      2  H   UNL     1      48.826   5.634  16.845  0.00  0.00    +0.000 HD
ENDROOT
BRANCH   1   6
ATOM      3  C   UNL     1      51.869   2.152  17.698  0.00  0.00    +0.000 A 
ATOM      4  C   UNL     1      51.984   3.505  18.017  0.00  0.00    +0.000 A 
ATOM      5  C   UNL     1      50.886   4.361  17.851  0.00  0.00    +0.000 A 
ATOM      6  C   UNL     1      49.653   3.885  17.390  0.00  0.00    +0.000 A 
ATOM      7  C   UNL     1      49.560   2.522  17.068  0.00  0.00    +0.000 A 
ATOM      8  C   UNL     1      50.656   1.663  17.210  0.00  0.00    +0.000 A 
BRANCH   3  10
ATOM      9  N   UNL     1      52.757  -0.060  18.208  0.00  0.00    +0.000 N 
ATOM     10  C   UNL     1      53.025   1.222  17.813  0.00  0.00    +0.000 C 
ATOM     11  O   UNL     1      54.163   1.574  17.536  0.00  0.00    +0.000 OA
ATOM     12  H   UNL     1      53.536  -0.704  18.188  0.00  0.00    +0.000 HD
ATOM     13  H   UNL     1      51.826  -0.447  18.197  0.00  0.00    +0.000 HD
ENDBRANCH   3  10
ENDBRANCH   1   6
BRANCH   1  14
ATOM     14  C   UNL     1      47.431   4.179  16.343  0.00  0.00    +0.000 C 
BRANCH  14  15
ATOM     15  C   UNL     1      47.291   4.903  15.017  0.00  0.00    +0.000 A 
ATOM     16  C   UNL     1      46.345   4.489  14.076  0.00  0.00    +0.000 A 
ATOM     17  C   UNL     1      46.266   5.119  12.830  0.00  0.00    +0.000 A 
ATOM     18  C   UNL     1      47.172   6.156  12.594  0.00  0.00    +0.000 A 
ATOM     19  C   UNL     1      48.073   6.521  13.581  0.00  0.00    +0.000 A 
ATOM     20  N   UNL     1      48.155   5.920  14.782  0.00  0.00    +0.000 NA
BRANCH  17  21
ATOM     21  N   UNL     1      45.343   4.758  11.872  0.00  0.00    +0.000 N 
ATOM     22  C   UNL     1      44.465   5.725  11.197  0.00  0.00    +0.000 C 
ATOM     23  C   UNL     1      42.991   5.392  11.468  0.00  0.00    +0.000 C 
ATOM     24  O   UNL     1      42.686   4.028  11.127  0.00  0.00    +0.000 OA
ATOM     25  C   UNL     1      43.500   3.128  11.899  0.00  0.00    +0.000 C 
ATOM     26  C   UNL     1      44.999   3.348  11.630  0.00  0.00    +0.000 C 
ENDBRANCH  17  21
ENDBRANCH  14  15
ENDBRANCH   1  14
TORSDOF 5
ENDMDL
MODEL 6
REMARK VINA RESULT:    -6.589      1.896      6.756
REMARK INTER + INTRA:          -9.303
REMARK INTER:                  -8.642
REMARK INTRA:                  -0.661
REMARK UNBOUND:                -0.788
REMARK  Name = 
REMARK  5 active torsions:
REMARK  status: ('A' for Active; 'I' for Inactive)
REMARK    1  A    between atoms: C_2  and  C_4
REMARK    2  A    between atoms: C_7  and  N_8
REMARK    3  A    between atoms: N_8  and  C_9
REMARK    4  A    between atoms: C_9  and  C_10
REMARK    5  A    between atoms: C_12  and  N_13
REMARK                            x       y       z     vdW  Elec       q    Type
REMARK                         _______ _______ _______ _____ _____    ______ ____
ROOT
ATOM      1  N   UNL     1      46.349   6.229  13.600  0.00  0.00    +0.000 N 
ATOM      2  H   UNL     1      46.194   6.413  14.591  0.00  0.00    +0.000 HD
ENDROOT
BRANCH   1   6
ATOM      3  C   UNL     1      50.011   7.910  12.325  0.00  0.00    +0.000 A 
ATOM      4  C   UNL     1      48.991   7.709  11.395  0.00  0.00    +0.000 A 
ATOM      5  C   UNL     1      47.765   7.166  11.804  0.00  0.00    +0.000 A 
ATOM      6  C   UNL     1      47.522   6.837  13.143  0.00  0.00    +0.000 A 
ATOM      7  C   UNL     1      48.563   7.041  14.062  0.00  0.00    +0.000 A 
ATOM      8  C   UNL     1      49.799   7.562  13.660  0.00  0.00    +0.000 A 
BRANCH   3  10
ATOM      9  N   UNL     1      51.902   7.915  10.788  0.00  0.00    +0.000 N 
ATOM     10  C   UNL     1      51.342   8.437  11.922  0.00  0.00    +0.000 C 
ATOM     11  O   UNL     1      51.901   9.321  12.555  0.00  0.00    +0.000 OA
ATOM     12  H   UNL     1      52.759   8.351  10.474  0.00  0.00    +0.000 HD
ATOM     13  H   UNL     1      51.369   7.384  10.116  0.00  0.00    +0.000 HD
ENDBRANCH   3  10
ENDBRANCH   1   6
BRANCH   1  14
ATOM     14  C   UNL     1      45.121   6.343  12.813  0.00  0.00    +0.000 C 
BRANCH  14  15
ATOM     15  C   UNL     1      44.660   4.999  12.282  0.00  0.00    +0.000 A 
ATOM     16  C   UNL     1      44.916   4.629  10.958  0.00  0.00    +0.000 A 
ATOM     17  C   UNL     1      44.430   3.418  10.457  0.00  0.00    +0.000 A 
ATOM     18  C   UNL     1      43.691   2.626  11.339  0.00  0.00    +0.000 A 
ATOM     19  C   UNL     1      43.490   3.050  12.642  0.00  0.00    +0.000 A 
ATOM     20  N   UNL     1      43.953   4.215  13.132  0.00  0.00    +0.000 NA
BRANCH  17  21
ATOM     21  N   UNL     1      44.667   3.001   9.165  0.00  0.00    +0.000 N 
ATOM     22  C   UNL     1      44.910   1.596   8.805  0.00  0.00    +0.000 C 
ATOM     23  C   UNL     1      46.296   1.439   8.163  0.00  0.00    +0.000 C 
ATOM     24  O   UNL     1      46.471   2.338   7.054  0.00  0.00    +0.000 OA
ATOM     25  C   UNL     1      46.329   3.701   7.491  0.00  0.00    +0.000 C 
ATOM     26  C   UNL     1      44.933   3.964   8.084  0.00  0.00    +0.000 C 
ENDBRANCH  17  21
ENDBRANCH  14  15
ENDBRANCH   1  14
TORSDOF 5
ENDMDL
MODEL 7
REMARK VINA RESULT:    -6.175      3.645      5.920
REMARK INTER + INTRA:          -8.768
REMARK INTER:                  -8.094
REMARK INTRA:                  -0.675
REMARK UNBOUND:                -0.788
REMARK  Name = 
REMARK  5 active torsions:
REMARK  status: ('A' for Active; 'I' for Inactive)
REMARK    1  A    between atoms: C_2  and  C_4
REMARK    2  A    between atoms: C_7  and  N_8
REMARK    3  A    between atoms: N_8  and  C_9
REMARK    4  A    between atoms: C_9  and  C_10
REMARK    5  A    between atoms: C_12  and  N_13
REMARK                            x       y       z     vdW  Elec       q    Type
REMARK                         _______ _______ _______ _____ _____    ______ ____
ROOT
ATOM      1  N   UNL     1      46.777   7.654  13.598  0.00  0.00    +0.000 N 
ATOM      2  H   UNL     1      46.608   7.380  14.566  0.00  0.00    +0.000 HD
ENDROOT
BRANCH   1   6
ATOM      3  C   UNL     1      44.842   4.977  10.963  0.00  0.00    +0.000 A 
ATOM      4  C   UNL     1      45.834   5.825  10.469  0.00  0.00    +0.000 A 
ATOM      5  C   UNL     1      46.495   6.709  11.332  0.00  0.00    +0.000 A 
ATOM      6  C   UNL     1      46.203   6.748  12.701  0.00  0.00    +0.000 A 
ATOM      7  C   UNL     1      45.198   5.892  13.177  0.00  0.00    +0.000 A 
ATOM      8  C   UNL     1      44.516   5.021  12.319  0.00  0.00    +0.000 A 
BRANCH   3  10
ATOM      9  N   UNL     1      44.101   4.339   8.731  0.00  0.00    +0.000 N 
ATOM     10  C   UNL     1      44.082   4.061  10.069  0.00  0.00    +0.000 C 
ATOM     11  O   UNL     1      43.493   3.082  10.505  0.00  0.00    +0.000 OA
ATOM     12  H   UNL     1      43.662   3.655   8.128  0.00  0.00    +0.000 HD
ATOM     13  H   UNL     1      44.769   4.971   8.317  0.00  0.00    +0.000 HD
ENDBRANCH   3  10
ENDBRANCH   1   6
BRANCH   1  14
ATOM     14  C   UNL     1      48.149   8.116  13.382  0.00  0.00    +0.000 C 
BRANCH  14  15
ATOM     15  C   UNL     1      49.107   7.556  14.415  0.00  0.00    +0.000 A 
ATOM     16  C   UNL     1      48.678   6.600  15.341  0.00  0.00    +0.000 A 
ATOM     17  C   UNL     1      49.549   6.137  16.332  0.00  0.00    +0.000 A 
ATOM     18  C   UNL     1      50.837   6.678  16.337  0.00  0.00    +0.000 A 
ATOM     19  C   UNL     1      51.196   7.611  15.378  0.00  0.00    +0.000 A 
ATOM     20  N   UNL     1      50.364   8.062  14.422  0.00  0.00    +0.000 NA
BRANCH  17  21
ATOM     21  N   UNL     1      49.179   5.186  17.260  0.00  0.00    +0.000 N 
ATOM     22  C   UNL     1      50.037   4.053  17.635  0.00  0.00    +0.000 C 
ATOM     23  C   UNL     1      49.341   2.724  17.313  0.00  0.00    +0.000 C 
ATOM     24  O   UNL     1      48.033   2.654  17.907  0.00  0.00    +0.000 OA
ATOM     25  C   UNL     1      47.207   3.725  17.418  0.00  0.00    +0.000 C 
ATOM     26  C   UNL     1      47.800   5.102  17.765  0.00  0.00    +0.000 C 
ENDBRANCH  17  21
ENDBRANCH  14  15
ENDBRANCH   1  14
TORSDOF 5
ENDMDL
MODEL 8
REMARK VINA RESULT:    -5.763      4.929      6.437
REMARK INTER + INTRA:          -8.236
REMARK INTER:                  -7.706
REMARK INTRA:                  -0.530
REMARK UNBOUND:                -0.788
REMARK  Name = 
REMARK  5 active torsions:
REMARK  status: ('A' for Active; 'I' for Inactive)
REMARK    1  A    between atoms: C_2  and  C_4
REMARK    2  A    between atoms: C_7  and  N_8
REMARK    3  A    between atoms: N_8  and  C_9
REMARK    4  A    between atoms: C_9  and  C_10
REMARK    5  A    between atoms: C_12  and  N_13
REMARK                            x       y       z     vdW  Elec       q    Type
REMARK                         _______ _______ _______ _____ _____    ______ ____
ROOT
ATOM      1  N   UNL     1      47.348   5.170  15.113  0.00  0.00    +0.000 N 
ATOM      2  H   UNL     1      47.308   6.149  15.393  0.00  0.00    +0.000 HD
ENDROOT
BRANCH   1   6
ATOM      3  C   UNL     1      45.079   4.329  11.649  0.00  0.00    +0.000 A 
ATOM      4  C   UNL     1      45.254   5.655  12.046  0.00  0.00    +0.000 A 
ATOM      5  C   UNL     1      46.016   5.952  13.185  0.00  0.00    +0.000 A 
ATOM      6  C   UNL     1      46.636   4.943  13.932  0.00  0.00    +0.000 A 
ATOM      7  C   UNL     1      46.442   3.616  13.520  0.00  0.00    +0.000 A 
ATOM      8  C   UNL     1      45.665   3.307  12.397  0.00  0.00    +0.000 A 
BRANCH   3  10
ATOM      9  N   UNL     1      44.277   4.812   9.399  0.00  0.00    +0.000 N 
ATOM     10  C   UNL     1      44.236   3.970  10.476  0.00  0.00    +0.000 C 
ATOM     11  O   UNL     1      43.561   2.951  10.459  0.00  0.00    +0.000 OA
ATOM     12  H   UNL     1      43.777   4.505   8.576  0.00  0.00    +0.000 HD
ATOM     13  H   UNL     1      44.999   5.505   9.280  0.00  0.00    +0.000 HD
ENDBRANCH   3  10
ENDBRANCH   1   6
BRANCH   1  14
ATOM     14  C   UNL     1      47.178   4.259  16.246  0.00  0.00    +0.000 C 
BRANCH  14  15
ATOM     15  C   UNL     1      48.506   3.743  16.766  0.00  0.00    +0.000 A 
ATOM     16  C   UNL     1      49.347   4.570  17.517  0.00  0.00    +0.000 A 
ATOM     17  C   UNL     1      50.599   4.109  17.936  0.00  0.00    +0.000 A 
ATOM     18  C   UNL     1      50.945   2.808  17.563  0.00  0.00    +0.000 A 
ATOM     19  C   UNL     1      50.054   2.042  16.830  0.00  0.00    +0.000 A 
ATOM     20  N   UNL     1      48.848   2.478  16.423  0.00  0.00    +0.000 NA
BRANCH  17  21
ATOM     21  N   UNL     1      51.459   4.879  18.690  0.00  0.00    +0.000 N 
ATOM     22  C   UNL     1      51.395   4.954  20.157  0.00  0.00    +0.000 C 
ATOM     23  C   UNL     1      51.129   6.396  20.609  0.00  0.00    +0.000 C 
ATOM     24  O   UNL     1      52.083   7.312  20.045  0.00  0.00    +0.000 OA
ATOM     25  C   UNL     1      52.022   7.272  18.608  0.00  0.00    +0.000 C 
ATOM     26  C   UNL     1      52.349   5.870  18.066  0.00  0.00    +0.000 C 
ENDBRANCH  17  21
ENDBRANCH  14  15
ENDBRANCH   1  14
TORSDOF 5
ENDMDL
MODEL 9
REMARK VINA RESULT:    -5.694      4.469      6.750
REMARK INTER + INTRA:          -8.147
REMARK INTER:                  -7.517
REMARK INTRA:                  -0.630
REMARK UNBOUND:                -0.788
REMARK  Name = 
REMARK  5 active torsions:
REMARK  status: ('A' for Active; 'I' for Inactive)
REMARK    1  A    between atoms: C_2  and  C_4
REMARK    2  A    between atoms: C_7  and  N_8
REMARK    3  A    between atoms: N_8  and  C_9
REMARK    4  A    between atoms: C_9  and  C_10
REMARK    5  A    between atoms: C_12  and  N_13
REMARK                            x       y       z     vdW  Elec       q    Type
REMARK                         _______ _______ _______ _____ _____    ______ ____
ROOT
ATOM      1  N   UNL     1      48.654   6.709  12.938  0.00  0.00    +0.000 N 
ATOM      2  H   UNL     1      49.197   6.476  12.108  0.00  0.00    +0.000 HD
ENDROOT
BRANCH   1   6
ATOM      3  C   UNL     1      44.532   5.842  12.598  0.00  0.00    +0.000 A 
ATOM      4  C   UNL     1      45.022   7.044  12.088  0.00  0.00    +0.000 A 
ATOM      5  C   UNL     1      46.389   7.341  12.179  0.00  0.00    +0.000 A 
ATOM      6  C   UNL     1      47.294   6.441  12.755  0.00  0.00    +0.000 A 
ATOM      7  C   UNL     1      46.780   5.241  13.268  0.00  0.00    +0.000 A 
ATOM      8  C   UNL     1      45.414   4.944  13.201  0.00  0.00    +0.000 A 
BRANCH   3  10
ATOM      9  N   UNL     1      42.299   6.233  11.705  0.00  0.00    +0.000 N 
ATOM     10  C   UNL     1      43.081   5.513  12.565  0.00  0.00    +0.000 C 
ATOM     11  O   UNL     1      42.610   4.617  13.251  0.00  0.00    +0.000 OA
ATOM     12  H   UNL     1      41.336   5.933  11.622  0.00  0.00    +0.000 HD
ATOM     13  H   UNL     1      42.684   6.788  10.957  0.00  0.00    +0.000 HD
ENDBRANCH   3  10
ENDBRANCH   1   6
BRANCH   1  14
ATOM     14  C   UNL     1      49.067   7.979  13.536  0.00  0.00    +0.000 C 
BRANCH  14  15
ATOM     15  C   UNL     1      48.978   7.951  15.050  0.00  0.00    +0.000 A 
ATOM     16  C   UNL     1      48.865   6.737  15.734  0.00  0.00    +0.000 A 
ATOM     17  C   UNL     1      48.717   6.723  17.125  0.00  0.00    +0.000 A 
ATOM     18  C   UNL     1      48.688   7.964  17.765  0.00  0.00    +0.000 A 
ATOM     19  C   UNL     1      48.820   9.125  17.022  0.00  0.00    +0.000 A 
ATOM     20  N   UNL     1      48.962   9.148  15.684  0.00  0.00    +0.000 NA
BRANCH  17  21
ATOM     21  N   UNL     1      48.616   5.553  17.848  0.00  0.00    +0.000 N 
ATOM     22  C   UNL     1      49.781   4.749  18.243  0.00  0.00    +0.000 C 
ATOM     23  C   UNL     1      49.688   3.339  17.642  0.00  0.00    +0.000 C 
ATOM     24  O   UNL     1      48.438   2.707  17.966  0.00  0.00    +0.000 OA
ATOM     25  C   UNL     1      47.341   3.486  17.459  0.00  0.00    +0.000 C 
ATOM     26  C   UNL     1      47.317   4.898  18.070  0.00  0.00    +0.000 C 
ENDBRANCH  17  21
ENDBRANCH  14  15
ENDBRANCH   1  14
TORSDOF 5
ENDMDL
