MODEL 1
REMARK VINA RESULT:    -7.345      0.000      0.000
REMARK INTER + INTRA:         -12.352
REMARK INTER:                 -10.780
REMARK INTRA:                  -1.573
REMARK UNBOUND:                -1.573
REMARK  Name = 
REMARK  9 active torsions:
REMARK  status: ('A' for Active; 'I' for Inactive)
REMARK    1  A    between atoms: C_1  and  C_2
REMARK    2  A    between atoms: C_2  and  O_3
REMARK    3  A    between atoms: O_3  and  C_4
REMARK    4  A    between atoms: C_9  and  C_10
REMARK    5  A    between atoms: N_12  and  C_13
REMARK    6  A    between atoms: C_13  and  C_14
REMARK    7  A    between atoms: C_17  and  C_18
REMARK    8  A    between atoms: C_18  and  N_19
REMARK    9  A    between atoms: C_20  and  C_22
REMARK                            x       y       z     vdW  Elec       q    Type
REMARK                         _______ _______ _______ _____ _____    ______ ____
ROOT
ATOM      1  C   UNL     1      50.143   7.429  15.314  0.00  0.00    +0.000 A 
ATOM      2  C   UNL     1      50.516   8.159  14.178  0.00  0.00    +0.000 A 
ATOM      3  C   UNL     1      49.635   8.293  13.095  0.00  0.00    +0.000 A 
ATOM      4  C   UNL     1      48.360   7.717  13.139  0.00  0.00    +0.000 A 
ATOM      5  C   UNL     1      47.984   6.998  14.282  0.00  0.00    +0.000 A 
ATOM      6  C   UNL     1      48.863   6.865  15.362  0.00  0.00    +0.000 A 
ENDROOT
BRANCH   1   7
ATOM      7  C   UNL     1      51.096   7.263  16.471  0.00  0.00    +0.000 C 
BRANCH   7  10
ATOM      8  C   UNL     1      51.135   5.135  17.703  0.00  0.00    +0.000 C 
ATOM      9  O   UNL     1      50.451   5.600  18.613  0.00  0.00    +0.000 OA
ATOM     10  N   UNL     1      51.521   5.894  16.625  0.00  0.00    +0.000 N 
ATOM     11  H   UNL     1      52.079   5.463  15.899  0.00  0.00    +0.000 HD
BRANCH   8  17
ATOM     12  C   UNL     1      50.782   2.610  17.263  0.00  0.00    +0.000 A 
ATOM     13  C   UNL     1      51.282   1.303  17.397  0.00  0.00    +0.000 A 
ATOM     14  C   UNL     1      52.532   1.064  17.968  0.00  0.00    +0.000 A 
ATOM     15  C   UNL     1      53.307   2.127  18.411  0.00  0.00    +0.000 A 
ATOM     16  C   UNL     1      52.823   3.430  18.294  0.00  0.00    +0.000 A 
ATOM     17  C   UNL     1      51.557   3.690  17.733  0.00  0.00    +0.000 A 
BRANCH  12  18
ATOM     18  O   UNL     1      49.559   2.886  16.695  0.00  0.00    +0.000 OA
BRANCH  18  20
ATOM     19  C   UNL     1      47.359   3.779  16.977  0.00  0.00    +0.000 C 
ATOM     20  C   UNL     1      48.410   2.843  17.543  0.00  0.00    +0.000 C 
ENDBRANCH  18  20
ENDBRANCH  12  18
ENDBRANCH   8  17
ENDBRANCH   7  10
ENDBRANCH   1   7
BRANCH   4  21
ATOM     21  C   UNL     1      47.423   7.821  11.961  0.00  0.00    +0.000 C 
BRANCH  21  22
ATOM     22  N   UNL     1      46.768   6.564  11.701  0.00  0.00    +0.000 N 
ATOM     23  C   UNL     1      45.400   6.467  11.663  0.00  0.00    +0.000 C 
ATOM     24  O   UNL     1      44.677   7.452  11.800  0.00  0.00    +0.000 OA
ATOM     25  H   UNL     1      47.325   5.721  11.806  0.00  0.00    +0.000 HD
BRANCH  23  26
ATOM     26  C   UNL     1      44.836   5.139  11.390  0.00  0.00    +0.000 A 
ATOM     27  C   UNL     1      44.098   4.490  12.372  0.00  0.00    +0.000 A 
ATOM     28  S   UNL     1      43.470   2.984  11.877  0.00  0.00    +0.000 S 
ATOM     29  C   UNL     1      44.211   3.116  10.351  0.00  0.00    +0.000 A 
ATOM     30  N   UNL     1      44.091   2.124   9.428  0.00  0.00    +0.000 NA
ATOM     31  C   UNL     1      44.736   2.336   8.330  0.00  0.00    +0.000 A 
ATOM     32  N   UNL     1      45.487   3.453   8.070  0.00  0.00    +0.000 N 
ATOM     33  C   UNL     1      45.605   4.497   8.956  0.00  0.00    +0.000 A 
ATOM     34  O   UNL     1      46.244   5.506   8.673  0.00  0.00    +0.000 OA
ATOM     35  C   UNL     1      44.912   4.301  10.215  0.00  0.00    +0.000 A 
ATOM     36  H   UNL     1      45.962   3.563   7.186  0.00  0.00    +0.000 HD
ENDBRANCH  23  26
ENDBRANCH  21  22
ENDBRANCH   4  21
TORSDOF 8
ENDMDL
MODEL 2
REMARK VINA RESULT:    -6.995      2.942      9.539
REMARK INTER + INTRA:         -11.839
REMARK INTER:                 -10.555
REMARK INTRA:                  -1.283
REMARK UNBOUND:                -1.573
REMARK  Name = 
REMARK  9 active torsions:
REMARK  status: ('A' for Active; 'I' for Inactive)
REMARK    1  A    between atoms: C_1  and  C_2
REMARK    2  A    between atoms: C_2  and  O_3
REMARK    3  A    between atoms: O_3  and  C_4
REMARK    4  A    between atoms: C_9  and  C_10
REMARK    5  A    between atoms: N_12  and  C_13
REMARK    6  A    between atoms: C_13  and  C_14
REMARK    7  A    between atoms: C_17  and  C_18
REMARK    8  A    between atoms: C_18  and  N_19
REMARK    9  A    between atoms: C_20  and  C_22
REMARK                            x       y       z     vdW  Elec       q    Type
REMARK                         _______ _______ _______ _____ _____    ______ ____
ROOT
ATOM      1  C   UNL     1      47.494   5.682  14.455  0.00  0.00    +0.000 A 
ATOM      2  C   UNL     1      46.883   4.453  14.733  0.00  0.00    +0.000 A 
ATOM      3  C   UNL     1      47.165   3.769  15.924  0.00  0.00    +0.000 A 
ATOM      4  C   UNL     1      48.047   4.311  16.865  0.00  0.00    +0.000 A 
ATOM      5  C   UNL     1      48.649   5.547  16.591  0.00  0.00    +0.000 A 
ATOM      6  C   UNL     1      48.367   6.230  15.403  0.00  0.00    +0.000 A 
ENDROOT
BRANCH   1   7
ATOM      7  C   UNL     1      47.211   6.410  13.165  0.00  0.00    +0.000 C 
BRANCH   7  10
ATOM      8  C   UNL     1      45.883   5.923  11.154  0.00  0.00    +0.000 C 
ATOM      9  O   UNL     1      45.403   7.056  11.144  0.00  0.00    +0.000 OA
ATOM     10  N   UNL     1      46.759   5.515  12.130  0.00  0.00    +0.000 N 
ATOM     11  H   UNL     1      47.130   4.574  12.090  0.00  0.00    +0.000 HD
BRANCH   8  17
ATOM     12  C   UNL     1      44.679   3.833  10.218  0.00  0.00    +0.000 A 
ATOM     13  C   UNL     1      44.481   2.969   9.127  0.00  0.00    +0.000 A 
ATOM     14  C   UNL     1      45.101   3.204   7.899  0.00  0.00    +0.000 A 
ATOM     15  C   UNL     1      45.927   4.309   7.739  0.00  0.00    +0.000 A 
ATOM     16  C   UNL     1      46.142   5.171   8.815  0.00  0.00    +0.000 A 
ATOM     17  C   UNL     1      45.536   4.943  10.065  0.00  0.00    +0.000 A 
BRANCH  12  18
ATOM     18  O   UNL     1      44.076   3.641  11.440  0.00  0.00    +0.000 OA
BRANCH  18  20
ATOM     19  C   UNL     1      42.985   4.938  13.126  0.00  0.00    +0.000 C 
ATOM     20  C   UNL     1      42.888   4.384  11.717  0.00  0.00    +0.000 C 
ENDBRANCH  18  20
ENDBRANCH  12  18
ENDBRANCH   8  17
ENDBRANCH   7  10
ENDBRANCH   1   7
BRANCH   4  21
ATOM     21  C   UNL     1      48.389   3.561  18.129  0.00  0.00    +0.000 C 
BRANCH  21  22
ATOM     22  N   UNL     1      49.805   3.308  18.221  0.00  0.00    +0.000 N 
ATOM     23  C   UNL     1      50.420   2.390  17.408  0.00  0.00    +0.000 C 
ATOM     24  O   UNL     1      49.804   1.781  16.536  0.00  0.00    +0.000 OA
ATOM     25  H   UNL     1      50.278   3.626  19.063  0.00  0.00    +0.000 HD
BRANCH  23  26
ATOM     26  C   UNL     1      51.867   2.210  17.586  0.00  0.00    +0.000 A 
ATOM     27  C   UNL     1      52.394   0.929  17.684  0.00  0.00    +0.000 A 
ATOM     28  S   UNL     1      54.092   0.894  17.833  0.00  0.00    +0.000 S 
ATOM     29  C   UNL     1      54.181   2.592  17.831  0.00  0.00    +0.000 A 
ATOM     30  N   UNL     1      55.376   3.229  17.958  0.00  0.00    +0.000 NA
ATOM     31  C   UNL     1      55.295   4.518  17.982  0.00  0.00    +0.000 A 
ATOM     32  N   UNL     1      54.125   5.227  17.884  0.00  0.00    +0.000 N 
ATOM     33  C   UNL     1      52.900   4.628  17.715  0.00  0.00    +0.000 A 
ATOM     34  O   UNL     1      51.877   5.292  17.581  0.00  0.00    +0.000 OA
ATOM     35  C   UNL     1      52.934   3.177  17.700  0.00  0.00    +0.000 A 
ATOM     36  H   UNL     1      54.130   6.236  17.900  0.00  0.00    +0.000 HD
ENDBRANCH  23  26
ENDBRANCH  21  22
ENDBRANCH   4  21
TORSDOF 8
ENDMDL
MODEL 3
REMARK VINA RESULT:    -6.901      1.340      2.113
REMARK INTER + INTRA:         -11.701
REMARK INTER:                 -10.218
REMARK INTRA:                  -1.483
REMARK UNBOUND:                -1.573
REMARK  Name = 
REMARK  9 active torsions:
REMARK  status: ('A' for Active; 'I' for Inactive)
REMARK    1  A    between atoms: C_1  and  C_2
REMARK    2  A    between atoms: C_2  and  O_3
REMARK    3  A    between atoms: O_3  and  C_4
REMARK    4  A    between atoms: C_9  and  C_10
REMARK    5  A    between atoms: N_12  and  C_13
REMARK    6  A    between atoms: C_13  and  C_14
REMARK    7  A    between atoms: C_17  and  C_18
REMARK    8  A    between atoms: C_18  and  N_19
REMARK    9  A    between atoms: C_20  and  C_22
REMARK                            x       y       z     vdW  Elec       q    Type
REMARK                         _______ _______ _______ _____ _____    ______ ____
ROOT
ATOM      1  C   UNL     1      50.458   7.290  15.491  0.00  0.00    +0.000 A 
ATOM      2  C   UNL     1      49.186   6.719  15.348  0.00  0.00    +0.000 A 
ATOM      3  C   UNL     1      48.387   7.027  14.239  0.00  0.00    +0.000 A 
ATOM      4  C   UNL     1      48.853   7.893  13.242  0.00  0.00    +0.000 A 
ATOM      5  C   UNL     1      50.131   8.453  13.381  0.00  0.00    +0.000 A 
ATOM      6  C   UNL     1      50.929   8.146  14.488  0.00  0.00    +0.000 A 
ENDROOT
BRANCH   1   7
ATOM      7  C   UNL     1      51.312   6.980  16.694  0.00  0.00    +0.000 C 
BRANCH   7  10
ATOM      8  C   UNL     1      51.801   4.922  17.949  0.00  0.00    +0.000 C 
ATOM      9  O   UNL     1      51.661   5.496  19.028  0.00  0.00    +0.000 OA
ATOM     10  N   UNL     1      51.674   5.586  16.752  0.00  0.00    +0.000 N 
ATOM     11  H   UNL     1      51.793   5.067  15.891  0.00  0.00    +0.000 HD
BRANCH   8  17
ATOM     12  C   UNL     1      51.239   2.463  17.369  0.00  0.00    +0.000 A 
ATOM     13  C   UNL     1      51.623   1.113  17.439  0.00  0.00    +0.000 A 
ATOM     14  C   UNL     1      52.839   0.737  18.011  0.00  0.00    +0.000 A 
ATOM     15  C   UNL     1      53.695   1.704  18.518  0.00  0.00    +0.000 A 
ATOM     16  C   UNL     1      53.326   3.048  18.466  0.00  0.00    +0.000 A 
ATOM     17  C   UNL     1      52.097   3.446  17.906  0.00  0.00    +0.000 A 
BRANCH  12  18
ATOM     18  O   UNL     1      50.054   2.874  16.804  0.00  0.00    +0.000 OA
BRANCH  18  20
ATOM     19  C   UNL     1      47.693   3.253  16.778  0.00  0.00    +0.000 C 
ATOM     20  C   UNL     1      48.888   2.866  17.629  0.00  0.00    +0.000 C 
ENDBRANCH  18  20
ENDBRANCH  12  18
ENDBRANCH   8  17
ENDBRANCH   7  10
ENDBRANCH   1   7
BRANCH   4  21
ATOM     21  C   UNL     1      47.982   8.262  12.067  0.00  0.00    +0.000 C 
BRANCH  21  22
ATOM     22  N   UNL     1      47.364   7.095  11.488  0.00  0.00    +0.000 N 
ATOM     23  C   UNL     1      45.999   6.974  11.413  0.00  0.00    +0.000 C 
ATOM     24  O   UNL     1      45.248   7.870  11.790  0.00  0.00    +0.000 OA
ATOM     25  H   UNL     1      47.945   6.269  11.379  0.00  0.00    +0.000 HD
BRANCH  23  26
ATOM     26  C   UNL     1      45.475   5.745  10.804  0.00  0.00    +0.000 A 
ATOM     27  C   UNL     1      45.665   5.514   9.448  0.00  0.00    +0.000 A 
ATOM     28  S   UNL     1      45.044   4.019   8.912  0.00  0.00    +0.000 S 
ATOM     29  C   UNL     1      44.446   3.651  10.460  0.00  0.00    +0.000 A 
ATOM     30  N   UNL     1      43.765   2.496  10.690  0.00  0.00    +0.000 NA
ATOM     31  C   UNL     1      43.333   2.362  11.899  0.00  0.00    +0.000 A 
ATOM     32  N   UNL     1      43.525   3.277  12.902  0.00  0.00    +0.000 N 
ATOM     33  C   UNL     1      44.238   4.439  12.726  0.00  0.00    +0.000 A 
ATOM     34  O   UNL     1      44.435   5.214  13.657  0.00  0.00    +0.000 OA
ATOM     35  C   UNL     1      44.732   4.646  11.378  0.00  0.00    +0.000 A 
ATOM     36  H   UNL     1      43.167   3.109  13.830  0.00  0.00    +0.000 HD
ENDBRANCH  23  26
ENDBRANCH  21  22
ENDBRANCH   4  21
TORSDOF 8
ENDMDL
MODEL 4
REMARK VINA RESULT:    -6.738      2.983      8.953
REMARK INTER + INTRA:         -11.461
REMARK INTER:                 -10.003
REMARK INTRA:                  -1.458
REMARK UNBOUND:                -1.573
REMARK  Name = 
REMARK  9 active torsions:
REMARK  status: ('A' for Active; 'I' for Inactive)
REMARK    1  A    between atoms: C_1  and  C_2
REMARK    2  A    between atoms: C_2  and  O_3
REMARK    3  A    between atoms: O_3  and  C_4
REMARK    4  A    between atoms: C_9  and  C_10
REMARK    5  A    between atoms: N_12  and  C_13
REMARK    6  A    between atoms: C_13  and  C_14
REMARK    7  A    between atoms: C_17  and  C_18
REMARK    8  A    between atoms: C_18  and  N_19
REMARK    9  A    between atoms: C_20  and  C_22
REMARK                            x       y       z     vdW  Elec       q    Type
REMARK                         _______ _______ _______ _____ _____    ______ ____
ROOT
ATOM      1  C   UNL     1      48.040   7.277  13.968  0.00  0.00    +0.000 A 
ATOM      2  C   UNL     1      48.449   8.344  14.779  0.00  0.00    +0.000 A 
ATOM      3  C   UNL     1      48.737   8.139  16.136  0.00  0.00    +0.000 A 
ATOM      4  C   UNL     1      48.640   6.862  16.700  0.00  0.00    +0.000 A 
ATOM      5  C   UNL     1      48.242   5.794  15.884  0.00  0.00    +0.000 A 
ATOM      6  C   UNL     1      47.956   5.998  14.531  0.00  0.00    +0.000 A 
ENDROOT
BRANCH   1   7
ATOM      7  C   UNL     1      47.707   7.497  12.514  0.00  0.00    +0.000 C 
BRANCH   7  10
ATOM      8  C   UNL     1      45.952   6.367  11.216  0.00  0.00    +0.000 C 
ATOM      9  O   UNL     1      45.295   7.402  11.120  0.00  0.00    +0.000 OA
ATOM     10  N   UNL     1      47.137   6.320  11.909  0.00  0.00    +0.000 N 
ATOM     11  H   UNL     1      47.642   5.444  11.954  0.00  0.00    +0.000 HD
BRANCH   8  17
ATOM     12  C   UNL     1      44.942   3.984  11.214  0.00  0.00    +0.000 A 
ATOM     13  C   UNL     1      44.585   2.850  10.464  0.00  0.00    +0.000 A 
ATOM     14  C   UNL     1      44.737   2.824   9.077  0.00  0.00    +0.000 A 
ATOM     15  C   UNL     1      45.243   3.934   8.414  0.00  0.00    +0.000 A 
ATOM     16  C   UNL     1      45.612   5.064   9.143  0.00  0.00    +0.000 A 
ATOM     17  C   UNL     1      45.479   5.104  10.545  0.00  0.00    +0.000 A 
BRANCH  12  18
ATOM     18  O   UNL     1      44.797   4.051  12.581  0.00  0.00    +0.000 OA
BRANCH  18  20
ATOM     19  C   UNL     1      42.739   5.259  12.723  0.00  0.00    +0.000 C 
ATOM     20  C   UNL     1      43.472   3.988  13.110  0.00  0.00    +0.000 C 
ENDBRANCH  18  20
ENDBRANCH  12  18
ENDBRANCH   8  17
ENDBRANCH   7  10
ENDBRANCH   1   7
BRANCH   4  21
ATOM     21  C   UNL     1      48.907   6.642  18.169  0.00  0.00    +0.000 C 
BRANCH  21  22
ATOM     22  N   UNL     1      49.880   5.599  18.374  0.00  0.00    +0.000 N 
ATOM     23  C   UNL     1      51.217   5.818  18.156  0.00  0.00    +0.000 C 
ATOM     24  O   UNL     1      51.647   6.921  17.826  0.00  0.00    +0.000 OA
ATOM     25  H   UNL     1      49.533   4.645  18.426  0.00  0.00    +0.000 HD
BRANCH  23  26
ATOM     26  C   UNL     1      52.122   4.686  18.395  0.00  0.00    +0.000 A 
ATOM     27  C   UNL     1      53.338   4.901  19.032  0.00  0.00    +0.000 A 
ATOM     28  S   UNL     1      54.244   3.477  19.280  0.00  0.00    +0.000 S 
ATOM     29  C   UNL     1      53.072   2.529  18.493  0.00  0.00    +0.000 A 
ATOM     30  N   UNL     1      53.247   1.190  18.334  0.00  0.00    +0.000 NA
ATOM     31  C   UNL     1      52.301   0.601  17.683  0.00  0.00    +0.000 A 
ATOM     32  N   UNL     1      51.190   1.230  17.183  0.00  0.00    +0.000 N 
ATOM     33  C   UNL     1      50.951   2.572  17.353  0.00  0.00    +0.000 A 
ATOM     34  O   UNL     1      49.923   3.096  16.935  0.00  0.00    +0.000 OA
ATOM     35  C   UNL     1      51.995   3.286  18.063  0.00  0.00    +0.000 A 
ATOM     36  H   UNL     1      50.480   0.709  16.690  0.00  0.00    +0.000 HD
ENDBRANCH  23  26
ENDBRANCH  21  22
ENDBRANCH   4  21
TORSDOF 8
ENDMDL
MODEL 5
REMARK VINA RESULT:    -6.711      2.792      8.979
REMARK INTER + INTRA:         -11.422
REMARK INTER:                 -10.143
REMARK INTRA:                  -1.279
REMARK UNBOUND:                -1.573
REMARK  Name = 
REMARK  9 active torsions:
REMARK  status: ('A' for Active; 'I' for Inactive)
REMARK    1  A    between atoms: C_1  and  C_2
REMARK    2  A    between atoms: C_2  and  O_3
REMARK    3  A    between atoms: O_3  and  C_4
REMARK    4  A    between atoms: C_9  and  C_10
REMARK    5  A    between atoms: N_12  and  C_13
REMARK    6  A    between atoms: C_13  and  C_14
REMARK    7  A    between atoms: C_17  and  C_18
REMARK    8  A    between atoms: C_18  and  N_19
REMARK    9  A    between atoms: C_20  and  C_22
REMARK                            x       y       z     vdW  Elec       q    Type
REMARK                         _______ _______ _______ _____ _____    ______ ____
ROOT
ATOM      1  C   UNL     1      48.843   7.560  12.782  0.00  0.00    +0.000 A 
ATOM      2  C   UNL     1      50.086   8.198  12.677  0.00  0.00    +0.000 A 
ATOM      3  C   UNL     1      50.923   8.319  13.794  0.00  0.00    +0.000 A 
ATOM      4  C   UNL     1      50.542   7.787  15.032  0.00  0.00    +0.000 A 
ATOM      5  C   UNL     1      49.303   7.138  15.133  0.00  0.00    +0.000 A 
ATOM      6  C   UNL     1      48.468   7.017  14.017  0.00  0.00    +0.000 A 
ENDROOT
BRANCH   1   7
ATOM      7  C   UNL     1      47.930   7.448  11.588  0.00  0.00    +0.000 C 
BRANCH   7  10
ATOM      8  C   UNL     1      45.726   6.357  11.532  0.00  0.00    +0.000 C 
ATOM      9  O   UNL     1      45.148   7.435  11.401  0.00  0.00    +0.000 OA
ATOM     10  N   UNL     1      47.092   6.277  11.660  0.00  0.00    +0.000 N 
ATOM     11  H   UNL     1      47.521   5.365  11.760  0.00  0.00    +0.000 HD
BRANCH   8  17
ATOM     12  C   UNL     1      44.793   4.213  10.424  0.00  0.00    +0.000 A 
ATOM     13  C   UNL     1      43.992   3.065  10.554  0.00  0.00    +0.000 A 
ATOM     14  C   UNL     1      43.364   2.756  11.762  0.00  0.00    +0.000 A 
ATOM     15  C   UNL     1      43.530   3.586  12.862  0.00  0.00    +0.000 A 
ATOM     16  C   UNL     1      44.314   4.735  12.748  0.00  0.00    +0.000 A 
ATOM     17  C   UNL     1      44.944   5.071  11.534  0.00  0.00    +0.000 A 
BRANCH  12  18
ATOM     18  O   UNL     1      45.437   4.545   9.254  0.00  0.00    +0.000 OA
BRANCH  18  20
ATOM     19  C   UNL     1      46.563   3.770   7.293  0.00  0.00    +0.000 C 
ATOM     20  C   UNL     1      45.320   3.641   8.154  0.00  0.00    +0.000 C 
ENDBRANCH  18  20
ENDBRANCH  12  18
ENDBRANCH   8  17
ENDBRANCH   7  10
ENDBRANCH   1   7
BRANCH   4  21
ATOM     21  C   UNL     1      51.418   7.951  16.248  0.00  0.00    +0.000 C 
BRANCH  21  22
ATOM     22  N   UNL     1      52.074   6.714  16.592  0.00  0.00    +0.000 N 
ATOM     23  C   UNL     1      51.729   6.013  17.720  0.00  0.00    +0.000 C 
ATOM     24  O   UNL     1      50.817   6.380  18.457  0.00  0.00    +0.000 OA
ATOM     25  H   UNL     1      52.959   6.516  16.132  0.00  0.00    +0.000 HD
BRANCH  23  26
ATOM     26  C   UNL     1      52.461   4.765  17.975  0.00  0.00    +0.000 A 
ATOM     27  C   UNL     1      53.786   4.818  18.388  0.00  0.00    +0.000 A 
ATOM     28  S   UNL     1      54.472   3.287  18.693  0.00  0.00    +0.000 S 
ATOM     29  C   UNL     1      53.042   2.493  18.227  0.00  0.00    +0.000 A 
ATOM     30  N   UNL     1      52.963   1.136  18.230  0.00  0.00    +0.000 NA
ATOM     31  C   UNL     1      51.834   0.665  17.816  0.00  0.00    +0.000 A 
ATOM     32  N   UNL     1      50.774   1.431  17.405  0.00  0.00    +0.000 N 
ATOM     33  C   UNL     1      50.794   2.805  17.421  0.00  0.00    +0.000 A 
ATOM     34  O   UNL     1      49.811   3.462  17.094  0.00  0.00    +0.000 OA
ATOM     35  C   UNL     1      52.048   3.385  17.863  0.00  0.00    +0.000 A 
ATOM     36  H   UNL     1      49.913   1.001  17.100  0.00  0.00    +0.000 HD
ENDBRANCH  23  26
ENDBRANCH  21  22
ENDBRANCH   4  21
TORSDOF 8
ENDMDL
MODEL 6
REMARK VINA RESULT:    -6.521      5.569      8.657
REMARK INTER + INTRA:         -11.144
REMARK INTER:                  -9.780
REMARK INTRA:                  -1.364
REMARK UNBOUND:                -1.573
REMARK  Name = 
REMARK  9 active torsions:
REMARK  status: ('A' for Active; 'I' for Inactive)
REMARK    1  A    between atoms: C_1  and  C_2
REMARK    2  A    between atoms: C_2  and  O_3
REMARK    3  A    between atoms: O_3  and  C_4
REMARK    4  A    between atoms: C_9  and  C_10
REMARK    5  A    between atoms: N_12  and  C_13
REMARK    6  A    between atoms: C_13  and  C_14
REMARK    7  A    between atoms: C_17  and  C_18
REMARK    8  A    between atoms: C_18  and  N_19
REMARK    9  A    between atoms: C_20  and  C_22
REMARK                            x       y       z     vdW  Elec       q    Type
REMARK                         _______ _______ _______ _____ _____    ______ ____
ROOT
ATOM      1  C   UNL     1      48.387   8.307  12.215  0.00  0.00    +0.000 A 
ATOM      2  C   UNL     1      49.472   7.480  11.895  0.00  0.00    +0.000 A 
ATOM      3  C   UNL     1      50.646   8.021  11.353  0.00  0.00    +0.000 A 
ATOM      4  C   UNL     1      50.764   9.400  11.141  0.00  0.00    +0.000 A 
ATOM      5  C   UNL     1      49.682  10.227  11.473  0.00  0.00    +0.000 A 
ATOM      6  C   UNL     1      48.511   9.688  12.014  0.00  0.00    +0.000 A 
ENDROOT
BRANCH   1   7
ATOM      7  C   UNL     1      47.114   7.728  12.777  0.00  0.00    +0.000 C 
BRANCH   7  10
ATOM      8  C   UNL     1      45.657   6.468  11.247  0.00  0.00    +0.000 C 
ATOM      9  O   UNL     1      44.938   7.447  11.056  0.00  0.00    +0.000 OA
ATOM     10  N   UNL     1      46.733   6.512  12.102  0.00  0.00    +0.000 N 
ATOM     11  H   UNL     1      47.297   5.680  12.220  0.00  0.00    +0.000 HD
BRANCH   8  17
ATOM     12  C   UNL     1      44.976   3.974  11.133  0.00  0.00    +0.000 A 
ATOM     13  C   UNL     1      44.809   2.827  10.337  0.00  0.00    +0.000 A 
ATOM     14  C   UNL     1      45.028   2.866   8.959  0.00  0.00    +0.000 A 
ATOM     15  C   UNL     1      45.412   4.054   8.352  0.00  0.00    +0.000 A 
ATOM     16  C   UNL     1      45.592   5.199   9.127  0.00  0.00    +0.000 A 
ATOM     17  C   UNL     1      45.390   5.176  10.521  0.00  0.00    +0.000 A 
BRANCH  12  18
ATOM     18  O   UNL     1      44.760   3.977  12.492  0.00  0.00    +0.000 OA
BRANCH  18  20
ATOM     19  C   UNL     1      42.743   5.221  12.807  0.00  0.00    +0.000 C 
ATOM     20  C   UNL     1      43.410   3.866  12.948  0.00  0.00    +0.000 C 
ENDBRANCH  18  20
ENDBRANCH  12  18
ENDBRANCH   8  17
ENDBRANCH   7  10
ENDBRANCH   1   7
BRANCH   4  21
ATOM     21  C   UNL     1      52.007   9.984  10.519  0.00  0.00    +0.000 C 
BRANCH  21  22
ATOM     22  N   UNL     1      52.347   9.305   9.292  0.00  0.00    +0.000 N 
ATOM     23  C   UNL     1      53.571   8.709   9.123  0.00  0.00    +0.000 C 
ATOM     24  O   UNL     1      54.409   8.683  10.021  0.00  0.00    +0.000 OA
ATOM     25  H   UNL     1      51.771   9.504   8.479  0.00  0.00    +0.000 HD
BRANCH  23  26
ATOM     26  C   UNL     1      53.813   8.046   7.835  0.00  0.00    +0.000 A 
ATOM     27  C   UNL     1      54.007   8.812   6.693  0.00  0.00    +0.000 A 
ATOM     28  S   UNL     1      54.329   7.892   5.294  0.00  0.00    +0.000 S 
ATOM     29  C   UNL     1      54.162   6.432   6.150  0.00  0.00    +0.000 A 
ATOM     30  N   UNL     1      54.293   5.234   5.521  0.00  0.00    +0.000 NA
ATOM     31  C   UNL     1      54.102   4.208   6.281  0.00  0.00    +0.000 A 
ATOM     32  N   UNL     1      53.799   4.272   7.617  0.00  0.00    +0.000 N 
ATOM     33  C   UNL     1      53.696   5.459   8.303  0.00  0.00    +0.000 A 
ATOM     34  O   UNL     1      53.472   5.481   9.509  0.00  0.00    +0.000 OA
ATOM     35  C   UNL     1      53.884   6.645   7.489  0.00  0.00    +0.000 A 
ATOM     36  H   UNL     1      53.670   3.431   8.159  0.00  0.00    +0.000 HD
ENDBRANCH  23  26
ENDBRANCH  21  22
ENDBRANCH   4  21
TORSDOF 8
ENDMDL
MODEL 7
REMARK VINA RESULT:    -6.517      0.962      2.341
REMARK INTER + INTRA:         -11.138
REMARK INTER:                  -9.806
REMARK INTRA:                  -1.332
REMARK UNBOUND:                -1.573
REMARK  Name = 
REMARK  9 active torsions:
REMARK  status: ('A' for Active; 'I' for Inactive)
REMARK    1  A    between atoms: C_1  and  C_2
REMARK    2  A    between atoms: C_2  and  O_3
REMARK    3  A    between atoms: O_3  and  C_4
REMARK    4  A    between atoms: C_9  and  C_10
REMARK    5  A    between atoms: N_12  and  C_13
REMARK    6  A    between atoms: C_13  and  C_14
REMARK    7  A    between atoms: C_17  and  C_18
REMARK    8  A    between atoms: C_18  and  N_19
REMARK    9  A    between atoms: C_20  and  C_22
REMARK                            x       y       z     vdW  Elec       q    Type
REMARK                         _______ _______ _______ _____ _____    ______ ____
ROOT
ATOM      1  C   UNL     1      50.178   7.386  15.359  0.00  0.00    +0.000 A 
ATOM      2  C   UNL     1      48.986   6.651  15.310  0.00  0.00    +0.000 A 
ATOM      3  C   UNL     1      48.138   6.739  14.197  0.00  0.00    +0.000 A 
ATOM      4  C   UNL     1      48.477   7.547  13.105  0.00  0.00    +0.000 A 
ATOM      5  C   UNL     1      49.676   8.272  13.150  0.00  0.00    +0.000 A 
ATOM      6  C   UNL     1      50.522   8.184  14.261  0.00  0.00    +0.000 A 
ENDROOT
BRANCH   1   7
ATOM      7  C   UNL     1      51.081   7.312  16.564  0.00  0.00    +0.000 C 
BRANCH   7  10
ATOM      8  C   UNL     1      51.094   5.136  17.709  0.00  0.00    +0.000 C 
ATOM      9  O   UNL     1      50.193   5.483  18.471  0.00  0.00    +0.000 OA
ATOM     10  N   UNL     1      51.609   5.986  16.759  0.00  0.00    +0.000 N 
ATOM     11  H   UNL     1      52.347   5.650  16.153  0.00  0.00    +0.000 HD
BRANCH   8  17
ATOM     12  C   UNL     1      52.975   3.415  18.150  0.00  0.00    +0.000 A 
ATOM     13  C   UNL     1      53.378   2.068  18.127  0.00  0.00    +0.000 A 
ATOM     14  C   UNL     1      52.489   1.055  17.764  0.00  0.00    +0.000 A 
ATOM     15  C   UNL     1      51.180   1.371  17.422  0.00  0.00    +0.000 A 
ATOM     16  C   UNL     1      50.767   2.703  17.430  0.00  0.00    +0.000 A 
ATOM     17  C   UNL     1      51.654   3.740  17.780  0.00  0.00    +0.000 A 
BRANCH  12  18
ATOM     18  O   UNL     1      53.819   4.439  18.513  0.00  0.00    +0.000 OA
BRANCH  18  20
ATOM     19  C   UNL     1      55.009   4.696  20.571  0.00  0.00    +0.000 C 
ATOM     20  C   UNL     1      53.704   4.953  19.841  0.00  0.00    +0.000 C 
ENDBRANCH  18  20
ENDBRANCH  12  18
ENDBRANCH   8  17
ENDBRANCH   7  10
ENDBRANCH   1   7
BRANCH   4  21
ATOM     21  C   UNL     1      47.549   7.679  11.923  0.00  0.00    +0.000 C 
BRANCH  21  22
ATOM     22  N   UNL     1      46.860   6.441  11.657  0.00  0.00    +0.000 N 
ATOM     23  C   UNL     1      45.489   6.373  11.661  0.00  0.00    +0.000 C 
ATOM     24  O   UNL     1      44.792   7.368  11.842  0.00  0.00    +0.000 OA
ATOM     25  H   UNL     1      47.403   5.585  11.727  0.00  0.00    +0.000 HD
BRANCH  23  26
ATOM     26  C   UNL     1      44.890   5.062  11.378  0.00  0.00    +0.000 A 
ATOM     27  C   UNL     1      44.155   4.415  12.363  0.00  0.00    +0.000 A 
ATOM     28  S   UNL     1      43.483   2.932  11.856  0.00  0.00    +0.000 S 
ATOM     29  C   UNL     1      44.199   3.071  10.320  0.00  0.00    +0.000 A 
ATOM     30  N   UNL     1      44.040   2.098   9.384  0.00  0.00    +0.000 NA
ATOM     31  C   UNL     1      44.670   2.312   8.277  0.00  0.00    +0.000 A 
ATOM     32  N   UNL     1      45.442   3.415   8.021  0.00  0.00    +0.000 N 
ATOM     33  C   UNL     1      45.601   4.442   8.921  0.00  0.00    +0.000 A 
ATOM     34  O   UNL     1      46.258   5.440   8.642  0.00  0.00    +0.000 OA
ATOM     35  C   UNL     1      44.925   4.242  10.190  0.00  0.00    +0.000 A 
ATOM     36  H   UNL     1      45.903   3.528   7.130  0.00  0.00    +0.000 HD
ENDBRANCH  23  26
ENDBRANCH  21  22
ENDBRANCH   4  21
TORSDOF 8
ENDMDL
MODEL 8
REMARK VINA RESULT:    -6.514      5.047      6.652
REMARK INTER + INTRA:         -11.134
REMARK INTER:                  -9.644
REMARK INTRA:                  -1.490
REMARK UNBOUND:                -1.573
REMARK  Name = 
REMARK  9 active torsions:
REMARK  status: ('A' for Active; 'I' for Inactive)
REMARK    1  A    between atoms: C_1  and  C_2
REMARK    2  A    between atoms: C_2  and  O_3
REMARK    3  A    between atoms: O_3  and  C_4
REMARK    4  A    between atoms: C_9  and  C_10
REMARK    5  A    between atoms: N_12  and  C_13
REMARK    6  A    between atoms: C_13  and  C_14
REMARK    7  A    between atoms: C_17  and  C_18
REMARK    8  A    between atoms: C_18  and  N_19
REMARK    9  A    between atoms: C_20  and  C_22
REMARK                            x       y       z     vdW  Elec       q    Type
REMARK                         _______ _______ _______ _____ _____    ______ ____
ROOT
ATOM      1  C   UNL     1      50.400   8.922  11.323  0.00  0.00    +0.000 A 
ATOM      2  C   UNL     1      49.503   9.979  11.526  0.00  0.00    +0.000 A 
ATOM      3  C   UNL     1      48.209   9.735  12.006  0.00  0.00    +0.000 A 
ATOM      4  C   UNL     1      47.796   8.432  12.310  0.00  0.00    +0.000 A 
ATOM      5  C   UNL     1      48.698   7.377  12.118  0.00  0.00    +0.000 A 
ATOM      6  C   UNL     1      49.989   7.621  11.640  0.00  0.00    +0.000 A 
ENDROOT
BRANCH   1   7
ATOM      7  C   UNL     1      51.785   9.177  10.785  0.00  0.00    +0.000 C 
BRANCH   7  10
ATOM      8  C   UNL     1      53.532   7.805   9.732  0.00  0.00    +0.000 C 
ATOM      9  O   UNL     1      54.424   8.402  10.332  0.00  0.00    +0.000 OA
ATOM     10  N   UNL     1      52.208   8.142   9.876  0.00  0.00    +0.000 N 
ATOM     11  H   UNL     1      51.512   7.615   9.364  0.00  0.00    +0.000 HD
BRANCH   8  17
ATOM     12  C   UNL     1      53.328   6.450   7.536  0.00  0.00    +0.000 A 
ATOM     13  C   UNL     1      53.696   5.301   6.815  0.00  0.00    +0.000 A 
ATOM     14  C   UNL     1      54.597   4.375   7.343  0.00  0.00    +0.000 A 
ATOM     15  C   UNL     1      55.149   4.584   8.600  0.00  0.00    +0.000 A 
ATOM     16  C   UNL     1      54.787   5.714   9.334  0.00  0.00    +0.000 A 
ATOM     17  C   UNL     1      53.869   6.652   8.823  0.00  0.00    +0.000 A 
BRANCH  12  18
ATOM     18  O   UNL     1      52.452   7.390   7.045  0.00  0.00    +0.000 OA
BRANCH  18  20
ATOM     19  C   UNL     1      52.624   9.721   6.540  0.00  0.00    +0.000 C 
ATOM     20  C   UNL     1      52.947   8.314   6.074  0.00  0.00    +0.000 C 
ENDBRANCH  18  20
ENDBRANCH  12  18
ENDBRANCH   8  17
ENDBRANCH   7  10
ENDBRANCH   1   7
BRANCH   4  21
ATOM     21  C   UNL     1      46.391   8.158  12.786  0.00  0.00    +0.000 C 
BRANCH  21  22
ATOM     22  N   UNL     1      45.973   6.821  12.442  0.00  0.00    +0.000 N 
ATOM     23  C   UNL     1      44.854   6.598  11.680  0.00  0.00    +0.000 C 
ATOM     24  O   UNL     1      44.190   7.523  11.218  0.00  0.00    +0.000 OA
ATOM     25  H   UNL     1      46.368   6.058  12.986  0.00  0.00    +0.000 HD
BRANCH  23  26
ATOM     26  C   UNL     1      44.519   5.198  11.388  0.00  0.00    +0.000 A 
ATOM     27  C   UNL     1      43.779   4.463  12.305  0.00  0.00    +0.000 A 
ATOM     28  S   UNL     1      43.430   2.875  11.791  0.00  0.00    +0.000 S 
ATOM     29  C   UNL     1      44.306   3.091  10.350  0.00  0.00    +0.000 A 
ATOM     30  N   UNL     1      44.430   2.080   9.449  0.00  0.00    +0.000 NA
ATOM     31  C   UNL     1      45.154   2.368   8.419  0.00  0.00    +0.000 A 
ATOM     32  N   UNL     1      45.761   3.579   8.207  0.00  0.00    +0.000 N 
ATOM     33  C   UNL     1      45.632   4.641   9.069  0.00  0.00    +0.000 A 
ATOM     34  O   UNL     1      46.148   5.727   8.826  0.00  0.00    +0.000 OA
ATOM     35  C   UNL     1      44.841   4.364  10.254  0.00  0.00    +0.000 A 
ATOM     36  H   UNL     1      46.309   3.743   7.375  0.00  0.00    +0.000 HD
ENDBRANCH  23  26
ENDBRANCH  21  22
ENDBRANCH   4  21
TORSDOF 8
ENDMDL
MODEL 9
REMARK VINA RESULT:    -6.321      3.062      8.365
REMARK INTER + INTRA:         -10.850
REMARK INTER:                 -10.298
REMARK INTRA:                  -0.552
REMARK UNBOUND:                -1.573
REMARK  Name = 
REMARK  9 active torsions:
REMARK  status: ('A' for Active; 'I' for Inactive)
REMARK    1  A    between atoms: C_1  and  C_2
REMARK    2  A    between atoms: C_2  and  O_3
REMARK    3  A    between atoms: O_3  and  C_4
REMARK    4  A    between atoms: C_9  and  C_10
REMARK    5  A    between atoms: N_12  and  C_13
REMARK    6  A    between atoms: C_13  and  C_14
REMARK    7  A    between atoms: C_17  and  C_18
REMARK    8  A    between atoms: C_18  and  N_19
REMARK    9  A    between atoms: C_20  and  C_22
REMARK                            x       y       z     vdW  Elec       q    Type
REMARK                         _______ _______ _______ _____ _____    ______ ____
ROOT
ATOM      1  C   UNL     1      44.867   7.287  11.690  0.00  0.00    +0.000 A 
ATOM      2  C   UNL     1      45.175   8.649  11.815  0.00  0.00    +0.000 A 
ATOM      3  C   UNL     1      46.211   9.071  12.659  0.00  0.00    +0.000 A 
ATOM      4  C   UNL     1      46.971   8.139  13.376  0.00  0.00    +0.000 A 
ATOM      5  C   UNL     1      46.670   6.777  13.240  0.00  0.00    +0.000 A 
ATOM      6  C   UNL     1      45.636   6.355  12.398  0.00  0.00    +0.000 A 
ENDROOT
BRANCH   1   7
ATOM      7  C   UNL     1      43.738   6.830  10.801  0.00  0.00    +0.000 C 
BRANCH   7  10
ATOM      8  C   UNL     1      45.075   5.253   9.470  0.00  0.00    +0.000 C 
ATOM      9  O   UNL     1      45.873   6.133   9.150  0.00  0.00    +0.000 OA
ATOM     10  N   UNL     1      43.980   5.518  10.257  0.00  0.00    +0.000 N 
ATOM     11  H   UNL     1      43.356   4.758  10.496  0.00  0.00    +0.000 HD
BRANCH   8  17
ATOM     12  C   UNL     1      44.621   2.707   9.543  0.00  0.00    +0.000 A 
ATOM     13  C   UNL     1      44.956   1.430   9.061  0.00  0.00    +0.000 A 
ATOM     14  C   UNL     1      45.921   1.264   8.066  0.00  0.00    +0.000 A 
ATOM     15  C   UNL     1      46.565   2.373   7.533  0.00  0.00    +0.000 A 
ATOM     16  C   UNL     1      46.251   3.647   8.006  0.00  0.00    +0.000 A 
ATOM     17  C   UNL     1      45.290   3.833   9.019  0.00  0.00    +0.000 A 
BRANCH  12  18
ATOM     18  O   UNL     1      43.668   2.911  10.514  0.00  0.00    +0.000 OA
BRANCH  18  20
ATOM     19  C   UNL     1      43.408   3.527  12.809  0.00  0.00    +0.000 C 
ATOM     20  C   UNL     1      43.981   2.504  11.847  0.00  0.00    +0.000 C 
ENDBRANCH  18  20
ENDBRANCH  12  18
ENDBRANCH   8  17
ENDBRANCH   7  10
ENDBRANCH   1   7
BRANCH   4  21
ATOM     21  C   UNL     1      48.059   8.589  14.319  0.00  0.00    +0.000 C 
BRANCH  21  22
ATOM     22  N   UNL     1      48.240   7.649  15.397  0.00  0.00    +0.000 N 
ATOM     23  C   UNL     1      49.412   6.950  15.545  0.00  0.00    +0.000 C 
ATOM     24  O   UNL     1      50.372   7.130  14.798  0.00  0.00    +0.000 OA
ATOM     25  H   UNL     1      47.404   7.328  15.877  0.00  0.00    +0.000 HD
BRANCH  23  26
ATOM     26  C   UNL     1      49.490   6.017  16.677  0.00  0.00    +0.000 A 
ATOM     27  C   UNL     1      50.479   6.183  17.638  0.00  0.00    +0.000 A 
ATOM     28  S   UNL     1      50.396   5.052  18.911  0.00  0.00    +0.000 S 
ATOM     29  C   UNL     1      49.072   4.261  18.195  0.00  0.00    +0.000 A 
ATOM     30  N   UNL     1      48.516   3.164  18.774  0.00  0.00    +0.000 NA
ATOM     31  C   UNL     1      47.545   2.639  18.104  0.00  0.00    +0.000 A 
ATOM     32  N   UNL     1      47.075   3.119  16.909  0.00  0.00    +0.000 N 
ATOM     33  C   UNL     1      47.579   4.246  16.305  0.00  0.00    +0.000 A 
ATOM     34  O   UNL     1      47.103   4.677  15.259  0.00  0.00    +0.000 OA
ATOM     35  C   UNL     1      48.686   4.864  17.010  0.00  0.00    +0.000 A 
ATOM     36  H   UNL     1      46.305   2.667  16.438  0.00  0.00    +0.000 HD
ENDBRANCH  23  26
ENDBRANCH  21  22
ENDBRANCH   4  21
TORSDOF 8
ENDMDL
