MODEL 1
REMARK VINA RESULT:    -8.283      0.000      0.000
REMARK INTER + INTRA:         -11.255
REMARK INTER:                 -10.946
REMARK INTRA:                  -0.309
REMARK UNBOUND:                -0.309
REMARK  Name = 
REMARK  6 active torsions:
REMARK  status: ('A' for Active; 'I' for Inactive)
REMARK    1  A    between atoms: N_1  and  C_2
REMARK    2  A    between atoms: C_2  and  C_3
REMARK    3  A    between atoms: C_2  and  C_17
REMARK    4  A    between atoms: C_3  and  N_4
REMARK    5  A    between atoms: C_7  and  C_8
REMARK    6  A    between atoms: C_8  and  N_9
REMARK                            x       y       z     vdW  Elec       q    Type
REMARK                         _______ _______ _______ _____ _____    ______ ____
ROOT
ATOM      1  C   UNL     1      47.124   4.664  14.023  0.00  0.00    +0.000 C 
ENDROOT
BRANCH   1   2
ATOM      2  C   UNL     1      47.851   5.475  15.099  0.00  0.00    +0.000 A 
ATOM      3  C   UNL     1      48.583   6.640  14.854  0.00  0.00    +0.000 A 
ATOM      4  S   UNL     1      49.505   7.177  16.182  0.00  0.00    +0.000 S 
ATOM      5  C   UNL     1      48.911   5.929  17.168  0.00  0.00    +0.000 A 
ATOM      6  N   UNL     1      49.361   5.779  18.443  0.00  0.00    +0.000 NA
ATOM      7  C   UNL     1      48.847   4.777  19.074  0.00  0.00    +0.000 A 
ATOM      8  N   UNL     1      47.907   3.926  18.552  0.00  0.00    +0.000 N 
ATOM      9  C   UNL     1      47.394   4.065  17.285  0.00  0.00    +0.000 A 
ATOM     10  O   UNL     1      46.496   3.326  16.873  0.00  0.00    +0.000 OA
ATOM     11  C   UNL     1      47.986   5.135  16.508  0.00  0.00    +0.000 A 
ATOM     12  H   UNL     1      47.518   3.183  19.116  0.00  0.00    +0.000 HD
ENDBRANCH   1   2
BRANCH   1  13
ATOM     13  N   UNL     1      47.469   3.232  14.203  0.00  0.00    +0.000 NA
ATOM     14  H   UNL     1      46.699   2.670  13.836  0.00  0.00    +0.000 HD
ATOM     15  H   UNL     1      47.409   3.061  15.213  0.00  0.00    +0.000 HD
ENDBRANCH   1  13
BRANCH   1  16
ATOM     16  C   UNL     1      45.549   4.770  14.022  0.00  0.00    +0.000 C 
BRANCH  16  17
ATOM     17  N   UNL     1      44.896   5.163  12.740  0.00  0.00    +0.000 NA
ATOM     18  C   UNL     1      45.860   5.097  11.637  0.00  0.00    +0.000 C 
ATOM     19  C   UNL     1      45.258   5.361  10.272  0.00  0.00    +0.000 C 
ATOM     20  C   UNL     1      44.147   4.369   9.973  0.00  0.00    +0.000 C 
ATOM     21  C   UNL     1      43.108   4.496  11.094  0.00  0.00    +0.000 C 
ATOM     22  C   UNL     1      43.728   4.289  12.488  0.00  0.00    +0.000 C 
BRANCH  20  23
ATOM     23  C   UNL     1      44.701   2.927   9.816  0.00  0.00    +0.000 C 
BRANCH  23  24
ATOM     24  N   UNL     1      45.776   2.814   8.815  0.00  0.00    +0.000 NA
ATOM     25  C   UNL     1      45.972   1.414   8.410  0.00  0.00    +0.000 C 
ATOM     26  C   UNL     1      47.091   1.280   7.383  0.00  0.00    +0.000 C 
ATOM     27  C   UNL     1      46.812   2.140   6.162  0.00  0.00    +0.000 C 
ATOM     28  C   UNL     1      46.580   3.584   6.589  0.00  0.00    +0.000 C 
ATOM     29  C   UNL     1      45.486   3.675   7.655  0.00  0.00    +0.000 C 
ENDBRANCH  23  24
ENDBRANCH  20  23
ENDBRANCH  16  17
ENDBRANCH   1  16
TORSDOF 6
ENDMDL
MODEL 2
REMARK VINA RESULT:    -7.813      3.629      4.617
REMARK INTER + INTRA:         -10.635
REMARK INTER:                  -9.941
REMARK INTRA:                  -0.694
REMARK UNBOUND:                -0.309
REMARK  Name = 
REMARK  6 active torsions:
REMARK  status: ('A' for Active; 'I' for Inactive)
REMARK    1  A    between atoms: N_1  and  C_2
REMARK    2  A    between atoms: C_2  and  C_3
REMARK    3  A    between atoms: C_2  and  C_17
REMARK    4  A    between atoms: C_3  and  N_4
REMARK    5  A    between atoms: C_7  and  C_8
REMARK    6  A    between atoms: C_8  and  N_9
REMARK                            x       y       z     vdW  Elec       q    Type
REMARK                         _______ _______ _______ _____ _____    ______ ____
ROOT
ATOM      1  C   UNL     1      45.698   8.653  12.714  0.00  0.00    +0.000 C 
ENDROOT
BRANCH   1   2
ATOM      2  C   UNL     1      46.974   9.361  12.251  0.00  0.00    +0.000 A 
ATOM      3  C   UNL     1      47.011  10.637  11.683  0.00  0.00    +0.000 A 
ATOM      4  S   UNL     1      48.519  11.061  11.015  0.00  0.00    +0.000 S 
ATOM      5  C   UNL     1      49.215   9.597  11.520  0.00  0.00    +0.000 A 
ATOM      6  N   UNL     1      50.504   9.296  11.203  0.00  0.00    +0.000 NA
ATOM      7  C   UNL     1      50.899   8.143  11.627  0.00  0.00    +0.000 A 
ATOM      8  N   UNL     1      50.130   7.274  12.357  0.00  0.00    +0.000 N 
ATOM      9  C   UNL     1      48.839   7.554  12.735  0.00  0.00    +0.000 A 
ATOM     10  O   UNL     1      48.200   6.783  13.455  0.00  0.00    +0.000 OA
ATOM     11  C   UNL     1      48.321   8.809  12.229  0.00  0.00    +0.000 A 
ATOM     12  H   UNL     1      50.517   6.402  12.690  0.00  0.00    +0.000 HD
ENDBRANCH   1   2
BRANCH   1  13
ATOM     13  N   UNL     1      44.627   9.670  12.864  0.00  0.00    +0.000 NA
ATOM     14  H   UNL     1      43.947   9.530  12.116  0.00  0.00    +0.000 HD
ATOM     15  H   UNL     1      45.061  10.564  12.608  0.00  0.00    +0.000 HD
ENDBRANCH   1  13
BRANCH   1  16
ATOM     16  C   UNL     1      45.143   7.529  11.755  0.00  0.00    +0.000 C 
BRANCH  16  17
ATOM     17  N   UNL     1      44.907   6.183  12.354  0.00  0.00    +0.000 NA
ATOM     18  C   UNL     1      43.523   5.759  12.121  0.00  0.00    +0.000 C 
ATOM     19  C   UNL     1      43.220   4.349  12.585  0.00  0.00    +0.000 C 
ATOM     20  C   UNL     1      44.131   3.348  11.895  0.00  0.00    +0.000 C 
ATOM     21  C   UNL     1      45.576   3.758  12.204  0.00  0.00    +0.000 C 
ATOM     22  C   UNL     1      45.871   5.211  11.789  0.00  0.00    +0.000 C 
BRANCH  20  23
ATOM     23  C   UNL     1      43.833   3.265  10.373  0.00  0.00    +0.000 C 
BRANCH  23  24
ATOM     24  N   UNL     1      45.040   3.102   9.545  0.00  0.00    +0.000 NA
ATOM     25  C   UNL     1      45.086   1.761   8.942  0.00  0.00    +0.000 C 
ATOM     26  C   UNL     1      46.337   1.572   8.091  0.00  0.00    +0.000 C 
ATOM     27  C   UNL     1      46.418   2.633   7.005  0.00  0.00    +0.000 C 
ATOM     28  C   UNL     1      46.340   4.019   7.631  0.00  0.00    +0.000 C 
ATOM     29  C   UNL     1      45.099   4.155   8.517  0.00  0.00    +0.000 C 
ENDBRANCH  23  24
ENDBRANCH  20  23
ENDBRANCH  16  17
ENDBRANCH   1  16
TORSDOF 6
ENDMDL
MODEL 3
REMARK VINA RESULT:    -7.321      2.343      3.486
REMARK INTER + INTRA:          -9.984
REMARK INTER:                  -9.552
REMARK INTRA:                  -0.431
REMARK UNBOUND:                -0.309
REMARK  Name = 
REMARK  6 active torsions:
REMARK  status: ('A' for Active; 'I' for Inactive)
REMARK    1  A    between atoms: N_1  and  C_2
REMARK    2  A    between atoms: C_2  and  C_3
REMARK    3  A    between atoms: C_2  and  C_17
REMARK    4  A    between atoms: C_3  and  N_4
REMARK    5  A    between atoms: C_7  and  C_8
REMARK    6  A    between atoms: C_8  and  N_9
REMARK                            x       y       z     vdW  Elec       q    Type
REMARK                         _______ _______ _______ _____ _____    ______ ____
ROOT
ATOM      1  C   UNL     1      46.783   4.612  13.559  0.00  0.00    +0.000 C 
ENDROOT
BRANCH   1   2
ATOM      2  C   UNL     1      47.699   5.723  14.080  0.00  0.00    +0.000 A 
ATOM      3  C   UNL     1      48.272   5.744  15.355  0.00  0.00    +0.000 A 
ATOM      4  S   UNL     1      49.018   7.220  15.760  0.00  0.00    +0.000 S 
ATOM      5  C   UNL     1      48.682   7.872  14.229  0.00  0.00    +0.000 A 
ATOM      6  N   UNL     1      49.011   9.160  13.936  0.00  0.00    +0.000 NA
ATOM      7  C   UNL     1      48.678   9.535  12.747  0.00  0.00    +0.000 A 
ATOM      8  N   UNL     1      48.066   8.734  11.818  0.00  0.00    +0.000 N 
ATOM      9  C   UNL     1      47.754   7.417  12.056  0.00  0.00    +0.000 A 
ATOM     10  O   UNL     1      47.272   6.704  11.173  0.00  0.00    +0.000 OA
ATOM     11  C   UNL     1      48.046   6.961  13.400  0.00  0.00    +0.000 A 
ATOM     12  H   UNL     1      47.868   9.083  10.890  0.00  0.00    +0.000 HD
ENDBRANCH   1   2
BRANCH   1  13
ATOM     13  N   UNL     1      47.251   3.318  14.116  0.00  0.00    +0.000 NA
ATOM     14  H   UNL     1      46.448   2.834  14.517  0.00  0.00    +0.000 HD
ATOM     15  H   UNL     1      47.803   3.562  14.947  0.00  0.00    +0.000 HD
ENDBRANCH   1  13
BRANCH   1  16
ATOM     16  C   UNL     1      45.253   4.750  13.922  0.00  0.00    +0.000 C 
BRANCH  16  17
ATOM     17  N   UNL     1      44.270   4.472  12.835  0.00  0.00    +0.000 NA
ATOM     18  C   UNL     1      44.230   5.591  11.888  0.00  0.00    +0.000 C 
ATOM     19  C   UNL     1      43.349   5.348  10.679  0.00  0.00    +0.000 C 
ATOM     20  C   UNL     1      43.808   4.116   9.918  0.00  0.00    +0.000 C 
ATOM     21  C   UNL     1      43.779   2.937  10.898  0.00  0.00    +0.000 C 
ATOM     22  C   UNL     1      44.624   3.204  12.157  0.00  0.00    +0.000 C 
BRANCH  20  23
ATOM     23  C   UNL     1      45.203   4.336   9.271  0.00  0.00    +0.000 C 
BRANCH  23  24
ATOM     24  N   UNL     1      45.521   3.364   8.211  0.00  0.00    +0.000 NA
ATOM     25  C   UNL     1      46.476   3.931   7.248  0.00  0.00    +0.000 C 
ATOM     26  C   UNL     1      46.806   2.940   6.136  0.00  0.00    +0.000 C 
ATOM     27  C   UNL     1      47.355   1.644   6.712  0.00  0.00    +0.000 C 
ATOM     28  C   UNL     1      46.376   1.076   7.731  0.00  0.00    +0.000 C 
ATOM     29  C   UNL     1      46.030   2.114   8.801  0.00  0.00    +0.000 C 
ENDBRANCH  23  24
ENDBRANCH  20  23
ENDBRANCH  16  17
ENDBRANCH   1  16
TORSDOF 6
ENDMDL
MODEL 4
REMARK VINA RESULT:    -7.210      3.059      8.218
REMARK INTER + INTRA:          -9.837
REMARK INTER:                  -9.108
REMARK INTRA:                  -0.729
REMARK UNBOUND:                -0.309
REMARK  Name = 
REMARK  6 active torsions:
REMARK  status: ('A' for Active; 'I' for Inactive)
REMARK    1  A    between atoms: N_1  and  C_2
REMARK    2  A    between atoms: C_2  and  C_3
REMARK    3  A    between atoms: C_2  and  C_17
REMARK    4  A    between atoms: C_3  and  N_4
REMARK    5  A    between atoms: C_7  and  C_8
REMARK    6  A    between atoms: C_8  and  N_9
REMARK                            x       y       z     vdW  Elec       q    Type
REMARK                         _______ _______ _______ _____ _____    ______ ____
ROOT
ATOM      1  C   UNL     1      44.763   6.642  11.300  0.00  0.00    +0.000 C 
ENDROOT
BRANCH   1   2
ATOM      2  C   UNL     1      44.282   5.202  11.102  0.00  0.00    +0.000 A 
ATOM      3  C   UNL     1      43.403   4.535  11.960  0.00  0.00    +0.000 A 
ATOM      4  S   UNL     1      43.256   2.867  11.650  0.00  0.00    +0.000 S 
ATOM      5  C   UNL     1      44.295   2.970  10.311  0.00  0.00    +0.000 A 
ATOM      6  N   UNL     1      44.644   1.853   9.616  0.00  0.00    +0.000 NA
ATOM      7  C   UNL     1      45.457   2.068   8.638  0.00  0.00    +0.000 A 
ATOM      8  N   UNL     1      45.935   3.302   8.277  0.00  0.00    +0.000 N 
ATOM      9  C   UNL     1      45.577   4.461   8.923  0.00  0.00    +0.000 A 
ATOM     10  O   UNL     1      45.966   5.562   8.527  0.00  0.00    +0.000 OA
ATOM     11  C   UNL     1      44.716   4.269  10.073  0.00  0.00    +0.000 A 
ATOM     12  H   UNL     1      46.540   3.403   7.474  0.00  0.00    +0.000 HD
ENDBRANCH   1   2
BRANCH   1  13
ATOM     13  N   UNL     1      43.619   7.556  11.057  0.00  0.00    +0.000 NA
ATOM     14  H   UNL     1      43.815   8.443  11.521  0.00  0.00    +0.000 HD
ATOM     15  H   UNL     1      42.844   7.178  11.615  0.00  0.00    +0.000 HD
ENDBRANCH   1  13
BRANCH   1  16
ATOM     16  C   UNL     1      45.342   6.988  12.727  0.00  0.00    +0.000 C 
BRANCH  16  17
ATOM     17  N   UNL     1      46.766   7.428  12.794  0.00  0.00    +0.000 NA
ATOM     18  C   UNL     1      46.928   8.474  13.808  0.00  0.00    +0.000 C 
ATOM     19  C   UNL     1      48.364   8.899  14.036  0.00  0.00    +0.000 C 
ATOM     20  C   UNL     1      49.215   7.713  14.458  0.00  0.00    +0.000 C 
ATOM     21  C   UNL     1      49.096   6.652  13.356  0.00  0.00    +0.000 C 
ATOM     22  C   UNL     1      47.633   6.262  13.079  0.00  0.00    +0.000 C 
BRANCH  20  23
ATOM     23  C   UNL     1      48.800   7.187  15.858  0.00  0.00    +0.000 C 
BRANCH  23  24
ATOM     24  N   UNL     1      49.240   5.806  16.123  0.00  0.00    +0.000 NA
ATOM     25  C   UNL     1      50.335   5.782  17.105  0.00  0.00    +0.000 C 
ATOM     26  C   UNL     1      50.810   4.360  17.380  0.00  0.00    +0.000 C 
ATOM     27  C   UNL     1      49.661   3.489  17.862  0.00  0.00    +0.000 C 
ATOM     28  C   UNL     1      48.518   3.540  16.857  0.00  0.00    +0.000 C 
ATOM     29  C   UNL     1      48.101   4.985  16.568  0.00  0.00    +0.000 C 
ENDBRANCH  23  24
ENDBRANCH  20  23
ENDBRANCH  16  17
ENDBRANCH   1  16
TORSDOF 6
ENDMDL
MODEL 5
REMARK VINA RESULT:    -6.833      3.050      4.635
REMARK INTER + INTRA:          -9.340
REMARK INTER:                  -8.400
REMARK INTRA:                  -0.940
REMARK UNBOUND:                -0.309
REMARK  Name = 
REMARK  6 active torsions:
REMARK  status: ('A' for Active; 'I' for Inactive)
REMARK    1  A    between atoms: N_1  and  C_2
REMARK    2  A    between atoms: C_2  and  C_3
REMARK    3  A    between atoms: C_2  and  C_17
REMARK    4  A    between atoms: C_3  and  N_4
REMARK    5  A    between atoms: C_7  and  C_8
REMARK    6  A    between atoms: C_8  and  N_9
REMARK                            x       y       z     vdW  Elec       q    Type
REMARK                         _______ _______ _______ _____ _____    ______ ____
ROOT
ATOM      1  C   UNL     1      48.761   5.684  16.575  0.00  0.00    +0.000 C 
ENDROOT
BRANCH   1   2
ATOM      2  C   UNL     1      49.952   5.118  17.354  0.00  0.00    +0.000 A 
ATOM      3  C   UNL     1      50.866   5.892  18.075  0.00  0.00    +0.000 A 
ATOM      4  S   UNL     1      52.236   5.034  18.612  0.00  0.00    +0.000 S 
ATOM      5  C   UNL     1      51.640   3.577  17.976  0.00  0.00    +0.000 A 
ATOM      6  N   UNL     1      52.378   2.436  18.046  0.00  0.00    +0.000 NA
ATOM      7  C   UNL     1      51.818   1.408  17.504  0.00  0.00    +0.000 A 
ATOM      8  N   UNL     1      50.579   1.411  16.919  0.00  0.00    +0.000 N 
ATOM      9  C   UNL     1      49.781   2.529  16.863  0.00  0.00    +0.000 A 
ATOM     10  O   UNL     1      48.641   2.480  16.396  0.00  0.00    +0.000 OA
ATOM     11  C   UNL     1      50.388   3.731  17.399  0.00  0.00    +0.000 A 
ATOM     12  H   UNL     1      50.184   0.558  16.546  0.00  0.00    +0.000 HD
ENDBRANCH   1   2
BRANCH   1  13
ATOM     13  N   UNL     1      47.532   5.469  17.379  0.00  0.00    +0.000 NA
ATOM     14  H   UNL     1      47.213   4.512  17.226  0.00  0.00    +0.000 HD
ATOM     15  H   UNL     1      46.803   6.025  16.918  0.00  0.00    +0.000 HD
ENDBRANCH   1  13
BRANCH   1  16
ATOM     16  C   UNL     1      48.829   7.221  16.227  0.00  0.00    +0.000 C 
BRANCH  16  17
ATOM     17  N   UNL     1      48.698   7.598  14.789  0.00  0.00    +0.000 NA
ATOM     18  C   UNL     1      48.338   6.424  13.987  0.00  0.00    +0.000 C 
ATOM     19  C   UNL     1      48.061   6.731  12.530  0.00  0.00    +0.000 C 
ATOM     20  C   UNL     1      46.936   7.744  12.397  0.00  0.00    +0.000 C 
ATOM     21  C   UNL     1      47.353   8.995  13.180  0.00  0.00    +0.000 C 
ATOM     22  C   UNL     1      47.695   8.677  14.647  0.00  0.00    +0.000 C 
BRANCH  20  23
ATOM     23  C   UNL     1      45.582   7.151  12.872  0.00  0.00    +0.000 C 
BRANCH  23  24
ATOM     24  N   UNL     1      45.184   5.932  12.146  0.00  0.00    +0.000 NA
ATOM     25  C   UNL     1      45.084   4.785  13.061  0.00  0.00    +0.000 C 
ATOM     26  C   UNL     1      44.686   3.513  12.321  0.00  0.00    +0.000 C 
ATOM     27  C   UNL     1      43.371   3.705  11.583  0.00  0.00    +0.000 C 
ATOM     28  C   UNL     1      43.469   4.912  10.659  0.00  0.00    +0.000 C 
ATOM     29  C   UNL     1      43.919   6.158  11.426  0.00  0.00    +0.000 C 
ENDBRANCH  23  24
ENDBRANCH  20  23
ENDBRANCH  16  17
ENDBRANCH   1  16
TORSDOF 6
ENDMDL
MODEL 6
REMARK VINA RESULT:    -6.462      3.534      8.288
REMARK INTER + INTRA:          -8.849
REMARK INTER:                  -8.065
REMARK INTRA:                  -0.784
REMARK UNBOUND:                -0.309
REMARK  Name = 
REMARK  6 active torsions:
REMARK  status: ('A' for Active; 'I' for Inactive)
REMARK    1  A    between atoms: N_1  and  C_2
REMARK    2  A    between atoms: C_2  and  C_3
REMARK    3  A    between atoms: C_2  and  C_17
REMARK    4  A    between atoms: C_3  and  N_4
REMARK    5  A    between atoms: C_7  and  C_8
REMARK    6  A    between atoms: C_8  and  N_9
REMARK                            x       y       z     vdW  Elec       q    Type
REMARK                         _______ _______ _______ _____ _____    ______ ____
ROOT
ATOM      1  C   UNL     1      48.596   6.631  14.160  0.00  0.00    +0.000 C 
ENDROOT
BRANCH   1   2
ATOM      2  C   UNL     1      47.301   6.694  13.345  0.00  0.00    +0.000 A 
ATOM      3  C   UNL     1      46.768   7.862  12.794  0.00  0.00    +0.000 A 
ATOM      4  S   UNL     1      45.190   7.685  12.177  0.00  0.00    +0.000 S 
ATOM      5  C   UNL     1      45.174   6.028  12.544  0.00  0.00    +0.000 A 
ATOM      6  N   UNL     1      44.061   5.279  12.318  0.00  0.00    +0.000 NA
ATOM      7  C   UNL     1      44.175   4.041  12.664  0.00  0.00    +0.000 A 
ATOM      8  N   UNL     1      45.308   3.480  13.195  0.00  0.00    +0.000 N 
ATOM      9  C   UNL     1      46.467   4.188  13.401  0.00  0.00    +0.000 A 
ATOM     10  O   UNL     1      47.491   3.637  13.811  0.00  0.00    +0.000 OA
ATOM     11  C   UNL     1      46.374   5.601  13.092  0.00  0.00    +0.000 A 
ATOM     12  H   UNL     1      45.340   2.492  13.408  0.00  0.00    +0.000 HD
ENDBRANCH   1   2
BRANCH   1  13
ATOM     13  N   UNL     1      49.728   6.983  13.267  0.00  0.00    +0.000 NA
ATOM     14  H   UNL     1      49.523   6.622  12.335  0.00  0.00    +0.000 HD
ATOM     15  H   UNL     1      50.509   6.390  13.570  0.00  0.00    +0.000 HD
ENDBRANCH   1  13
BRANCH   1  16
ATOM     16  C   UNL     1      48.673   7.589  15.412  0.00  0.00    +0.000 C 
BRANCH  16  17
ATOM     17  N   UNL     1      48.758   6.946  16.755  0.00  0.00    +0.000 NA
ATOM     18  C   UNL     1      48.675   5.488  16.626  0.00  0.00    +0.000 C 
ATOM     19  C   UNL     1      48.876   4.739  17.927  0.00  0.00    +0.000 C 
ATOM     20  C   UNL     1      50.227   5.071  18.537  0.00  0.00    +0.000 C 
ATOM     21  C   UNL     1      50.276   6.592  18.734  0.00  0.00    +0.000 C 
ATOM     22  C   UNL     1      50.012   7.358  17.425  0.00  0.00    +0.000 C 
BRANCH  20  23
ATOM     23  C   UNL     1      51.392   4.533  17.662  0.00  0.00    +0.000 C 
BRANCH  23  24
ATOM     24  N   UNL     1      51.895   3.217  18.096  0.00  0.00    +0.000 NA
ATOM     25  C   UNL     1      51.262   2.134  17.328  0.00  0.00    +0.000 C 
ATOM     26  C   UNL     1      51.763   0.765  17.774  0.00  0.00    +0.000 C 
ATOM     27  C   UNL     1      53.276   0.675  17.650  0.00  0.00    +0.000 C 
ATOM     28  C   UNL     1      53.926   1.816  18.422  0.00  0.00    +0.000 C 
ATOM     29  C   UNL     1      53.363   3.170  17.983  0.00  0.00    +0.000 C 
ENDBRANCH  23  24
ENDBRANCH  20  23
ENDBRANCH  16  17
ENDBRANCH   1  16
TORSDOF 6
ENDMDL
MODEL 7
REMARK VINA RESULT:    -6.385      3.614      8.993
REMARK INTER + INTRA:          -8.747
REMARK INTER:                  -8.049
REMARK INTRA:                  -0.698
REMARK UNBOUND:                -0.309
REMARK  Name = 
REMARK  6 active torsions:
REMARK  status: ('A' for Active; 'I' for Inactive)
REMARK    1  A    between atoms: N_1  and  C_2
REMARK    2  A    between atoms: C_2  and  C_3
REMARK    3  A    between atoms: C_2  and  C_17
REMARK    4  A    between atoms: C_3  and  N_4
REMARK    5  A    between atoms: C_7  and  C_8
REMARK    6  A    between atoms: C_8  and  N_9
REMARK                            x       y       z     vdW  Elec       q    Type
REMARK                         _______ _______ _______ _____ _____    ______ ____
ROOT
ATOM      1  C   UNL     1      44.979   6.484  11.316  0.00  0.00    +0.000 C 
ENDROOT
BRANCH   1   2
ATOM      2  C   UNL     1      44.438   5.073  11.066  0.00  0.00    +0.000 A 
ATOM      3  C   UNL     1      43.551   4.403  11.914  0.00  0.00    +0.000 A 
ATOM      4  S   UNL     1      43.333   2.757  11.535  0.00  0.00    +0.000 S 
ATOM      5  C   UNL     1      44.347   2.879  10.179  0.00  0.00    +0.000 A 
ATOM      6  N   UNL     1      44.637   1.781   9.430  0.00  0.00    +0.000 NA
ATOM      7  C   UNL     1      45.438   2.008   8.444  0.00  0.00    +0.000 A 
ATOM      8  N   UNL     1      45.956   3.237   8.126  0.00  0.00    +0.000 N 
ATOM      9  C   UNL     1      45.658   4.379   8.829  0.00  0.00    +0.000 A 
ATOM     10  O   UNL     1      46.082   5.481   8.472  0.00  0.00    +0.000 OA
ATOM     11  C   UNL     1      44.814   4.170   9.989  0.00  0.00    +0.000 A 
ATOM     12  H   UNL     1      46.549   3.350   7.315  0.00  0.00    +0.000 HD
ENDBRANCH   1   2
BRANCH   1  13
ATOM     13  N   UNL     1      43.836   7.430  11.317  0.00  0.00    +0.000 NA
ATOM     14  H   UNL     1      42.973   6.888  11.367  0.00  0.00    +0.000 HD
ATOM     15  H   UNL     1      43.802   7.819  10.367  0.00  0.00    +0.000 HD
ENDBRANCH   1  13
BRANCH   1  16
ATOM     16  C   UNL     1      45.762   6.695  12.670  0.00  0.00    +0.000 C 
BRANCH  16  17
ATOM     17  N   UNL     1      47.228   6.950  12.573  0.00  0.00    +0.000 NA
ATOM     18  C   UNL     1      47.477   8.310  12.086  0.00  0.00    +0.000 C 
ATOM     19  C   UNL     1      48.939   8.706  12.071  0.00  0.00    +0.000 C 
ATOM     20  C   UNL     1      49.540   8.598  13.462  0.00  0.00    +0.000 C 
ATOM     21  C   UNL     1      49.339   7.152  13.935  0.00  0.00    +0.000 C 
ATOM     22  C   UNL     1      47.860   6.727  13.893  0.00  0.00    +0.000 C 
BRANCH  20  23
ATOM     23  C   UNL     1      48.925   9.646  14.428  0.00  0.00    +0.000 C 
BRANCH  23  24
ATOM     24  N   UNL     1      49.226   9.389  15.847  0.00  0.00    +0.000 NA
ATOM     25  C   UNL     1      50.183  10.377  16.369  0.00  0.00    +0.000 C 
ATOM     26  C   UNL     1      50.515  10.116  17.834  0.00  0.00    +0.000 C 
ATOM     27  C   UNL     1      49.254  10.114  18.683  0.00  0.00    +0.000 C 
ATOM     28  C   UNL     1      48.255   9.111  18.121  0.00  0.00    +0.000 C 
ATOM     29  C   UNL     1      47.984   9.373  16.638  0.00  0.00    +0.000 C 
ENDBRANCH  23  24
ENDBRANCH  20  23
ENDBRANCH  16  17
ENDBRANCH   1  16
TORSDOF 6
ENDMDL
MODEL 8
REMARK VINA RESULT:    -6.259      4.742      7.839
REMARK INTER + INTRA:          -8.581
REMARK INTER:                  -7.973
REMARK INTRA:                  -0.607
REMARK UNBOUND:                -0.309
REMARK  Name = 
REMARK  6 active torsions:
REMARK  status: ('A' for Active; 'I' for Inactive)
REMARK    1  A    between atoms: N_1  and  C_2
REMARK    2  A    between atoms: C_2  and  C_3
REMARK    3  A    between atoms: C_2  and  C_17
REMARK    4  A    between atoms: C_3  and  N_4
REMARK    5  A    between atoms: C_7  and  C_8
REMARK    6  A    between atoms: C_8  and  N_9
REMARK                            x       y       z     vdW  Elec       q    Type
REMARK                         _______ _______ _______ _____ _____    ______ ____
ROOT
ATOM      1  C   UNL     1      45.509   6.385  11.919  0.00  0.00    +0.000 C 
ENDROOT
BRANCH   1   2
ATOM      2  C   UNL     1      44.769   5.098  11.542  0.00  0.00    +0.000 A 
ATOM      3  C   UNL     1      43.898   4.408  12.388  0.00  0.00    +0.000 A 
ATOM      4  S   UNL     1      43.434   2.874  11.811  0.00  0.00    +0.000 S 
ATOM      5  C   UNL     1      44.308   3.090  10.373  0.00  0.00    +0.000 A 
ATOM      6  N   UNL     1      44.377   2.096   9.447  0.00  0.00    +0.000 NA
ATOM      7  C   UNL     1      45.093   2.382   8.412  0.00  0.00    +0.000 A 
ATOM      8  N   UNL     1      45.728   3.580   8.210  0.00  0.00    +0.000 N 
ATOM      9  C   UNL     1      45.651   4.627   9.097  0.00  0.00    +0.000 A 
ATOM     10  O   UNL     1      46.173   5.717   8.850  0.00  0.00    +0.000 OA
ATOM     11  C   UNL     1      44.914   4.336  10.310  0.00  0.00    +0.000 A 
ATOM     12  H   UNL     1      46.242   3.752   7.356  0.00  0.00    +0.000 HD
ENDBRANCH   1   2
BRANCH   1  13
ATOM     13  N   UNL     1      44.543   7.306  12.568  0.00  0.00    +0.000 NA
ATOM     14  H   UNL     1      43.697   6.779  12.788  0.00  0.00    +0.000 HD
ATOM     15  H   UNL     1      44.226   7.939  11.824  0.00  0.00    +0.000 HD
ENDBRANCH   1  13
BRANCH   1  16
ATOM     16  C   UNL     1      46.730   6.218  12.905  0.00  0.00    +0.000 C 
BRANCH  16  17
ATOM     17  N   UNL     1      47.670   7.370  13.022  0.00  0.00    +0.000 NA
ATOM     18  C   UNL     1      48.994   6.904  13.446  0.00  0.00    +0.000 C 
ATOM     19  C   UNL     1      50.052   7.987  13.474  0.00  0.00    +0.000 C 
ATOM     20  C   UNL     1      50.206   8.626  12.104  0.00  0.00    +0.000 C 
ATOM     21  C   UNL     1      48.831   9.173  11.699  0.00  0.00    +0.000 C 
ATOM     22  C   UNL     1      47.740   8.087  11.729  0.00  0.00    +0.000 C 
BRANCH  20  23
ATOM     23  C   UNL     1      50.789   7.621  11.073  0.00  0.00    +0.000 C 
BRANCH  23  24
ATOM     24  N   UNL     1      52.201   7.875  10.736  0.00  0.00    +0.000 NA
ATOM     25  C   UNL     1      52.729   6.819   9.859  0.00  0.00    +0.000 C 
ATOM     26  C   UNL     1      54.194   7.061   9.512  0.00  0.00    +0.000 C 
ATOM     27  C   UNL     1      54.378   8.421   8.859  0.00  0.00    +0.000 C 
ATOM     28  C   UNL     1      53.802   9.508   9.756  0.00  0.00    +0.000 C 
ATOM     29  C   UNL     1      52.348   9.206  10.124  0.00  0.00    +0.000 C 
ENDBRANCH  23  24
ENDBRANCH  20  23
ENDBRANCH  16  17
ENDBRANCH   1  16
TORSDOF 6
ENDMDL
MODEL 9
REMARK VINA RESULT:    -6.039      3.720      7.999
REMARK INTER + INTRA:          -8.290
REMARK INTER:                  -7.542
REMARK INTRA:                  -0.748
REMARK UNBOUND:                -0.309
REMARK  Name = 
REMARK  6 active torsions:
REMARK  status: ('A' for Active; 'I' for Inactive)
REMARK    1  A    between atoms: N_1  and  C_2
REMARK    2  A    between atoms: C_2  and  C_3
REMARK    3  A    between atoms: C_2  and  C_17
REMARK    4  A    between atoms: C_3  and  N_4
REMARK    5  A    between atoms: C_7  and  C_8
REMARK    6  A    between atoms: C_8  and  N_9
REMARK                            x       y       z     vdW  Elec       q    Type
REMARK                         _______ _______ _______ _____ _____    ______ ____
ROOT
ATOM      1  C   UNL     1      47.960   7.075  12.812  0.00  0.00    +0.000 C 
ENDROOT
BRANCH   1   2
ATOM      2  C   UNL     1      46.820   6.052  12.834  0.00  0.00    +0.000 A 
ATOM      3  C   UNL     1      46.952   4.728  13.262  0.00  0.00    +0.000 A 
ATOM      4  S   UNL     1      45.601   3.748  12.924  0.00  0.00    +0.000 S 
ATOM      5  C   UNL     1      44.748   5.058  12.263  0.00  0.00    +0.000 A 
ATOM      6  N   UNL     1      43.513   4.878  11.720  0.00  0.00    +0.000 NA
ATOM      7  C   UNL     1      42.987   5.951  11.232  0.00  0.00    +0.000 A 
ATOM      8  N   UNL     1      43.573   7.190  11.257  0.00  0.00    +0.000 N 
ATOM      9  C   UNL     1      44.799   7.425  11.832  0.00  0.00    +0.000 A 
ATOM     10  O   UNL     1      45.265   8.565  11.904  0.00  0.00    +0.000 OA
ATOM     11  C   UNL     1      45.466   6.242  12.337  0.00  0.00    +0.000 A 
ATOM     12  H   UNL     1      43.087   7.996  10.890  0.00  0.00    +0.000 HD
ENDBRANCH   1   2
BRANCH   1  13
ATOM     13  N   UNL     1      48.054   7.641  11.444  0.00  0.00    +0.000 NA
ATOM     14  H   UNL     1      48.531   6.962  10.849  0.00  0.00    +0.000 HD
ATOM     15  H   UNL     1      48.741   8.402  11.509  0.00  0.00    +0.000 HD
ENDBRANCH   1  13
BRANCH   1  16
ATOM     16  C   UNL     1      47.820   8.288  13.812  0.00  0.00    +0.000 C 
BRANCH  16  17
ATOM     17  N   UNL     1      48.904   8.463  14.822  0.00  0.00    +0.000 NA
ATOM     18  C   UNL     1      48.336   8.870  16.111  0.00  0.00    +0.000 C 
ATOM     19  C   UNL     1      49.348   8.953  17.235  0.00  0.00    +0.000 C 
ATOM     20  C   UNL     1      50.039   7.615  17.438  0.00  0.00    +0.000 C 
ATOM     21  C   UNL     1      50.691   7.232  16.103  0.00  0.00    +0.000 C 
ATOM     22  C   UNL     1      49.676   7.206  14.946  0.00  0.00    +0.000 C 
BRANCH  20  23
ATOM     23  C   UNL     1      49.049   6.540  17.964  0.00  0.00    +0.000 C 
BRANCH  23  24
ATOM     24  N   UNL     1      49.191   5.233  17.298  0.00  0.00    +0.000 NA
ATOM     25  C   UNL     1      50.063   4.340  18.076  0.00  0.00    +0.000 C 
ATOM     26  C   UNL     1      50.230   2.986  17.393  0.00  0.00    +0.000 C 
ATOM     27  C   UNL     1      48.881   2.326  17.164  0.00  0.00    +0.000 C 
ATOM     28  C   UNL     1      47.971   3.266  16.385  0.00  0.00    +0.000 C 
ATOM     29  C   UNL     1      47.867   4.629  17.073  0.00  0.00    +0.000 C 
ENDBRANCH  23  24
ENDBRANCH  20  23
ENDBRANCH  16  17
ENDBRANCH   1  16
TORSDOF 6
ENDMDL
