MODEL 1
REMARK VINA RESULT:    -8.370      0.000      0.000
REMARK INTER + INTRA:         -11.941
REMARK INTER:                 -11.061
REMARK INTRA:                  -0.880
REMARK UNBOUND:                -0.880
REMARK  Name = 
REMARK  7 active torsions:
REMARK  status: ('A' for Active; 'I' for Inactive)
REMARK    1  A    between atoms: C_1  and  C_2
REMARK    2  A    between atoms: C_4  and  C_5
REMARK    3  A    between atoms: C_10  and  O_11
REMARK    4  A    between atoms: O_11  and  C_12
REMARK    5  A    between atoms: C_12  and  C_13
REMARK    6  A    between atoms: C_18  and  C_19
REMARK    7  A    between atoms: C_24  and  O_25
REMARK                            x       y       z     vdW  Elec       q    Type
REMARK                         _______ _______ _______ _____ _____    ______ ____
ROOT
ATOM      1  C   UNL     1      44.941   4.918  12.032  0.00  0.00    +0.000 A 
ATOM      2  C   UNL     1      45.475   4.088  13.010  0.00  0.00    +0.000 A 
ATOM      3  C   UNL     1      46.537   4.537  13.790  0.00  0.00    +0.000 A 
ATOM      4  C   UNL     1      47.070   5.827  13.618  0.00  0.00    +0.000 A 
ATOM      5 CL   UNL     1      48.294   6.260  14.770  0.00  0.00    +0.000 Cl
ATOM      6  C   UNL     1      46.589   6.694  12.608  0.00  0.00    +0.000 A 
ATOM      7  C   UNL     1      45.523   6.185  11.829  0.00  0.00    +0.000 A 
ENDROOT
BRANCH   6   8
ATOM      8  C   UNL     1      47.130   8.061  12.305  0.00  0.00    +0.000 A 
ATOM      9  C   UNL     1      48.421   8.222  11.762  0.00  0.00    +0.000 A 
ATOM     10  C   UNL     1      48.959   9.477  11.454  0.00  0.00    +0.000 A 
ATOM     11  C   UNL     1      48.190  10.621  11.615  0.00  0.00    +0.000 A 
ATOM     12  C   UNL     1      46.897  10.510  12.109  0.00  0.00    +0.000 A 
ATOM     13  C   UNL     1      46.384   9.254  12.464  0.00  0.00    +0.000 A 
BRANCH  13  14
ATOM     14  O   UNL     1      45.113   9.217  12.983  0.00  0.00    +0.000 OA
ATOM     15  H   UNL     1      44.501   8.900  12.297  0.00  0.00    +0.000 HD
ENDBRANCH  13  14
ENDBRANCH   6   8
BRANCH   1  16
ATOM     16  C   UNL     1      43.713   4.563  11.220  0.00  0.00    +0.000 C 
BRANCH  16  17
ATOM     17  O   UNL     1      43.887   4.825   9.833  0.00  0.00    +0.000 OA
BRANCH  17  24
ATOM     18  C   UNL     1      43.950   1.704  10.020  0.00  0.00    +0.000 C 
ATOM     19  C   UNL     1      44.815   2.601   9.182  0.00  0.00    +0.000 A 
ATOM     20  C   UNL     1      45.821   1.966   8.424  0.00  0.00    +0.000 A 
ATOM     21  C   UNL     1      46.719   2.680   7.618  0.00  0.00    +0.000 A 
ATOM     22  C   UNL     1      46.615   4.071   7.576  0.00  0.00    +0.000 A 
ATOM     23  C   UNL     1      45.630   4.716   8.329  0.00  0.00    +0.000 A 
ATOM     24  C   UNL     1      44.721   4.000   9.123  0.00  0.00    +0.000 A 
BRANCH  21  25
ATOM     25  C   UNL     1      47.750   1.898   6.870  0.00  0.00    +0.000 C 
ATOM     26  N   UNL     1      48.662   2.570   6.116  0.00  0.00    +0.000 N 
ATOM     27  O   UNL     1      47.779   0.670   6.918  0.00  0.00    +0.000 OA
ATOM     28  H   UNL     1      48.727   3.571   6.029  0.00  0.00    +0.000 HD
ATOM     29  H   UNL     1      49.351   2.006   5.633  0.00  0.00    +0.000 HD
ENDBRANCH  21  25
ENDBRANCH  17  24
ENDBRANCH  16  17
ENDBRANCH   1  16
TORSDOF 6
ENDMDL
MODEL 2
REMARK VINA RESULT:    -7.887      2.227      3.884
REMARK INTER + INTRA:         -11.302
REMARK INTER:                 -10.819
REMARK INTRA:                  -0.483
REMARK UNBOUND:                -0.880
REMARK  Name = 
REMARK  7 active torsions:
REMARK  status: ('A' for Active; 'I' for Inactive)
REMARK    1  A    between atoms: C_1  and  C_2
REMARK    2  A    between atoms: C_4  and  C_5
REMARK    3  A    between atoms: C_10  and  O_11
REMARK    4  A    between atoms: O_11  and  C_12
REMARK    5  A    between atoms: C_12  and  C_13
REMARK    6  A    between atoms: C_18  and  C_19
REMARK    7  A    between atoms: C_24  and  O_25
REMARK                            x       y       z     vdW  Elec       q    Type
REMARK                         _______ _______ _______ _____ _____    ______ ____
ROOT
ATOM      1  C   UNL     1      45.562   5.910  12.013  0.00  0.00    +0.000 A 
ATOM      2  C   UNL     1      46.308   6.877  11.352  0.00  0.00    +0.000 A 
ATOM      3  C   UNL     1      47.529   7.286  11.880  0.00  0.00    +0.000 A 
ATOM      4  C   UNL     1      48.033   6.722  13.067  0.00  0.00    +0.000 A 
ATOM      5 CL   UNL     1      49.628   7.254  13.496  0.00  0.00    +0.000 Cl
ATOM      6  C   UNL     1      47.292   5.765  13.800  0.00  0.00    +0.000 A 
ATOM      7  C   UNL     1      46.049   5.397  13.232  0.00  0.00    +0.000 A 
ENDROOT
BRANCH   6   8
ATOM      8  C   UNL     1      47.712   5.152  15.103  0.00  0.00    +0.000 A 
ATOM      9  C   UNL     1      48.099   5.963  16.190  0.00  0.00    +0.000 A 
ATOM     10  C   UNL     1      48.486   5.432  17.427  0.00  0.00    +0.000 A 
ATOM     11  C   UNL     1      48.433   4.062  17.643  0.00  0.00    +0.000 A 
ATOM     12  C   UNL     1      48.019   3.224  16.615  0.00  0.00    +0.000 A 
ATOM     13  C   UNL     1      47.682   3.760  15.363  0.00  0.00    +0.000 A 
BRANCH  13  14
ATOM     14  O   UNL     1      47.318   2.875  14.378  0.00  0.00    +0.000 OA
ATOM     15  H   UNL     1      47.998   2.879  13.683  0.00  0.00    +0.000 HD
ENDBRANCH  13  14
ENDBRANCH   6   8
BRANCH   1  16
ATOM     16  C   UNL     1      44.285   5.318  11.454  0.00  0.00    +0.000 C 
BRANCH  16  17
ATOM     17  O   UNL     1      44.286   5.277  10.032  0.00  0.00    +0.000 OA
BRANCH  17  24
ATOM     18  C   UNL     1      43.795   2.304  10.869  0.00  0.00    +0.000 C 
ATOM     19  C   UNL     1      44.669   2.826   9.765  0.00  0.00    +0.000 A 
ATOM     20  C   UNL     1      45.408   1.862   9.047  0.00  0.00    +0.000 A 
ATOM     21  C   UNL     1      46.285   2.206   8.009  0.00  0.00    +0.000 A 
ATOM     22  C   UNL     1      46.436   3.555   7.684  0.00  0.00    +0.000 A 
ATOM     23  C   UNL     1      45.719   4.523   8.393  0.00  0.00    +0.000 A 
ATOM     24  C   UNL     1      44.829   4.176   9.422  0.00  0.00    +0.000 A 
BRANCH  21  25
ATOM     25  C   UNL     1      47.021   1.098   7.329  0.00  0.00    +0.000 C 
ATOM     26  N   UNL     1      46.724  -0.188   7.661  0.00  0.00    +0.000 N 
ATOM     27  O   UNL     1      47.890   1.329   6.490  0.00  0.00    +0.000 OA
ATOM     28  H   UNL     1      46.020  -0.474   8.321  0.00  0.00    +0.000 HD
ATOM     29  H   UNL     1      47.236  -0.911   7.171  0.00  0.00    +0.000 HD
ENDBRANCH  21  25
ENDBRANCH  17  24
ENDBRANCH  16  17
ENDBRANCH   1  16
TORSDOF 6
ENDMDL
MODEL 3
REMARK VINA RESULT:    -7.722      1.957      2.275
REMARK INTER + INTRA:         -11.085
REMARK INTER:                 -10.056
REMARK INTRA:                  -1.029
REMARK UNBOUND:                -0.880
REMARK  Name = 
REMARK  7 active torsions:
REMARK  status: ('A' for Active; 'I' for Inactive)
REMARK    1  A    between atoms: C_1  and  C_2
REMARK    2  A    between atoms: C_4  and  C_5
REMARK    3  A    between atoms: C_10  and  O_11
REMARK    4  A    between atoms: O_11  and  C_12
REMARK    5  A    between atoms: C_12  and  C_13
REMARK    6  A    between atoms: C_18  and  C_19
REMARK    7  A    between atoms: C_24  and  O_25
REMARK                            x       y       z     vdW  Elec       q    Type
REMARK                         _______ _______ _______ _____ _____    ______ ____
ROOT
ATOM      1  C   UNL     1      45.905   5.805  11.898  0.00  0.00    +0.000 A 
ATOM      2  C   UNL     1      45.673   4.642  12.622  0.00  0.00    +0.000 A 
ATOM      3  C   UNL     1      46.347   4.430  13.821  0.00  0.00    +0.000 A 
ATOM      4  C   UNL     1      47.250   5.384  14.325  0.00  0.00    +0.000 A 
ATOM      5 CL   UNL     1      47.888   5.012  15.895  0.00  0.00    +0.000 Cl
ATOM      6  C   UNL     1      47.553   6.564  13.605  0.00  0.00    +0.000 A 
ATOM      7  C   UNL     1      46.857   6.724  12.383  0.00  0.00    +0.000 A 
ENDROOT
BRANCH   6   8
ATOM      8  C   UNL     1      48.544   7.610  14.025  0.00  0.00    +0.000 A 
ATOM      9  C   UNL     1      48.276   8.461  15.117  0.00  0.00    +0.000 A 
ATOM     10  C   UNL     1      49.177   9.441  15.548  0.00  0.00    +0.000 A 
ATOM     11  C   UNL     1      50.419   9.559  14.940  0.00  0.00    +0.000 A 
ATOM     12  C   UNL     1      50.746   8.716  13.885  0.00  0.00    +0.000 A 
ATOM     13  C   UNL     1      49.817   7.771  13.426  0.00  0.00    +0.000 A 
BRANCH  13  14
ATOM     14  O   UNL     1      50.187   6.995  12.355  0.00  0.00    +0.000 OA
ATOM     15  H   UNL     1      50.111   6.058  12.603  0.00  0.00    +0.000 HD
ENDBRANCH  13  14
ENDBRANCH   6   8
BRANCH   1  16
ATOM     16  C   UNL     1      45.132   6.176  10.649  0.00  0.00    +0.000 C 
BRANCH  16  17
ATOM     17  O   UNL     1      44.368   5.088  10.144  0.00  0.00    +0.000 OA
BRANCH  17  24
ATOM     18  C   UNL     1      44.120   1.979  10.368  0.00  0.00    +0.000 C 
ATOM     19  C   UNL     1      44.950   2.778   9.404  0.00  0.00    +0.000 A 
ATOM     20  C   UNL     1      45.766   2.037   8.523  0.00  0.00    +0.000 A 
ATOM     21  C   UNL     1      46.614   2.649   7.589  0.00  0.00    +0.000 A 
ATOM     22  C   UNL     1      46.656   4.043   7.541  0.00  0.00    +0.000 A 
ATOM     23  C   UNL     1      45.861   4.792   8.413  0.00  0.00    +0.000 A 
ATOM     24  C   UNL     1      45.000   4.178   9.337  0.00  0.00    +0.000 A 
BRANCH  21  25
ATOM     25  C   UNL     1      47.439   1.760   6.717  0.00  0.00    +0.000 C 
ATOM     26  N   UNL     1      48.460   2.307   6.002  0.00  0.00    +0.000 N 
ATOM     27  O   UNL     1      47.206   0.556   6.629  0.00  0.00    +0.000 OA
ATOM     28  H   UNL     1      48.736   3.276   6.022  0.00  0.00    +0.000 HD
ATOM     29  H   UNL     1      49.003   1.672   5.431  0.00  0.00    +0.000 HD
ENDBRANCH  21  25
ENDBRANCH  17  24
ENDBRANCH  16  17
ENDBRANCH   1  16
TORSDOF 6
ENDMDL
MODEL 4
REMARK VINA RESULT:    -7.578      1.839      2.486
REMARK INTER + INTRA:         -10.895
REMARK INTER:                  -9.853
REMARK INTRA:                  -1.042
REMARK UNBOUND:                -0.880
REMARK  Name = 
REMARK  7 active torsions:
REMARK  status: ('A' for Active; 'I' for Inactive)
REMARK    1  A    between atoms: C_1  and  C_2
REMARK    2  A    between atoms: C_4  and  C_5
REMARK    3  A    between atoms: C_10  and  O_11
REMARK    4  A    between atoms: O_11  and  C_12
REMARK    5  A    between atoms: C_12  and  C_13
REMARK    6  A    between atoms: C_18  and  C_19
REMARK    7  A    between atoms: C_24  and  O_25
REMARK                            x       y       z     vdW  Elec       q    Type
REMARK                         _______ _______ _______ _____ _____    ______ ____
ROOT
ATOM      1  C   UNL     1      44.987   6.558  11.705  0.00  0.00    +0.000 A 
ATOM      2  C   UNL     1      44.175   7.632  11.362  0.00  0.00    +0.000 A 
ATOM      3  C   UNL     1      44.664   8.930  11.479  0.00  0.00    +0.000 A 
ATOM      4  C   UNL     1      45.976   9.176  11.921  0.00  0.00    +0.000 A 
ATOM      5 CL   UNL     1      46.454  10.844  11.869  0.00  0.00    +0.000 Cl
ATOM      6  C   UNL     1      46.828   8.119  12.321  0.00  0.00    +0.000 A 
ATOM      7  C   UNL     1      46.279   6.820  12.203  0.00  0.00    +0.000 A 
ENDROOT
BRANCH   6   8
ATOM      8  C   UNL     1      48.218   8.280  12.864  0.00  0.00    +0.000 A 
ATOM      9  C   UNL     1      49.343   8.085  12.036  0.00  0.00    +0.000 A 
ATOM     10  C   UNL     1      50.655   8.236  12.499  0.00  0.00    +0.000 A 
ATOM     11  C   UNL     1      50.889   8.657  13.801  0.00  0.00    +0.000 A 
ATOM     12  C   UNL     1      49.812   8.901  14.643  0.00  0.00    +0.000 A 
ATOM     13  C   UNL     1      48.501   8.698  14.187  0.00  0.00    +0.000 A 
BRANCH  13  14
ATOM     14  O   UNL     1      47.482   8.920  15.081  0.00  0.00    +0.000 OA
ATOM     15  H   UNL     1      47.385   8.137  15.648  0.00  0.00    +0.000 HD
ENDBRANCH  13  14
ENDBRANCH   6   8
BRANCH   1  16
ATOM     16  C   UNL     1      44.586   5.112  11.498  0.00  0.00    +0.000 C 
BRANCH  16  17
ATOM     17  O   UNL     1      44.094   4.871  10.186  0.00  0.00    +0.000 OA
BRANCH  17  24
ATOM     18  C   UNL     1      43.957   1.748  10.276  0.00  0.00    +0.000 C 
ATOM     19  C   UNL     1      44.805   2.615   9.390  0.00  0.00    +0.000 A 
ATOM     20  C   UNL     1      45.695   1.941   8.527  0.00  0.00    +0.000 A 
ATOM     21  C   UNL     1      46.567   2.622   7.665  0.00  0.00    +0.000 A 
ATOM     22  C   UNL     1      46.556   4.017   7.673  0.00  0.00    +0.000 A 
ATOM     23  C   UNL     1      45.687   4.700   8.529  0.00  0.00    +0.000 A 
ATOM     24  C   UNL     1      44.803   4.018   9.380  0.00  0.00    +0.000 A 
BRANCH  21  25
ATOM     25  C   UNL     1      47.471   1.800   6.806  0.00  0.00    +0.000 C 
ATOM     26  N   UNL     1      48.554   2.396   6.236  0.00  0.00    +0.000 N 
ATOM     27  O   UNL     1      47.249   0.609   6.601  0.00  0.00    +0.000 OA
ATOM     28  H   UNL     1      48.825   3.358   6.359  0.00  0.00    +0.000 HD
ATOM     29  H   UNL     1      49.149   1.805   5.669  0.00  0.00    +0.000 HD
ENDBRANCH  21  25
ENDBRANCH  17  24
ENDBRANCH  16  17
ENDBRANCH   1  16
TORSDOF 6
ENDMDL
MODEL 5
REMARK VINA RESULT:    -7.220      3.947      7.659
REMARK INTER + INTRA:         -10.421
REMARK INTER:                  -8.909
REMARK INTRA:                  -1.512
REMARK UNBOUND:                -0.880
REMARK  Name = 
REMARK  7 active torsions:
REMARK  status: ('A' for Active; 'I' for Inactive)
REMARK    1  A    between atoms: C_1  and  C_2
REMARK    2  A    between atoms: C_4  and  C_5
REMARK    3  A    between atoms: C_10  and  O_11
REMARK    4  A    between atoms: O_11  and  C_12
REMARK    5  A    between atoms: C_12  and  C_13
REMARK    6  A    between atoms: C_18  and  C_19
REMARK    7  A    between atoms: C_24  and  O_25
REMARK                            x       y       z     vdW  Elec       q    Type
REMARK                         _______ _______ _______ _____ _____    ______ ____
ROOT
ATOM      1  C   UNL     1      46.770   7.209  12.386  0.00  0.00    +0.000 A 
ATOM      2  C   UNL     1      45.640   7.847  12.880  0.00  0.00    +0.000 A 
ATOM      3  C   UNL     1      44.376   7.416  12.485  0.00  0.00    +0.000 A 
ATOM      4  C   UNL     1      44.222   6.329  11.605  0.00  0.00    +0.000 A 
ATOM      5 CL   UNL     1      42.577   5.848  11.336  0.00  0.00    +0.000 Cl
ATOM      6  C   UNL     1      45.342   5.673  11.042  0.00  0.00    +0.000 A 
ATOM      7  C   UNL     1      46.604   6.161  11.459  0.00  0.00    +0.000 A 
ENDROOT
BRANCH   6   8
ATOM      8  C   UNL     1      45.284   4.549  10.050  0.00  0.00    +0.000 A 
ATOM      9  C   UNL     1      45.677   4.748   8.710  0.00  0.00    +0.000 A 
ATOM     10  C   UNL     1      45.650   3.724   7.756  0.00  0.00    +0.000 A 
ATOM     11  C   UNL     1      45.289   2.436   8.128  0.00  0.00    +0.000 A 
ATOM     12  C   UNL     1      44.932   2.181   9.446  0.00  0.00    +0.000 A 
ATOM     13  C   UNL     1      44.913   3.224  10.385  0.00  0.00    +0.000 A 
BRANCH  13  14
ATOM     14  O   UNL     1      44.514   2.913  11.662  0.00  0.00    +0.000 OA
ATOM     15  H   UNL     1      45.149   2.287  12.047  0.00  0.00    +0.000 HD
ENDBRANCH  13  14
ENDBRANCH   6   8
BRANCH   1  16
ATOM     16  C   UNL     1      48.176   7.529  12.851  0.00  0.00    +0.000 C 
BRANCH  16  17
ATOM     17  O   UNL     1      48.853   6.384  13.354  0.00  0.00    +0.000 OA
BRANCH  17  24
ATOM     18  C   UNL     1      47.013   3.961  14.078  0.00  0.00    +0.000 C 
ATOM     19  C   UNL     1      47.714   4.907  15.012  0.00  0.00    +0.000 A 
ATOM     20  C   UNL     1      47.471   4.717  16.388  0.00  0.00    +0.000 A 
ATOM     21  C   UNL     1      48.035   5.542  17.372  0.00  0.00    +0.000 A 
ATOM     22  C   UNL     1      48.858   6.593  16.968  0.00  0.00    +0.000 A 
ATOM     23  C   UNL     1      49.102   6.801  15.607  0.00  0.00    +0.000 A 
ATOM     24  C   UNL     1      48.550   5.965  14.624  0.00  0.00    +0.000 A 
BRANCH  21  25
ATOM     25  C   UNL     1      47.695   5.250  18.798  0.00  0.00    +0.000 C 
ATOM     26  N   UNL     1      48.065   4.053  19.328  0.00  0.00    +0.000 N 
ATOM     27  O   UNL     1      47.084   6.064  19.488  0.00  0.00    +0.000 OA
ATOM     28  H   UNL     1      48.580   3.334  18.847  0.00  0.00    +0.000 HD
ATOM     29  H   UNL     1      47.826   3.896  20.300  0.00  0.00    +0.000 HD
ENDBRANCH  21  25
ENDBRANCH  17  24
ENDBRANCH  16  17
ENDBRANCH   1  16
TORSDOF 6
ENDMDL
MODEL 6
REMARK VINA RESULT:    -7.062      5.329      8.086
REMARK INTER + INTRA:         -10.212
REMARK INTER:                  -8.998
REMARK INTRA:                  -1.215
REMARK UNBOUND:                -0.880
REMARK  Name = 
REMARK  7 active torsions:
REMARK  status: ('A' for Active; 'I' for Inactive)
REMARK    1  A    between atoms: C_1  and  C_2
REMARK    2  A    between atoms: C_4  and  C_5
REMARK    3  A    between atoms: C_10  and  O_11
REMARK    4  A    between atoms: O_11  and  C_12
REMARK    5  A    between atoms: C_12  and  C_13
REMARK    6  A    between atoms: C_18  and  C_19
REMARK    7  A    between atoms: C_24  and  O_25
REMARK                            x       y       z     vdW  Elec       q    Type
REMARK                         _______ _______ _______ _____ _____    ______ ____
ROOT
ATOM      1  C   UNL     1      49.312   6.922  15.818  0.00  0.00    +0.000 A 
ATOM      2  C   UNL     1      50.205   7.573  14.975  0.00  0.00    +0.000 A 
ATOM      3  C   UNL     1      49.936   7.648  13.612  0.00  0.00    +0.000 A 
ATOM      4  C   UNL     1      48.763   7.091  13.070  0.00  0.00    +0.000 A 
ATOM      5 CL   UNL     1      48.532   7.403  11.379  0.00  0.00    +0.000 Cl
ATOM      6  C   UNL     1      47.844   6.382  13.879  0.00  0.00    +0.000 A 
ATOM      7  C   UNL     1      48.171   6.316  15.254  0.00  0.00    +0.000 A 
ENDROOT
BRANCH   6   8
ATOM      8  C   UNL     1      46.601   5.699  13.389  0.00  0.00    +0.000 A 
ATOM      9  C   UNL     1      45.493   6.450  12.942  0.00  0.00    +0.000 A 
ATOM     10  C   UNL     1      44.320   5.854  12.467  0.00  0.00    +0.000 A 
ATOM     11  C   UNL     1      44.237   4.473  12.357  0.00  0.00    +0.000 A 
ATOM     12  C   UNL     1      45.317   3.691  12.747  0.00  0.00    +0.000 A 
ATOM     13  C   UNL     1      46.470   4.294  13.271  0.00  0.00    +0.000 A 
BRANCH  13  14
ATOM     14  O   UNL     1      47.487   3.463  13.674  0.00  0.00    +0.000 OA
ATOM     15  H   UNL     1      48.246   3.582  13.079  0.00  0.00    +0.000 HD
ENDBRANCH  13  14
ENDBRANCH   6   8
BRANCH   1  16
ATOM     16  C   UNL     1      49.459   6.895  17.325  0.00  0.00    +0.000 C 
BRANCH  16  17
ATOM     17  O   UNL     1      48.936   5.702  17.897  0.00  0.00    +0.000 OA
BRANCH  17  24
ATOM     18  C   UNL     1      47.747   2.925  17.087  0.00  0.00    +0.000 C 
ATOM     19  C   UNL     1      49.175   3.268  17.402  0.00  0.00    +0.000 A 
ATOM     20  C   UNL     1      50.091   2.195  17.386  0.00  0.00    +0.000 A 
ATOM     21  C   UNL     1      51.450   2.361  17.688  0.00  0.00    +0.000 A 
ATOM     22  C   UNL     1      51.906   3.637  18.024  0.00  0.00    +0.000 A 
ATOM     23  C   UNL     1      51.010   4.709  18.054  0.00  0.00    +0.000 A 
ATOM     24  C   UNL     1      49.652   4.544  17.736  0.00  0.00    +0.000 A 
BRANCH  21  25
ATOM     25  C   UNL     1      52.321   1.148  17.650  0.00  0.00    +0.000 C 
ATOM     26  N   UNL     1      51.844  -0.018  18.163  0.00  0.00    +0.000 N 
ATOM     27  O   UNL     1      53.455   1.191  17.176  0.00  0.00    +0.000 OA
ATOM     28  H   UNL     1      50.926  -0.153  18.555  0.00  0.00    +0.000 HD
ATOM     29  H   UNL     1      52.459  -0.821  18.109  0.00  0.00    +0.000 HD
ENDBRANCH  21  25
ENDBRANCH  17  24
ENDBRANCH  16  17
ENDBRANCH   1  16
TORSDOF 6
ENDMDL
MODEL 7
REMARK VINA RESULT:    -7.000      5.155      7.600
REMARK INTER + INTRA:         -10.130
REMARK INTER:                  -8.723
REMARK INTRA:                  -1.407
REMARK UNBOUND:                -0.880
REMARK  Name = 
REMARK  7 active torsions:
REMARK  status: ('A' for Active; 'I' for Inactive)
REMARK    1  A    between atoms: C_1  and  C_2
REMARK    2  A    between atoms: C_4  and  C_5
REMARK    3  A    between atoms: C_10  and  O_11
REMARK    4  A    between atoms: O_11  and  C_12
REMARK    5  A    between atoms: C_12  and  C_13
REMARK    6  A    between atoms: C_18  and  C_19
REMARK    7  A    between atoms: C_24  and  O_25
REMARK                            x       y       z     vdW  Elec       q    Type
REMARK                         _______ _______ _______ _____ _____    ______ ____
ROOT
ATOM      1  C   UNL     1      48.792   6.332  16.421  0.00  0.00    +0.000 A 
ATOM      2  C   UNL     1      47.891   6.570  17.452  0.00  0.00    +0.000 A 
ATOM      3  C   UNL     1      47.979   5.830  18.628  0.00  0.00    +0.000 A 
ATOM      4  C   UNL     1      48.979   4.856  18.800  0.00  0.00    +0.000 A 
ATOM      5 CL   UNL     1      49.018   4.136  20.379  0.00  0.00    +0.000 Cl
ATOM      6  C   UNL     1      49.893   4.547  17.765  0.00  0.00    +0.000 A 
ATOM      7  C   UNL     1      49.750   5.311  16.583  0.00  0.00    +0.000 A 
ENDROOT
BRANCH   6   8
ATOM      8  C   UNL     1      50.951   3.485  17.827  0.00  0.00    +0.000 A 
ATOM      9  C   UNL     1      52.148   3.700  18.542  0.00  0.00    +0.000 A 
ATOM     10  C   UNL     1      53.155   2.733  18.635  0.00  0.00    +0.000 A 
ATOM     11  C   UNL     1      52.971   1.480  18.067  0.00  0.00    +0.000 A 
ATOM     12  C   UNL     1      51.791   1.206  17.386  0.00  0.00    +0.000 A 
ATOM     13  C   UNL     1      50.808   2.198  17.254  0.00  0.00    +0.000 A 
BRANCH  13  14
ATOM     14  O   UNL     1      49.682   1.876  16.537  0.00  0.00    +0.000 OA
ATOM     15  H   UNL     1      48.930   2.382  16.887  0.00  0.00    +0.000 HD
ENDBRANCH  13  14
ENDBRANCH   6   8
BRANCH   1  16
ATOM     16  C   UNL     1      48.849   7.165  15.157  0.00  0.00    +0.000 C 
BRANCH  16  17
ATOM     17  O   UNL     1      48.630   6.387  13.987  0.00  0.00    +0.000 OA
BRANCH  17  24
ATOM     18  C   UNL     1      47.096   3.693  14.392  0.00  0.00    +0.000 C 
ATOM     19  C   UNL     1      46.603   4.953  13.740  0.00  0.00    +0.000 A 
ATOM     20  C   UNL     1      45.306   4.903  13.189  0.00  0.00    +0.000 A 
ATOM     21  C   UNL     1      44.727   5.995  12.526  0.00  0.00    +0.000 A 
ATOM     22  C   UNL     1      45.472   7.168  12.400  0.00  0.00    +0.000 A 
ATOM     23  C   UNL     1      46.763   7.231  12.932  0.00  0.00    +0.000 A 
ATOM     24  C   UNL     1      47.335   6.143  13.610  0.00  0.00    +0.000 A 
BRANCH  21  25
ATOM     25  C   UNL     1      43.350   5.819  11.974  0.00  0.00    +0.000 C 
ATOM     26  N   UNL     1      42.813   6.817  11.221  0.00  0.00    +0.000 N 
ATOM     27  O   UNL     1      42.699   4.800  12.196  0.00  0.00    +0.000 OA
ATOM     28  H   UNL     1      43.275   7.677  10.973  0.00  0.00    +0.000 HD
ATOM     29  H   UNL     1      41.882   6.657  10.856  0.00  0.00    +0.000 HD
ENDBRANCH  21  25
ENDBRANCH  17  24
ENDBRANCH  16  17
ENDBRANCH   1  16
TORSDOF 6
ENDMDL
MODEL 8
REMARK VINA RESULT:    -6.860      5.547      8.388
REMARK INTER + INTRA:          -9.946
REMARK INTER:                  -8.921
REMARK INTRA:                  -1.024
REMARK UNBOUND:                -0.880
REMARK  Name = 
REMARK  7 active torsions:
REMARK  status: ('A' for Active; 'I' for Inactive)
REMARK    1  A    between atoms: C_1  and  C_2
REMARK    2  A    between atoms: C_4  and  C_5
REMARK    3  A    between atoms: C_10  and  O_11
REMARK    4  A    between atoms: O_11  and  C_12
REMARK    5  A    between atoms: C_12  and  C_13
REMARK    6  A    between atoms: C_18  and  C_19
REMARK    7  A    between atoms: C_24  and  O_25
REMARK                            x       y       z     vdW  Elec       q    Type
REMARK                         _______ _______ _______ _____ _____    ______ ____
ROOT
ATOM      1  C   UNL     1      47.772   5.060  15.624  0.00  0.00    +0.000 A 
ATOM      2  C   UNL     1      48.515   6.165  15.228  0.00  0.00    +0.000 A 
ATOM      3  C   UNL     1      48.227   6.792  14.019  0.00  0.00    +0.000 A 
ATOM      4  C   UNL     1      47.181   6.337  13.195  0.00  0.00    +0.000 A 
ATOM      5 CL   UNL     1      46.881   7.325  11.800  0.00  0.00    +0.000 Cl
ATOM      6  C   UNL     1      46.423   5.191  13.534  0.00  0.00    +0.000 A 
ATOM      7  C   UNL     1      46.766   4.578  14.762  0.00  0.00    +0.000 A 
ENDROOT
BRANCH   6   8
ATOM      8  C   UNL     1      45.332   4.591  12.696  0.00  0.00    +0.000 A 
ATOM      9  C   UNL     1      45.549   3.399  11.974  0.00  0.00    +0.000 A 
ATOM     10  C   UNL     1      44.556   2.800  11.190  0.00  0.00    +0.000 A 
ATOM     11  C   UNL     1      43.278   3.341  11.155  0.00  0.00    +0.000 A 
ATOM     12  C   UNL     1      43.004   4.492  11.882  0.00  0.00    +0.000 A 
ATOM     13  C   UNL     1      44.019   5.115  12.624  0.00  0.00    +0.000 A 
BRANCH  13  14
ATOM     14  O   UNL     1      43.692   6.272  13.288  0.00  0.00    +0.000 OA
ATOM     15  H   UNL     1      44.392   6.474  13.932  0.00  0.00    +0.000 HD
ENDBRANCH  13  14
ENDBRANCH   6   8
BRANCH   1  16
ATOM     16  C   UNL     1      47.933   4.389  16.972  0.00  0.00    +0.000 C 
BRANCH  16  17
ATOM     17  O   UNL     1      49.091   4.839  17.664  0.00  0.00    +0.000 OA
BRANCH  17  24
ATOM     18  C   UNL     1      52.021   5.647  18.400  0.00  0.00    +0.000 C 
ATOM     19  C   UNL     1      51.490   4.282  18.064  0.00  0.00    +0.000 A 
ATOM     20  C   UNL     1      52.439   3.239  18.018  0.00  0.00    +0.000 A 
ATOM     21  C   UNL     1      52.092   1.921  17.690  0.00  0.00    +0.000 A 
ATOM     22  C   UNL     1      50.759   1.638  17.390  0.00  0.00    +0.000 A 
ATOM     23  C   UNL     1      49.809   2.662  17.421  0.00  0.00    +0.000 A 
ATOM     24  C   UNL     1      50.154   3.979  17.765  0.00  0.00    +0.000 A 
BRANCH  21  25
ATOM     25  C   UNL     1      53.186   0.904  17.663  0.00  0.00    +0.000 C 
ATOM     26  N   UNL     1      52.954  -0.324  18.203  0.00  0.00    +0.000 N 
ATOM     27  O   UNL     1      54.284   1.160  17.173  0.00  0.00    +0.000 OA
ATOM     28  H   UNL     1      52.085  -0.629  18.610  0.00  0.00    +0.000 HD
ATOM     29  H   UNL     1      53.716  -0.989  18.156  0.00  0.00    +0.000 HD
ENDBRANCH  21  25
ENDBRANCH  17  24
ENDBRANCH  16  17
ENDBRANCH   1  16
TORSDOF 6
ENDMDL
MODEL 9
REMARK VINA RESULT:    -6.769      4.504      8.078
REMARK INTER + INTRA:          -9.825
REMARK INTER:                  -8.576
REMARK INTRA:                  -1.249
REMARK UNBOUND:                -0.880
REMARK  Name = 
REMARK  7 active torsions:
REMARK  status: ('A' for Active; 'I' for Inactive)
REMARK    1  A    between atoms: C_1  and  C_2
REMARK    2  A    between atoms: C_4  and  C_5
REMARK    3  A    between atoms: C_10  and  O_11
REMARK    4  A    between atoms: O_11  and  C_12
REMARK    5  A    between atoms: C_12  and  C_13
REMARK    6  A    between atoms: C_18  and  C_19
REMARK    7  A    between atoms: C_24  and  O_25
REMARK                            x       y       z     vdW  Elec       q    Type
REMARK                         _______ _______ _______ _____ _____    ______ ____
ROOT
ATOM      1  C   UNL     1      47.429   8.076  13.303  0.00  0.00    +0.000 A 
ATOM      2  C   UNL     1      46.977   9.347  12.968  0.00  0.00    +0.000 A 
ATOM      3  C   UNL     1      45.816   9.489  12.214  0.00  0.00    +0.000 A 
ATOM      4  C   UNL     1      45.077   8.366  11.798  0.00  0.00    +0.000 A 
ATOM      5 CL   UNL     1      43.589   8.742  10.990  0.00  0.00    +0.000 Cl
ATOM      6  C   UNL     1      45.518   7.050  12.077  0.00  0.00    +0.000 A 
ATOM      7  C   UNL     1      46.714   6.958  12.829  0.00  0.00    +0.000 A 
ENDROOT
BRANCH   6   8
ATOM      8  C   UNL     1      44.838   5.791  11.626  0.00  0.00    +0.000 A 
ATOM      9  C   UNL     1      45.357   5.035  10.554  0.00  0.00    +0.000 A 
ATOM     10  C   UNL     1      44.760   3.849  10.110  0.00  0.00    +0.000 A 
ATOM     11  C   UNL     1      43.653   3.337  10.771  0.00  0.00    +0.000 A 
ATOM     12  C   UNL     1      43.129   4.025  11.859  0.00  0.00    +0.000 A 
ATOM     13  C   UNL     1      43.702   5.240  12.266  0.00  0.00    +0.000 A 
BRANCH  13  14
ATOM     14  O   UNL     1      43.113   5.889  13.323  0.00  0.00    +0.000 OA
ATOM     15  H   UNL     1      43.567   5.634  14.143  0.00  0.00    +0.000 HD
ENDBRANCH  13  14
ENDBRANCH   6   8
BRANCH   1  16
ATOM     16  C   UNL     1      48.610   7.827  14.217  0.00  0.00    +0.000 C 
BRANCH  16  17
ATOM     17  O   UNL     1      48.820   6.442  14.465  0.00  0.00    +0.000 OA
BRANCH  17  24
ATOM     18  C   UNL     1      47.099   3.979  15.333  0.00  0.00    +0.000 C 
ATOM     19  C   UNL     1      47.893   4.912  16.203  0.00  0.00    +0.000 A 
ATOM     20  C   UNL     1      47.810   4.687  17.593  0.00  0.00    +0.000 A 
ATOM     21  C   UNL     1      48.474   5.495  18.527  0.00  0.00    +0.000 A 
ATOM     22  C   UNL     1      49.235   6.566  18.059  0.00  0.00    +0.000 A 
ATOM     23  C   UNL     1      49.320   6.808  16.684  0.00  0.00    +0.000 A 
ATOM     24  C   UNL     1      48.667   5.989  15.749  0.00  0.00    +0.000 A 
BRANCH  21  25
ATOM     25  C   UNL     1      48.302   5.165  19.974  0.00  0.00    +0.000 C 
ATOM     26  N   UNL     1      48.470   3.877  20.378  0.00  0.00    +0.000 N 
ATOM     27  O   UNL     1      48.004   6.031  20.795  0.00  0.00    +0.000 OA
ATOM     28  H   UNL     1      48.729   3.106  19.784  0.00  0.00    +0.000 HD
ATOM     29  H   UNL     1      48.356   3.695  21.367  0.00  0.00    +0.000 HD
ENDBRANCH  21  25
ENDBRANCH  17  24
ENDBRANCH  16  17
ENDBRANCH   1  16
TORSDOF 6
ENDMDL
