MODEL 1
REMARK VINA RESULT:    -9.275      0.000      0.000
REMARK INTER + INTRA:         -13.332
REMARK INTER:                 -12.529
REMARK INTRA:                  -0.803
REMARK UNBOUND:                -0.803
REMARK  Name = 
REMARK  6 active torsions:
REMARK  status: ('A' for Active; 'I' for Inactive)
REMARK    1  A    between atoms: C_2  and  C_4
REMARK    2  A    between atoms: N_8  and  C_9
REMARK    3  A    between atoms: C_9  and  C_10
REMARK    4  A    between atoms: C_10  and  C_13
REMARK    5  A    between atoms: C_18  and  S_19
REMARK    6  A    between atoms: S_19  and  C_20
REMARK                            x       y       z     vdW  Elec       q    Type
REMARK                         _______ _______ _______ _____ _____    ______ ____
ROOT
ATOM      1  C   UNL     1      43.435   5.561  12.151  0.00  0.00    +0.000 C 
ATOM      2  F   UNL     1      42.985   6.709  11.564  0.00  0.00    +0.000 F 
ATOM      3  F   UNL     1      42.633   5.374  13.241  0.00  0.00    +0.000 F 
ENDROOT
BRANCH   1   4
ATOM      4  C   UNL     1      44.897   5.650  12.546  0.00  0.00    +0.000 A 
ATOM      5  C   UNL     1      45.733   6.586  11.924  0.00  0.00    +0.000 A 
ATOM      6  C   UNL     1      47.068   6.672  12.296  0.00  0.00    +0.000 A 
ATOM      7  F   UNL     1      47.867   7.545  11.668  0.00  0.00    +0.000 F 
ATOM      8  C   UNL     1      47.594   5.846  13.284  0.00  0.00    +0.000 A 
ATOM      9  C   UNL     1      46.782   4.898  13.917  0.00  0.00    +0.000 A 
ATOM     10  C   UNL     1      45.440   4.799  13.530  0.00  0.00    +0.000 A 
BRANCH   9  11
ATOM     11  S   UNL     1      47.560   3.682  14.955  0.00  0.00    +0.000 S 
BRANCH  11  12
ATOM     12  C   UNL     1      47.122   4.056  16.667  0.00  0.00    +0.000 C 
ATOM     13  C   UNL     1      48.048   5.019  17.424  0.00  0.00    +0.000 C 
ATOM     14  N   UNL     1      47.777   4.233  18.659  0.00  0.00    +0.000 NA
ATOM     15  C   UNL     1      47.459   3.064  17.786  0.00  0.00    +0.000 C 
ATOM     16  H   UNL     1      46.970   4.583  19.181  0.00  0.00    +0.000 HD
ENDBRANCH  11  12
ENDBRANCH   9  11
ENDBRANCH   1   4
BRANCH   1  17
ATOM     17  C   UNL     1      43.222   4.386  11.158  0.00  0.00    +0.000 C 
BRANCH  17  22
ATOM     18  C   UNL     1      46.464   2.509   7.702  0.00  0.00    +0.000 A 
ATOM     19  C   UNL     1      45.631   1.832   8.586  0.00  0.00    +0.000 A 
ATOM     20  C   UNL     1      44.691   2.554   9.322  0.00  0.00    +0.000 A 
ATOM     21  C   UNL     1      44.609   3.936   9.173  0.00  0.00    +0.000 A 
ATOM     22  N   UNL     1      43.642   4.707   9.789  0.00  0.00    +0.000 N 
ATOM     23  N   UNL     1      45.435   4.604   8.346  0.00  0.00    +0.000 NA
ATOM     24  C   UNL     1      46.345   3.887   7.636  0.00  0.00    +0.000 A 
ATOM     25  H   UNL     1      43.865   5.687   9.618  0.00  0.00    +0.000 HD
BRANCH  18  27
ATOM     26  N   UNL     1      48.550   2.542   6.460  0.00  0.00    +0.000 N 
ATOM     27  C   UNL     1      47.448   1.824   6.835  0.00  0.00    +0.000 C 
ATOM     28  O   UNL     1      47.302   0.656   6.497  0.00  0.00    +0.000 OA
ATOM     29  H   UNL     1      49.271   2.028   5.969  0.00  0.00    +0.000 HD
ATOM     30  H   UNL     1      48.826   3.398   6.923  0.00  0.00    +0.000 HD
ENDBRANCH  18  27
ENDBRANCH  17  22
ENDBRANCH   1  17
TORSDOF 6
ENDMDL
MODEL 2
REMARK VINA RESULT:    -9.133      2.514      3.241
REMARK INTER + INTRA:         -13.139
REMARK INTER:                 -12.279
REMARK INTRA:                  -0.860
REMARK UNBOUND:                -0.803
REMARK  Name = 
REMARK  6 active torsions:
REMARK  status: ('A' for Active; 'I' for Inactive)
REMARK    1  A    between atoms: C_2  and  C_4
REMARK    2  A    between atoms: N_8  and  C_9
REMARK    3  A    between atoms: C_9  and  C_10
REMARK    4  A    between atoms: C_10  and  C_13
REMARK    5  A    between atoms: C_18  and  S_19
REMARK    6  A    between atoms: S_19  and  C_20
REMARK                            x       y       z     vdW  Elec       q    Type
REMARK                         _______ _______ _______ _____ _____    ______ ____
ROOT
ATOM      1  C   UNL     1      43.276   5.594  12.016  0.00  0.00    +0.000 C 
ATOM      2  F   UNL     1      42.924   6.742  11.365  0.00  0.00    +0.000 F 
ATOM      3  F   UNL     1      42.333   5.428  12.991  0.00  0.00    +0.000 F 
ENDROOT
BRANCH   1   4
ATOM      4  C   UNL     1      44.673   5.669  12.602  0.00  0.00    +0.000 A 
ATOM      5  C   UNL     1      45.313   4.502  13.038  0.00  0.00    +0.000 A 
ATOM      6  C   UNL     1      46.596   4.574  13.563  0.00  0.00    +0.000 A 
ATOM      7  F   UNL     1      47.183   3.456  14.011  0.00  0.00    +0.000 F 
ATOM      8  C   UNL     1      47.266   5.789  13.662  0.00  0.00    +0.000 A 
ATOM      9  C   UNL     1      46.647   6.972  13.240  0.00  0.00    +0.000 A 
ATOM     10  C   UNL     1      45.346   6.902  12.726  0.00  0.00    +0.000 A 
BRANCH   9  11
ATOM     11  S   UNL     1      47.421   8.520  13.650  0.00  0.00    +0.000 S 
BRANCH  11  12
ATOM     12  C   UNL     1      48.969   8.625  12.726  0.00  0.00    +0.000 C 
ATOM     13  C   UNL     1      49.056   7.808  11.428  0.00  0.00    +0.000 C 
ATOM     14  N   UNL     1      50.499   7.588  11.721  0.00  0.00    +0.000 NA
ATOM     15  C   UNL     1      50.189   7.809  13.165  0.00  0.00    +0.000 C 
ATOM     16  H   UNL     1      51.100   8.311  11.318  0.00  0.00    +0.000 HD
ENDBRANCH  11  12
ENDBRANCH   9  11
ENDBRANCH   1   4
BRANCH   1  17
ATOM     17  C   UNL     1      43.181   4.412  11.013  0.00  0.00    +0.000 C 
BRANCH  17  22
ATOM     18  C   UNL     1      46.523   2.519   7.662  0.00  0.00    +0.000 A 
ATOM     19  C   UNL     1      45.630   1.847   8.489  0.00  0.00    +0.000 A 
ATOM     20  C   UNL     1      44.678   2.580   9.199  0.00  0.00    +0.000 A 
ATOM     21  C   UNL     1      44.646   3.968   9.083  0.00  0.00    +0.000 A 
ATOM     22  N   UNL     1      43.675   4.753   9.673  0.00  0.00    +0.000 N 
ATOM     23  N   UNL     1      45.530   4.629   8.313  0.00  0.00    +0.000 NA
ATOM     24  C   UNL     1      46.450   3.901   7.627  0.00  0.00    +0.000 A 
ATOM     25  H   UNL     1      43.936   5.730   9.540  0.00  0.00    +0.000 HD
BRANCH  18  27
ATOM     26  N   UNL     1      48.628   2.544   6.453  0.00  0.00    +0.000 N 
ATOM     27  C   UNL     1      47.526   1.825   6.824  0.00  0.00    +0.000 C 
ATOM     28  O   UNL     1      47.393   0.650   6.506  0.00  0.00    +0.000 OA
ATOM     29  H   UNL     1      49.361   2.026   5.983  0.00  0.00    +0.000 HD
ATOM     30  H   UNL     1      48.891   3.410   6.904  0.00  0.00    +0.000 HD
ENDBRANCH  18  27
ENDBRANCH  17  22
ENDBRANCH   1  17
TORSDOF 6
ENDMDL
MODEL 3
REMARK VINA RESULT:    -8.364      2.072      2.576
REMARK INTER + INTRA:         -12.101
REMARK INTER:                 -11.687
REMARK INTRA:                  -0.414
REMARK UNBOUND:                -0.803
REMARK  Name = 
REMARK  6 active torsions:
REMARK  status: ('A' for Active; 'I' for Inactive)
REMARK    1  A    between atoms: C_2  and  C_4
REMARK    2  A    between atoms: N_8  and  C_9
REMARK    3  A    between atoms: C_9  and  C_10
REMARK    4  A    between atoms: C_10  and  C_13
REMARK    5  A    between atoms: C_18  and  S_19
REMARK    6  A    between atoms: S_19  and  C_20
REMARK                            x       y       z     vdW  Elec       q    Type
REMARK                         _______ _______ _______ _____ _____    ______ ____
ROOT
ATOM      1  C   UNL     1      44.436   4.242  12.199  0.00  0.00    +0.000 C 
ATOM      2  F   UNL     1      43.799   4.018  13.387  0.00  0.00    +0.000 F 
ATOM      3  F   UNL     1      45.329   3.218  12.069  0.00  0.00    +0.000 F 
ENDROOT
BRANCH   1   4
ATOM      4  C   UNL     1      45.128   5.591  12.163  0.00  0.00    +0.000 A 
ATOM      5  C   UNL     1      44.414   6.735  11.783  0.00  0.00    +0.000 A 
ATOM      6  C   UNL     1      45.049   7.969  11.762  0.00  0.00    +0.000 A 
ATOM      7  F   UNL     1      44.365   9.049  11.361  0.00  0.00    +0.000 F 
ATOM      8  C   UNL     1      46.388   8.096  12.117  0.00  0.00    +0.000 A 
ATOM      9  C   UNL     1      47.128   6.968  12.494  0.00  0.00    +0.000 A 
ATOM     10  C   UNL     1      46.492   5.720  12.499  0.00  0.00    +0.000 A 
BRANCH   9  11
ATOM     11  S   UNL     1      48.890   7.133  12.657  0.00  0.00    +0.000 S 
BRANCH  11  12
ATOM     12  C   UNL     1      49.256   7.457  14.396  0.00  0.00    +0.000 C 
ATOM     13  C   UNL     1      48.687   6.463  15.419  0.00  0.00    +0.000 C 
ATOM     14  N   UNL     1      48.512   7.604  16.359  0.00  0.00    +0.000 NA
ATOM     15  C   UNL     1      48.456   8.509  15.171  0.00  0.00    +0.000 C 
ATOM     16  H   UNL     1      49.333   7.759  16.950  0.00  0.00    +0.000 HD
ENDBRANCH  11  12
ENDBRANCH   9  11
ENDBRANCH   1   4
BRANCH   1  17
ATOM     17  C   UNL     1      43.389   4.150  11.057  0.00  0.00    +0.000 C 
BRANCH  17  22
ATOM     18  C   UNL     1      46.641   2.742   7.394  0.00  0.00    +0.000 A 
ATOM     19  C   UNL     1      45.739   1.967   8.114  0.00  0.00    +0.000 A 
ATOM     20  C   UNL     1      44.815   2.599   8.948  0.00  0.00    +0.000 A 
ATOM     21  C   UNL     1      44.819   3.987   9.058  0.00  0.00    +0.000 A 
ATOM     22  N   UNL     1      43.877   4.691   9.783  0.00  0.00    +0.000 N 
ATOM     23  N   UNL     1      45.713   4.742   8.392  0.00  0.00    +0.000 NA
ATOM     24  C   UNL     1      46.605   4.113   7.584  0.00  0.00    +0.000 A 
ATOM     25  H   UNL     1      44.162   5.669   9.804  0.00  0.00    +0.000 HD
BRANCH  18  27
ATOM     26  N   UNL     1      47.973   2.947   5.375  0.00  0.00    +0.000 N 
ATOM     27  C   UNL     1      47.615   2.168   6.440  0.00  0.00    +0.000 C 
ATOM     28  O   UNL     1      48.107   1.059   6.613  0.00  0.00    +0.000 OA
ATOM     29  H   UNL     1      48.727   2.594   4.797  0.00  0.00    +0.000 HD
ATOM     30  H   UNL     1      47.793   3.941   5.343  0.00  0.00    +0.000 HD
ENDBRANCH  18  27
ENDBRANCH  17  22
ENDBRANCH   1  17
TORSDOF 6
ENDMDL
MODEL 4
REMARK VINA RESULT:    -8.266      2.722      4.021
REMARK INTER + INTRA:         -11.969
REMARK INTER:                 -11.055
REMARK INTRA:                  -0.914
REMARK UNBOUND:                -0.803
REMARK  Name = 
REMARK  6 active torsions:
REMARK  status: ('A' for Active; 'I' for Inactive)
REMARK    1  A    between atoms: C_2  and  C_4
REMARK    2  A    between atoms: N_8  and  C_9
REMARK    3  A    between atoms: C_9  and  C_10
REMARK    4  A    between atoms: C_10  and  C_13
REMARK    5  A    between atoms: C_18  and  S_19
REMARK    6  A    between atoms: S_19  and  C_20
REMARK                            x       y       z     vdW  Elec       q    Type
REMARK                         _______ _______ _______ _____ _____    ______ ____
ROOT
ATOM      1  C   UNL     1      43.409   4.547  12.645  0.00  0.00    +0.000 C 
ATOM      2  F   UNL     1      42.494   5.552  12.791  0.00  0.00    +0.000 F 
ATOM      3  F   UNL     1      43.032   3.583  13.536  0.00  0.00    +0.000 F 
ENDROOT
BRANCH   1   4
ATOM      4  C   UNL     1      44.828   5.019  12.905  0.00  0.00    +0.000 A 
ATOM      5  C   UNL     1      45.610   4.380  13.875  0.00  0.00    +0.000 A 
ATOM      6  C   UNL     1      46.912   4.808  14.102  0.00  0.00    +0.000 A 
ATOM      7  F   UNL     1      47.638   4.214  15.058  0.00  0.00    +0.000 F 
ATOM      8  C   UNL     1      47.460   5.861  13.377  0.00  0.00    +0.000 A 
ATOM      9  C   UNL     1      46.697   6.521  12.406  0.00  0.00    +0.000 A 
ATOM     10  C   UNL     1      45.378   6.101  12.189  0.00  0.00    +0.000 A 
BRANCH   9  11
ATOM     11  S   UNL     1      47.335   8.031  11.717  0.00  0.00    +0.000 S 
BRANCH  11  12
ATOM     12  C   UNL     1      46.431   9.404  12.464  0.00  0.00    +0.000 C 
ATOM     13  C   UNL     1      45.037   9.706  11.895  0.00  0.00    +0.000 C 
ATOM     14  N   UNL     1      45.297  11.149  12.152  0.00  0.00    +0.000 NA
ATOM     15  C   UNL     1      46.758  10.850  12.073  0.00  0.00    +0.000 C 
ATOM     16  H   UNL     1      44.992  11.446  13.083  0.00  0.00    +0.000 HD
ENDBRANCH  11  12
ENDBRANCH   9  11
ENDBRANCH   1   4
BRANCH   1  17
ATOM     17  C   UNL     1      43.291   3.982  11.205  0.00  0.00    +0.000 C 
BRANCH  17  22
ATOM     18  C   UNL     1      46.469   2.918   7.365  0.00  0.00    +0.000 A 
ATOM     19  C   UNL     1      46.111   4.153   7.893  0.00  0.00    +0.000 A 
ATOM     20  C   UNL     1      45.358   4.196   9.068  0.00  0.00    +0.000 A 
ATOM     21  C   UNL     1      44.967   3.010   9.683  0.00  0.00    +0.000 A 
ATOM     22  N   UNL     1      44.309   2.970  10.897  0.00  0.00    +0.000 N 
ATOM     23  N   UNL     1      45.279   1.810   9.159  0.00  0.00    +0.000 NA
ATOM     24  C   UNL     1      46.013   1.783   8.016  0.00  0.00    +0.000 A 
ATOM     25  H   UNL     1      44.032   2.004  11.073  0.00  0.00    +0.000 HD
BRANCH  18  27
ATOM     26  N   UNL     1      48.631   2.454   6.361  0.00  0.00    +0.000 N 
ATOM     27  C   UNL     1      47.316   2.770   6.160  0.00  0.00    +0.000 C 
ATOM     28  O   UNL     1      46.853   2.890   5.033  0.00  0.00    +0.000 OA
ATOM     29  H   UNL     1      49.170   2.239   5.531  0.00  0.00    +0.000 HD
ATOM     30  H   UNL     1      48.977   2.098   7.242  0.00  0.00    +0.000 HD
ENDBRANCH  18  27
ENDBRANCH  17  22
ENDBRANCH   1  17
TORSDOF 6
ENDMDL
MODEL 5
REMARK VINA RESULT:    -8.058      3.384      7.840
REMARK INTER + INTRA:         -11.687
REMARK INTER:                 -10.879
REMARK INTRA:                  -0.809
REMARK UNBOUND:                -0.803
REMARK  Name = 
REMARK  6 active torsions:
REMARK  status: ('A' for Active; 'I' for Inactive)
REMARK    1  A    between atoms: C_2  and  C_4
REMARK    2  A    between atoms: N_8  and  C_9
REMARK    3  A    between atoms: C_9  and  C_10
REMARK    4  A    between atoms: C_10  and  C_13
REMARK    5  A    between atoms: C_18  and  S_19
REMARK    6  A    between atoms: S_19  and  C_20
REMARK                            x       y       z     vdW  Elec       q    Type
REMARK                         _______ _______ _______ _____ _____    ______ ____
ROOT
ATOM      1  C   UNL     1      45.939   6.493  11.567  0.00  0.00    +0.000 C 
ATOM      2  F   UNL     1      45.252   7.590  11.130  0.00  0.00    +0.000 F 
ATOM      3  F   UNL     1      47.211   6.651  11.095  0.00  0.00    +0.000 F 
ENDROOT
BRANCH   1   4
ATOM      4  C   UNL     1      45.323   5.196  11.079  0.00  0.00    +0.000 A 
ATOM      5  C   UNL     1      44.701   4.331  11.988  0.00  0.00    +0.000 A 
ATOM      6  C   UNL     1      44.129   3.149  11.536  0.00  0.00    +0.000 A 
ATOM      7  F   UNL     1      43.570   2.313  12.420  0.00  0.00    +0.000 F 
ATOM      8  C   UNL     1      44.156   2.807  10.188  0.00  0.00    +0.000 A 
ATOM      9  C   UNL     1      44.777   3.650   9.258  0.00  0.00    +0.000 A 
ATOM     10  C   UNL     1      45.369   4.834   9.717  0.00  0.00    +0.000 A 
BRANCH   9  11
ATOM     11  S   UNL     1      45.038   3.038   7.609  0.00  0.00    +0.000 S 
BRANCH  11  12
ATOM     12  C   UNL     1      46.803   2.703   7.418  0.00  0.00    +0.000 C 
ATOM     13  C   UNL     1      47.386   2.854   6.005  0.00  0.00    +0.000 C 
ATOM     14  N   UNL     1      48.304   1.724   6.316  0.00  0.00    +0.000 NA
ATOM     15  C   UNL     1      47.310   1.260   7.329  0.00  0.00    +0.000 C 
ATOM     16  H   UNL     1      49.189   2.034   6.725  0.00  0.00    +0.000 HD
ENDBRANCH  11  12
ENDBRANCH   9  11
ENDBRANCH   1   4
BRANCH   1  17
ATOM     17  C   UNL     1      45.968   6.519  13.119  0.00  0.00    +0.000 C 
BRANCH  17  22
ATOM     18  C   UNL     1      48.421   3.966  16.785  0.00  0.00    +0.000 A 
ATOM     19  C   UNL     1      47.460   3.511  15.890  0.00  0.00    +0.000 A 
ATOM     20  C   UNL     1      47.053   4.346  14.848  0.00  0.00    +0.000 A 
ATOM     21  C   UNL     1      47.602   5.620  14.729  0.00  0.00    +0.000 A 
ATOM     22  N   UNL     1      47.327   6.466  13.671  0.00  0.00    +0.000 N 
ATOM     23  N   UNL     1      48.507   6.082  15.612  0.00  0.00    +0.000 NA
ATOM     24  C   UNL     1      48.893   5.257  16.621  0.00  0.00    +0.000 A 
ATOM     25  H   UNL     1      47.751   7.371  13.873  0.00  0.00    +0.000 HD
BRANCH  18  27
ATOM     26  N   UNL     1      48.316   3.204  19.089  0.00  0.00    +0.000 N 
ATOM     27  C   UNL     1      48.959   3.133  17.884  0.00  0.00    +0.000 C 
ATOM     28  O   UNL     1      49.914   2.385  17.713  0.00  0.00    +0.000 OA
ATOM     29  H   UNL     1      48.618   2.543  19.795  0.00  0.00    +0.000 HD
ATOM     30  H   UNL     1      47.391   3.599  19.189  0.00  0.00    +0.000 HD
ENDBRANCH  18  27
ENDBRANCH  17  22
ENDBRANCH   1  17
TORSDOF 6
ENDMDL
MODEL 6
REMARK VINA RESULT:    -7.936      2.839      3.334
REMARK INTER + INTRA:         -11.522
REMARK INTER:                 -10.670
REMARK INTRA:                  -0.852
REMARK UNBOUND:                -0.803
REMARK  Name = 
REMARK  6 active torsions:
REMARK  status: ('A' for Active; 'I' for Inactive)
REMARK    1  A    between atoms: C_2  and  C_4
REMARK    2  A    between atoms: N_8  and  C_9
REMARK    3  A    between atoms: C_9  and  C_10
REMARK    4  A    between atoms: C_10  and  C_13
REMARK    5  A    between atoms: C_18  and  S_19
REMARK    6  A    between atoms: S_19  and  C_20
REMARK                            x       y       z     vdW  Elec       q    Type
REMARK                         _______ _______ _______ _____ _____    ______ ____
ROOT
ATOM      1  C   UNL     1      43.296   4.982  12.219  0.00  0.00    +0.000 C 
ATOM      2  F   UNL     1      42.042   5.473  12.449  0.00  0.00    +0.000 F 
ATOM      3  F   UNL     1      43.509   4.060  13.204  0.00  0.00    +0.000 F 
ENDROOT
BRANCH   1   4
ATOM      4  C   UNL     1      44.353   6.071  12.240  0.00  0.00    +0.000 A 
ATOM      5  C   UNL     1      44.127   7.278  11.567  0.00  0.00    +0.000 A 
ATOM      6  C   UNL     1      45.091   8.276  11.597  0.00  0.00    +0.000 A 
ATOM      7  F   UNL     1      44.880   9.411  10.919  0.00  0.00    +0.000 F 
ATOM      8  C   UNL     1      46.285   8.102  12.292  0.00  0.00    +0.000 A 
ATOM      9  C   UNL     1      46.539   6.902  12.968  0.00  0.00    +0.000 A 
ATOM     10  C   UNL     1      45.573   5.889  12.923  0.00  0.00    +0.000 A 
BRANCH   9  11
ATOM     11  S   UNL     1      48.180   6.619  13.590  0.00  0.00    +0.000 S 
BRANCH  11  12
ATOM     12  C   UNL     1      49.235   7.959  12.997  0.00  0.00    +0.000 C 
ATOM     13  C   UNL     1      50.077   7.673  11.744  0.00  0.00    +0.000 C 
ATOM     14  N   UNL     1      51.143   8.538  12.322  0.00  0.00    +0.000 NA
ATOM     15  C   UNL     1      50.580   8.242  13.674  0.00  0.00    +0.000 C 
ATOM     16  H   UNL     1      51.049   9.519  12.048  0.00  0.00    +0.000 HD
ENDBRANCH  11  12
ENDBRANCH   9  11
ENDBRANCH   1   4
BRANCH   1  17
ATOM     17  C   UNL     1      43.297   4.264  10.843  0.00  0.00    +0.000 C 
BRANCH  17  22
ATOM     18  C   UNL     1      46.649   2.658   7.356  0.00  0.00    +0.000 A 
ATOM     19  C   UNL     1      46.268   3.956   7.676  0.00  0.00    +0.000 A 
ATOM     20  C   UNL     1      45.462   4.170   8.795  0.00  0.00    +0.000 A 
ATOM     21  C   UNL     1      45.041   3.086   9.562  0.00  0.00    +0.000 A 
ATOM     22  N   UNL     1      44.327   3.224  10.737  0.00  0.00    +0.000 N 
ATOM     23  N   UNL     1      45.376   1.823   9.238  0.00  0.00    +0.000 NA
ATOM     24  C   UNL     1      46.161   1.631   8.146  0.00  0.00    +0.000 A 
ATOM     25  H   UNL     1      44.041   2.294  11.042  0.00  0.00    +0.000 HD
BRANCH  18  27
ATOM     26  N   UNL     1      47.418   3.093   5.094  0.00  0.00    +0.000 N 
ATOM     27  C   UNL     1      47.550   2.337   6.226  0.00  0.00    +0.000 C 
ATOM     28  O   UNL     1      48.399   1.459   6.313  0.00  0.00    +0.000 OA
ATOM     29  H   UNL     1      48.117   2.944   4.376  0.00  0.00    +0.000 HD
ATOM     30  H   UNL     1      46.923   3.973   5.082  0.00  0.00    +0.000 HD
ENDBRANCH  18  27
ENDBRANCH  17  22
ENDBRANCH   1  17
TORSDOF 6
ENDMDL
MODEL 7
REMARK VINA RESULT:    -6.830      4.695      6.790
REMARK INTER + INTRA:         -10.028
REMARK INTER:                  -9.479
REMARK INTRA:                  -0.549
REMARK UNBOUND:                -0.803
REMARK  Name = 
REMARK  6 active torsions:
REMARK  status: ('A' for Active; 'I' for Inactive)
REMARK    1  A    between atoms: C_2  and  C_4
REMARK    2  A    between atoms: N_8  and  C_9
REMARK    3  A    between atoms: C_9  and  C_10
REMARK    4  A    between atoms: C_10  and  C_13
REMARK    5  A    between atoms: C_18  and  S_19
REMARK    6  A    between atoms: S_19  and  C_20
REMARK                            x       y       z     vdW  Elec       q    Type
REMARK                         _______ _______ _______ _____ _____    ______ ____
ROOT
ATOM      1  C   UNL     1      48.094   2.927  16.957  0.00  0.00    +0.000 C 
ATOM      2  F   UNL     1      47.037   2.407  17.649  0.00  0.00    +0.000 F 
ATOM      3  F   UNL     1      48.659   1.866  16.308  0.00  0.00    +0.000 F 
ENDROOT
BRANCH   1   4
ATOM      4  C   UNL     1      49.094   3.617  17.866  0.00  0.00    +0.000 A 
ATOM      5  C   UNL     1      48.662   4.208  19.060  0.00  0.00    +0.000 A 
ATOM      6  C   UNL     1      49.582   4.829  19.894  0.00  0.00    +0.000 A 
ATOM      7  F   UNL     1      49.151   5.423  21.015  0.00  0.00    +0.000 F 
ATOM      8  C   UNL     1      50.934   4.873  19.568  0.00  0.00    +0.000 A 
ATOM      9  C   UNL     1      51.392   4.296  18.378  0.00  0.00    +0.000 A 
ATOM     10  C   UNL     1      50.461   3.684  17.528  0.00  0.00    +0.000 A 
BRANCH   9  11
ATOM     11  S   UNL     1      53.063   4.627  17.870  0.00  0.00    +0.000 S 
BRANCH  11  12
ATOM     12  C   UNL     1      54.081   3.224  18.375  0.00  0.00    +0.000 C 
ATOM     13  C   UNL     1      53.482   1.825  18.170  0.00  0.00    +0.000 C 
ATOM     14  N   UNL     1      54.179   1.396  19.413  0.00  0.00    +0.000 NA
ATOM     15  C   UNL     1      54.170   2.824  19.851  0.00  0.00    +0.000 C 
ATOM     16  H   UNL     1      55.118   1.031  19.234  0.00  0.00    +0.000 HD
ENDBRANCH  11  12
ENDBRANCH   9  11
ENDBRANCH   1   4
BRANCH   1  17
ATOM     17  C   UNL     1      47.547   3.931  15.907  0.00  0.00    +0.000 C 
BRANCH  17  22
ATOM     18  C   UNL     1      44.638   4.744  11.802  0.00  0.00    +0.000 A 
ATOM     19  C   UNL     1      45.251   5.667  12.642  0.00  0.00    +0.000 A 
ATOM     20  C   UNL     1      46.154   5.214  13.605  0.00  0.00    +0.000 A 
ATOM     21  C   UNL     1      46.415   3.851  13.720  0.00  0.00    +0.000 A 
ATOM     22  N   UNL     1      47.367   3.334  14.578  0.00  0.00    +0.000 N 
ATOM     23  N   UNL     1      45.799   2.948  12.935  0.00  0.00    +0.000 NA
ATOM     24  C   UNL     1      44.924   3.404  12.002  0.00  0.00    +0.000 A 
ATOM     25  H   UNL     1      47.286   2.318  14.563  0.00  0.00    +0.000 HD
BRANCH  18  27
ATOM     26  N   UNL     1      44.065   4.765   9.443  0.00  0.00    +0.000 N 
ATOM     27  C   UNL     1      43.715   5.133  10.712  0.00  0.00    +0.000 C 
ATOM     28  O   UNL     1      42.668   5.727  10.940  0.00  0.00    +0.000 OA
ATOM     29  H   UNL     1      43.370   4.931   8.724  0.00  0.00    +0.000 HD
ATOM     30  H   UNL     1      44.769   4.065   9.253  0.00  0.00    +0.000 HD
ENDBRANCH  18  27
ENDBRANCH  17  22
ENDBRANCH   1  17
TORSDOF 6
ENDMDL
MODEL 8
REMARK VINA RESULT:    -6.702      3.573      5.446
REMARK INTER + INTRA:          -9.856
REMARK INTER:                  -8.910
REMARK INTRA:                  -0.946
REMARK UNBOUND:                -0.803
REMARK  Name = 
REMARK  6 active torsions:
REMARK  status: ('A' for Active; 'I' for Inactive)
REMARK    1  A    between atoms: C_2  and  C_4
REMARK    2  A    between atoms: N_8  and  C_9
REMARK    3  A    between atoms: C_9  and  C_10
REMARK    4  A    between atoms: C_10  and  C_13
REMARK    5  A    between atoms: C_18  and  S_19
REMARK    6  A    between atoms: S_19  and  C_20
REMARK                            x       y       z     vdW  Elec       q    Type
REMARK                         _______ _______ _______ _____ _____    ______ ____
ROOT
ATOM      1  C   UNL     1      49.115   8.031  14.504  0.00  0.00    +0.000 C 
ATOM      2  F   UNL     1      49.813   9.182  14.267  0.00  0.00    +0.000 F 
ATOM      3  F   UNL     1      47.867   8.437  14.880  0.00  0.00    +0.000 F 
ENDROOT
BRANCH   1   4
ATOM      4  C   UNL     1      49.766   7.174  15.573  0.00  0.00    +0.000 A 
ATOM      5  C   UNL     1      51.162   7.078  15.640  0.00  0.00    +0.000 A 
ATOM      6  C   UNL     1      51.753   6.301  16.626  0.00  0.00    +0.000 A 
ATOM      7  F   UNL     1      53.088   6.188  16.657  0.00  0.00    +0.000 F 
ATOM      8  C   UNL     1      50.983   5.614  17.559  0.00  0.00    +0.000 A 
ATOM      9  C   UNL     1      49.586   5.686  17.511  0.00  0.00    +0.000 A 
ATOM     10  C   UNL     1      48.988   6.457  16.505  0.00  0.00    +0.000 A 
BRANCH   9  11
ATOM     11  S   UNL     1      48.650   4.572  18.532  0.00  0.00    +0.000 S 
BRANCH  11  12
ATOM     12  C   UNL     1      48.545   2.988  17.669  0.00  0.00    +0.000 C 
ATOM     13  C   UNL     1      49.865   2.386  17.166  0.00  0.00    +0.000 C 
ATOM     14  N   UNL     1      49.118   1.848  15.996  0.00  0.00    +0.000 NA
ATOM     15  C   UNL     1      48.114   2.935  16.200  0.00  0.00    +0.000 C 
ATOM     16  H   UNL     1      48.742   0.911  16.163  0.00  0.00    +0.000 HD
ENDBRANCH  11  12
ENDBRANCH   9  11
ENDBRANCH   1   4
BRANCH   1  17
ATOM     17  C   UNL     1      49.011   7.238  13.174  0.00  0.00    +0.000 C 
BRANCH  17  22
ATOM     18  C   UNL     1      45.092   4.248  11.878  0.00  0.00    +0.000 A 
ATOM     19  C   UNL     1      45.869   4.230  13.031  0.00  0.00    +0.000 A 
ATOM     20  C   UNL     1      46.779   5.264  13.253  0.00  0.00    +0.000 A 
ATOM     21  C   UNL     1      46.907   6.286  12.317  0.00  0.00    +0.000 A 
ATOM     22  N   UNL     1      47.711   7.392  12.511  0.00  0.00    +0.000 N 
ATOM     23  N   UNL     1      46.186   6.293  11.180  0.00  0.00    +0.000 NA
ATOM     24  C   UNL     1      45.303   5.279  10.978  0.00  0.00    +0.000 A 
ATOM     25  H   UNL     1      47.724   7.928  11.643  0.00  0.00    +0.000 HD
BRANCH  18  27
ATOM     26  N   UNL     1      43.769   2.337  12.578  0.00  0.00    +0.000 N 
ATOM     27  C   UNL     1      44.059   3.231  11.584  0.00  0.00    +0.000 C 
ATOM     28  O   UNL     1      43.464   3.211  10.514  0.00  0.00    +0.000 OA
ATOM     29  H   UNL     1      42.980   1.724  12.409  0.00  0.00    +0.000 HD
ATOM     30  H   UNL     1      44.044   2.483  13.539  0.00  0.00    +0.000 HD
ENDBRANCH  18  27
ENDBRANCH  17  22
ENDBRANCH   1  17
TORSDOF 6
ENDMDL
MODEL 9
REMARK VINA RESULT:    -6.581      3.901      5.840
REMARK INTER + INTRA:          -9.692
REMARK INTER:                  -8.734
REMARK INTRA:                  -0.958
REMARK UNBOUND:                -0.803
REMARK  Name = 
REMARK  6 active torsions:
REMARK  status: ('A' for Active; 'I' for Inactive)
REMARK    1  A    between atoms: C_2  and  C_4
REMARK    2  A    between atoms: N_8  and  C_9
REMARK    3  A    between atoms: C_9  and  C_10
REMARK    4  A    between atoms: C_10  and  C_13
REMARK    5  A    between atoms: C_18  and  S_19
REMARK    6  A    between atoms: S_19  and  C_20
REMARK                            x       y       z     vdW  Elec       q    Type
REMARK                         _______ _______ _______ _____ _____    ______ ____
ROOT
ATOM      1  C   UNL     1      48.956   8.612  15.476  0.00  0.00    +0.000 C 
ATOM      2  F   UNL     1      50.275   8.967  15.447  0.00  0.00    +0.000 F 
ATOM      3  F   UNL     1      48.266   9.764  15.224  0.00  0.00    +0.000 F 
ENDROOT
BRANCH   1   4
ATOM      4  C   UNL     1      48.552   8.003  16.805  0.00  0.00    +0.000 A 
ATOM      5  C   UNL     1      47.989   8.810  17.802  0.00  0.00    +0.000 A 
ATOM      6  C   UNL     1      47.611   8.247  19.013  0.00  0.00    +0.000 A 
ATOM      7  F   UNL     1      47.108   9.035  19.972  0.00  0.00    +0.000 F 
ATOM      8  C   UNL     1      47.778   6.887  19.257  0.00  0.00    +0.000 A 
ATOM      9  C   UNL     1      48.345   6.059  18.281  0.00  0.00    +0.000 A 
ATOM     10  C   UNL     1      48.741   6.630  17.065  0.00  0.00    +0.000 A 
BRANCH   9  11
ATOM     11  S   UNL     1      48.799   4.403  18.742  0.00  0.00    +0.000 S 
BRANCH  11  12
ATOM     12  C   UNL     1      49.353   3.547  17.251  0.00  0.00    +0.000 C 
ATOM     13  C   UNL     1      48.317   2.672  16.530  0.00  0.00    +0.000 C 
ATOM     14  N   UNL     1      49.422   1.740  16.174  0.00  0.00    +0.000 NA
ATOM     15  C   UNL     1      50.172   2.257  17.359  0.00  0.00    +0.000 C 
ATOM     16  H   UNL     1      49.863   1.972  15.281  0.00  0.00    +0.000 HD
ENDBRANCH  11  12
ENDBRANCH   9  11
ENDBRANCH   1   4
BRANCH   1  17
ATOM     17  C   UNL     1      48.694   7.603  14.326  0.00  0.00    +0.000 C 
BRANCH  17  22
ATOM     18  C   UNL     1      45.329   4.390  12.245  0.00  0.00    +0.000 A 
ATOM     19  C   UNL     1      46.217   4.176  13.293  0.00  0.00    +0.000 A 
ATOM     20  C   UNL     1      46.923   5.260  13.818  0.00  0.00    +0.000 A 
ATOM     21  C   UNL     1      46.739   6.530  13.278  0.00  0.00    +0.000 A 
ATOM     22  N   UNL     1      47.323   7.666  13.804  0.00  0.00    +0.000 N 
ATOM     23  N   UNL     1      45.909   6.740  12.239  0.00  0.00    +0.000 NA
ATOM     24  C   UNL     1      45.228   5.675  11.740  0.00  0.00    +0.000 A 
ATOM     25  H   UNL     1      47.133   8.441  13.169  0.00  0.00    +0.000 HD
BRANCH  18  27
ATOM     26  N   UNL     1      43.854   2.484  12.542  0.00  0.00    +0.000 N 
ATOM     27  C   UNL     1      44.493   3.316  11.664  0.00  0.00    +0.000 C 
ATOM     28  O   UNL     1      44.349   3.199  10.454  0.00  0.00    +0.000 OA
ATOM     29  H   UNL     1      43.193   1.832  12.137  0.00  0.00    +0.000 HD
ATOM     30  H   UNL     1      43.742   2.708  13.521  0.00  0.00    +0.000 HD
ENDBRANCH  18  27
ENDBRANCH  17  22
ENDBRANCH   1  17
TORSDOF 6
ENDMDL
