MODEL 1
REMARK VINA RESULT:    -8.598      0.000      0.000
REMARK INTER + INTRA:         -12.936
REMARK INTER:                 -11.865
REMARK INTRA:                  -1.071
REMARK UNBOUND:                -1.071
REMARK  Name = 
REMARK  7 active torsions:
REMARK  status: ('A' for Active; 'I' for Inactive)
REMARK    1  A    between atoms: C_2  and  C_20
REMARK    2  A    between atoms: N_3  and  C_4
REMARK    3  A    between atoms: C_4  and  C_5
REMARK    4  A    between atoms: C_8  and  C_9
REMARK    5  A    between atoms: C_9  and  O_10
REMARK    6  A    between atoms: C_9  and  C_11
REMARK    7  A    between atoms: C_11  and  C_12
REMARK                            x       y       z     vdW  Elec       q    Type
REMARK                         _______ _______ _______ _____ _____    ______ ____
ROOT
ATOM      1  C   UNL     1      47.981   7.184  13.498  0.00  0.00    +0.000 C 
ENDROOT
BRANCH   1   2
ATOM      2  C   UNL     1      47.014   6.250  12.821  0.00  0.00    +0.000 A 
ATOM      3  C   UNL     1      46.490   6.559  11.561  0.00  0.00    +0.000 A 
ATOM      4  C   UNL     1      45.574   5.704  10.945  0.00  0.00    +0.000 A 
ATOM      5  C   UNL     1      45.143   4.529  11.581  0.00  0.00    +0.000 A 
ATOM      6  C   UNL     1      45.672   4.228  12.845  0.00  0.00    +0.000 A 
ATOM      7  C   UNL     1      46.586   5.083  13.463  0.00  0.00    +0.000 A 
BRANCH   5   8
ATOM      8  C   UNL     1      44.176   3.609  10.857  0.00  0.00    +0.000 C 
BRANCH   8   9
ATOM      9  O   UNL     1      42.862   3.920  11.327  0.00  0.00    +0.000 OA
ATOM     10  H   UNL     1      42.949   4.614  12.001  0.00  0.00    +0.000 HD
ENDBRANCH   8   9
BRANCH   8  11
ATOM     11  C   UNL     1      44.220   3.723   9.318  0.00  0.00    +0.000 C 
BRANCH  11  12
ATOM     12  C   UNL     1      45.286   2.945   8.581  0.00  0.00    +0.000 A 
ATOM     13  C   UNL     1      46.068   3.612   7.630  0.00  0.00    +0.000 A 
ATOM     14  C   UNL     1      47.012   2.915   6.890  0.00  0.00    +0.000 A 
ATOM     15  C   UNL     1      47.155   1.559   7.123  0.00  0.00    +0.000 A 
ATOM     16  N   UNL     1      46.435   0.879   8.038  0.00  0.00    +0.000 NA
ATOM     17  C   UNL     1      45.516   1.581   8.741  0.00  0.00    +0.000 A 
ENDBRANCH  11  12
ENDBRANCH   8  11
ENDBRANCH   5   8
ENDBRANCH   1   2
BRANCH   1  20
ATOM     18  O   UNL     1      50.120   6.662  15.246  0.00  0.00    +0.000 OA
ATOM     19  C   UNL     1      49.003   6.866  15.714  0.00  0.00    +0.000 C 
ATOM     20  N   UNL     1      47.895   7.049  14.929  0.00  0.00    +0.000 N 
ATOM     21  H   UNL     1      47.050   7.414  15.354  0.00  0.00    +0.000 HD
BRANCH  19  22
ATOM     22  C   UNL     1      48.771   6.871  17.163  0.00  0.00    +0.000 A 
ATOM     23  C   UNL     1      48.417   8.053  17.799  0.00  0.00    +0.000 A 
ATOM     24  S   UNL     1      48.210   7.886  19.482  0.00  0.00    +0.000 S 
ATOM     25  C   UNL     1      48.540   6.219  19.415  0.00  0.00    +0.000 A 
ATOM     26  N   UNL     1      48.498   5.451  20.538  0.00  0.00    +0.000 NA
ATOM     27  C   UNL     1      48.727   4.197  20.337  0.00  0.00    +0.000 A 
ATOM     28  N   UNL     1      49.000   3.642  19.113  0.00  0.00    +0.000 N 
ATOM     29  C   UNL     1      49.125   4.385  17.964  0.00  0.00    +0.000 A 
ATOM     30  O   UNL     1      49.497   3.871  16.913  0.00  0.00    +0.000 OA
ATOM     31  C   UNL     1      48.830   5.799  18.129  0.00  0.00    +0.000 A 
ATOM     32  H   UNL     1      49.195   2.655  19.028  0.00  0.00    +0.000 HD
ENDBRANCH  19  22
ENDBRANCH   1  20
TORSDOF 7
ENDMDL
MODEL 2
REMARK VINA RESULT:    -8.159      1.823      2.159
REMARK INTER + INTRA:         -12.331
REMARK INTER:                 -11.143
REMARK INTRA:                  -1.187
REMARK UNBOUND:                -1.071
REMARK  Name = 
REMARK  7 active torsions:
REMARK  status: ('A' for Active; 'I' for Inactive)
REMARK    1  A    between atoms: C_2  and  C_20
REMARK    2  A    between atoms: N_3  and  C_4
REMARK    3  A    between atoms: C_4  and  C_5
REMARK    4  A    between atoms: C_8  and  C_9
REMARK    5  A    between atoms: C_9  and  O_10
REMARK    6  A    between atoms: C_9  and  C_11
REMARK    7  A    between atoms: C_11  and  C_12
REMARK                            x       y       z     vdW  Elec       q    Type
REMARK                         _______ _______ _______ _____ _____    ______ ____
ROOT
ATOM      1  C   UNL     1      46.114   7.769  13.052  0.00  0.00    +0.000 C 
ENDROOT
BRANCH   1   2
ATOM      2  C   UNL     1      45.744   6.455  12.419  0.00  0.00    +0.000 A 
ATOM      3  C   UNL     1      45.607   6.349  11.031  0.00  0.00    +0.000 A 
ATOM      4  C   UNL     1      45.239   5.135  10.446  0.00  0.00    +0.000 A 
ATOM      5  C   UNL     1      44.978   4.003  11.235  0.00  0.00    +0.000 A 
ATOM      6  C   UNL     1      45.116   4.120  12.627  0.00  0.00    +0.000 A 
ATOM      7  C   UNL     1      45.481   5.333  13.212  0.00  0.00    +0.000 A 
BRANCH   5   8
ATOM      8  C   UNL     1      44.619   2.695  10.555  0.00  0.00    +0.000 C 
BRANCH   8   9
ATOM      9  O   UNL     1      43.403   2.229  11.143  0.00  0.00    +0.000 OA
ATOM     10  H   UNL     1      43.084   2.924  11.743  0.00  0.00    +0.000 HD
ENDBRANCH   8   9
BRANCH   8  11
ATOM     11  C   UNL     1      44.452   2.799   9.023  0.00  0.00    +0.000 C 
BRANCH  11  12
ATOM     12  C   UNL     1      45.642   2.459   8.156  0.00  0.00    +0.000 A 
ATOM     13  C   UNL     1      46.147   3.440   7.294  0.00  0.00    +0.000 A 
ATOM     14  C   UNL     1      47.198   3.144   6.438  0.00  0.00    +0.000 A 
ATOM     15  C   UNL     1      47.725   1.864   6.468  0.00  0.00    +0.000 A 
ATOM     16  N   UNL     1      47.281   0.894   7.291  0.00  0.00    +0.000 NA
ATOM     17  C   UNL     1      46.250   1.207   8.110  0.00  0.00    +0.000 A 
ENDBRANCH  11  12
ENDBRANCH   8  11
ENDBRANCH   5   8
ENDBRANCH   1   2
BRANCH   1  20
ATOM     18  O   UNL     1      48.842   7.454  12.449  0.00  0.00    +0.000 OA
ATOM     19  C   UNL     1      48.495   7.515  13.625  0.00  0.00    +0.000 C 
ATOM     20  N   UNL     1      47.180   7.588  14.004  0.00  0.00    +0.000 N 
ATOM     21  H   UNL     1      46.961   7.842  14.961  0.00  0.00    +0.000 HD
BRANCH  19  22
ATOM     22  C   UNL     1      49.474   7.455  14.716  0.00  0.00    +0.000 A 
ATOM     23  C   UNL     1      50.510   8.378  14.762  0.00  0.00    +0.000 A 
ATOM     24  S   UNL     1      51.569   8.149  16.078  0.00  0.00    +0.000 S 
ATOM     25  C   UNL     1      50.655   6.837  16.658  0.00  0.00    +0.000 A 
ATOM     26  N   UNL     1      51.010   6.189  17.801  0.00  0.00    +0.000 NA
ATOM     27  C   UNL     1      50.207   5.241  18.150  0.00  0.00    +0.000 A 
ATOM     28  N   UNL     1      49.081   4.879  17.453  0.00  0.00    +0.000 N 
ATOM     29  C   UNL     1      48.723   5.454  16.258  0.00  0.00    +0.000 A 
ATOM     30  O   UNL     1      47.783   5.015  15.600  0.00  0.00    +0.000 OA
ATOM     31  C   UNL     1      49.571   6.560  15.846  0.00  0.00    +0.000 A 
ATOM     32  H   UNL     1      48.508   4.109  17.767  0.00  0.00    +0.000 HD
ENDBRANCH  19  22
ENDBRANCH   1  20
TORSDOF 7
ENDMDL
MODEL 3
REMARK VINA RESULT:    -8.131      2.297      3.911
REMARK INTER + INTRA:         -12.292
REMARK INTER:                 -11.034
REMARK INTRA:                  -1.258
REMARK UNBOUND:                -1.071
REMARK  Name = 
REMARK  7 active torsions:
REMARK  status: ('A' for Active; 'I' for Inactive)
REMARK    1  A    between atoms: C_2  and  C_20
REMARK    2  A    between atoms: N_3  and  C_4
REMARK    3  A    between atoms: C_4  and  C_5
REMARK    4  A    between atoms: C_8  and  C_9
REMARK    5  A    between atoms: C_9  and  O_10
REMARK    6  A    between atoms: C_9  and  C_11
REMARK    7  A    between atoms: C_11  and  C_12
REMARK                            x       y       z     vdW  Elec       q    Type
REMARK                         _______ _______ _______ _____ _____    ______ ____
ROOT
ATOM      1  C   UNL     1      47.136   4.684  14.923  0.00  0.00    +0.000 C 
ENDROOT
BRANCH   1   2
ATOM      2  C   UNL     1      46.382   4.580  13.624  0.00  0.00    +0.000 A 
ATOM      3  C   UNL     1      45.934   3.340  13.159  0.00  0.00    +0.000 A 
ATOM      4  C   UNL     1      45.257   3.242  11.942  0.00  0.00    +0.000 A 
ATOM      5  C   UNL     1      45.029   4.378  11.149  0.00  0.00    +0.000 A 
ATOM      6  C   UNL     1      45.483   5.618  11.623  0.00  0.00    +0.000 A 
ATOM      7  C   UNL     1      46.163   5.716  12.837  0.00  0.00    +0.000 A 
BRANCH   5   8
ATOM      8  C   UNL     1      44.253   4.230   9.852  0.00  0.00    +0.000 C 
BRANCH   8   9
ATOM      9  O   UNL     1      43.234   5.231   9.850  0.00  0.00    +0.000 OA
ATOM     10  H   UNL     1      42.916   5.325   8.937  0.00  0.00    +0.000 HD
ENDBRANCH   8   9
BRANCH   8  11
ATOM     11  C   UNL     1      45.115   4.360   8.578  0.00  0.00    +0.000 C 
BRANCH  11  12
ATOM     12  C   UNL     1      45.883   3.143   8.114  0.00  0.00    +0.000 A 
ATOM     13  C   UNL     1      46.848   3.300   7.112  0.00  0.00    +0.000 A 
ATOM     14  C   UNL     1      47.527   2.196   6.619  0.00  0.00    +0.000 A 
ATOM     15  C   UNL     1      47.226   0.953   7.146  0.00  0.00    +0.000 A 
ATOM     16  N   UNL     1      46.316   0.757   8.121  0.00  0.00    +0.000 NA
ATOM     17  C   UNL     1      45.662   1.850   8.580  0.00  0.00    +0.000 A 
ENDBRANCH  11  12
ENDBRANCH   8  11
ENDBRANCH   5   8
ENDBRANCH   1   2
BRANCH   1  20
ATOM     18  O   UNL     1      49.424   5.275  16.445  0.00  0.00    +0.000 OA
ATOM     19  C   UNL     1      48.930   6.155  15.745  0.00  0.00    +0.000 C 
ATOM     20  N   UNL     1      47.771   5.971  15.036  0.00  0.00    +0.000 N 
ATOM     21  H   UNL     1      47.523   6.647  14.323  0.00  0.00    +0.000 HD
BRANCH  19  22
ATOM     22  C   UNL     1      49.524   7.494  15.666  0.00  0.00    +0.000 A 
ATOM     23  C   UNL     1      49.763   8.210  16.832  0.00  0.00    +0.000 A 
ATOM     24  S   UNL     1      50.430   9.754  16.559  0.00  0.00    +0.000 S 
ATOM     25  C   UNL     1      50.468   9.503  14.877  0.00  0.00    +0.000 A 
ATOM     26  N   UNL     1      50.967  10.452  14.039  0.00  0.00    +0.000 NA
ATOM     27  C   UNL     1      50.974  10.115  12.793  0.00  0.00    +0.000 A 
ATOM     28  N   UNL     1      50.521   8.914  12.309  0.00  0.00    +0.000 N 
ATOM     29  C   UNL     1      49.943   7.955  13.106  0.00  0.00    +0.000 A 
ATOM     30  O   UNL     1      49.433   6.950  12.619  0.00  0.00    +0.000 OA
ATOM     31  C   UNL     1      49.953   8.268  14.525  0.00  0.00    +0.000 A 
ATOM     32  H   UNL     1      50.532   8.722  11.317  0.00  0.00    +0.000 HD
ENDBRANCH  19  22
ENDBRANCH   1  20
TORSDOF 7
ENDMDL
MODEL 4
REMARK VINA RESULT:    -7.437      1.730      2.394
REMARK INTER + INTRA:         -11.334
REMARK INTER:                 -10.822
REMARK INTRA:                  -0.512
REMARK UNBOUND:                -1.071
REMARK  Name = 
REMARK  7 active torsions:
REMARK  status: ('A' for Active; 'I' for Inactive)
REMARK    1  A    between atoms: C_2  and  C_20
REMARK    2  A    between atoms: N_3  and  C_4
REMARK    3  A    between atoms: C_4  and  C_5
REMARK    4  A    between atoms: C_8  and  C_9
REMARK    5  A    between atoms: C_9  and  O_10
REMARK    6  A    between atoms: C_9  and  C_11
REMARK    7  A    between atoms: C_11  and  C_12
REMARK                            x       y       z     vdW  Elec       q    Type
REMARK                         _______ _______ _______ _____ _____    ______ ____
ROOT
ATOM      1  C   UNL     1      47.262   4.011  15.117  0.00  0.00    +0.000 C 
ENDROOT
BRANCH   1   2
ATOM      2  C   UNL     1      46.635   4.320  13.784  0.00  0.00    +0.000 A 
ATOM      3  C   UNL     1      45.812   3.382  13.152  0.00  0.00    +0.000 A 
ATOM      4  C   UNL     1      45.250   3.660  11.904  0.00  0.00    +0.000 A 
ATOM      5  C   UNL     1      45.514   4.873  11.248  0.00  0.00    +0.000 A 
ATOM      6  C   UNL     1      46.342   5.807  11.889  0.00  0.00    +0.000 A 
ATOM      7  C   UNL     1      46.906   5.528  13.135  0.00  0.00    +0.000 A 
BRANCH   5   8
ATOM      8  C   UNL     1      44.851   5.149   9.910  0.00  0.00    +0.000 C 
BRANCH   8   9
ATOM      9  O   UNL     1      45.815   5.808   9.086  0.00  0.00    +0.000 OA
ATOM     10  H   UNL     1      46.539   6.104   9.662  0.00  0.00    +0.000 HD
ENDBRANCH   8   9
BRANCH   8  11
ATOM     11  C   UNL     1      44.321   3.890   9.191  0.00  0.00    +0.000 C 
BRANCH  11  12
ATOM     12  C   UNL     1      45.316   3.028   8.447  0.00  0.00    +0.000 A 
ATOM     13  C   UNL     1      45.973   3.568   7.335  0.00  0.00    +0.000 A 
ATOM     14  C   UNL     1      46.845   2.785   6.592  0.00  0.00    +0.000 A 
ATOM     15  C   UNL     1      47.043   1.473   6.985  0.00  0.00    +0.000 A 
ATOM     16  N   UNL     1      46.444   0.917   8.056  0.00  0.00    +0.000 NA
ATOM     17  C   UNL     1      45.592   1.700   8.759  0.00  0.00    +0.000 A 
ENDBRANCH  11  12
ENDBRANCH   8  11
ENDBRANCH   5   8
ENDBRANCH   1   2
BRANCH   1  20
ATOM     18  O   UNL     1      49.518   4.788  16.605  0.00  0.00    +0.000 OA
ATOM     19  C   UNL     1      48.554   5.547  16.542  0.00  0.00    +0.000 C 
ATOM     20  N   UNL     1      47.388   5.209  15.906  0.00  0.00    +0.000 N 
ATOM     21  H   UNL     1      46.712   5.938  15.707  0.00  0.00    +0.000 HD
BRANCH  19  22
ATOM     22  C   UNL     1      48.568   6.857  17.203  0.00  0.00    +0.000 A 
ATOM     23  C   UNL     1      48.903   7.991  16.474  0.00  0.00    +0.000 A 
ATOM     24  S   UNL     1      48.894   9.422  17.400  0.00  0.00    +0.000 S 
ATOM     25  C   UNL     1      48.398   8.585  18.795  0.00  0.00    +0.000 A 
ATOM     26  N   UNL     1      48.172   9.245  19.963  0.00  0.00    +0.000 NA
ATOM     27  C   UNL     1      47.760   8.495  20.930  0.00  0.00    +0.000 A 
ATOM     28  N   UNL     1      47.559   7.142  20.833  0.00  0.00    +0.000 N 
ATOM     29  C   UNL     1      47.842   6.421  19.698  0.00  0.00    +0.000 A 
ATOM     30  O   UNL     1      47.773   5.195  19.692  0.00  0.00    +0.000 OA
ATOM     31  C   UNL     1      48.266   7.227  18.566  0.00  0.00    +0.000 A 
ATOM     32  H   UNL     1      47.258   6.608  21.636  0.00  0.00    +0.000 HD
ENDBRANCH  19  22
ENDBRANCH   1  20
TORSDOF 7
ENDMDL
MODEL 5
REMARK VINA RESULT:    -7.433      4.053      5.221
REMARK INTER + INTRA:         -11.328
REMARK INTER:                 -10.152
REMARK INTRA:                  -1.176
REMARK UNBOUND:                -1.071
REMARK  Name = 
REMARK  7 active torsions:
REMARK  status: ('A' for Active; 'I' for Inactive)
REMARK    1  A    between atoms: C_2  and  C_20
REMARK    2  A    between atoms: N_3  and  C_4
REMARK    3  A    between atoms: C_4  and  C_5
REMARK    4  A    between atoms: C_8  and  C_9
REMARK    5  A    between atoms: C_9  and  O_10
REMARK    6  A    between atoms: C_9  and  C_11
REMARK    7  A    between atoms: C_11  and  C_12
REMARK                            x       y       z     vdW  Elec       q    Type
REMARK                         _______ _______ _______ _____ _____    ______ ____
ROOT
ATOM      1  C   UNL     1      47.782   7.390  13.316  0.00  0.00    +0.000 C 
ENDROOT
BRANCH   1   2
ATOM      2  C   UNL     1      46.889   6.373  12.656  0.00  0.00    +0.000 A 
ATOM      3  C   UNL     1      46.413   6.582  11.358  0.00  0.00    +0.000 A 
ATOM      4  C   UNL     1      45.564   5.650  10.756  0.00  0.00    +0.000 A 
ATOM      5  C   UNL     1      45.155   4.497  11.444  0.00  0.00    +0.000 A 
ATOM      6  C   UNL     1      45.636   4.297  12.747  0.00  0.00    +0.000 A 
ATOM      7  C   UNL     1      46.482   5.229  13.350  0.00  0.00    +0.000 A 
BRANCH   5   8
ATOM      8  C   UNL     1      44.264   3.492  10.736  0.00  0.00    +0.000 C 
BRANCH   8   9
ATOM      9  O   UNL     1      42.928   3.715  11.192  0.00  0.00    +0.000 OA
ATOM     10  H   UNL     1      42.340   3.151  10.662  0.00  0.00    +0.000 HD
ENDBRANCH   8   9
BRANCH   8  11
ATOM     11  C   UNL     1      44.311   3.574   9.196  0.00  0.00    +0.000 C 
BRANCH  11  12
ATOM     12  C   UNL     1      45.409   2.821   8.479  0.00  0.00    +0.000 A 
ATOM     13  C   UNL     1      46.223   3.518   7.578  0.00  0.00    +0.000 A 
ATOM     14  C   UNL     1      47.200   2.847   6.857  0.00  0.00    +0.000 A 
ATOM     15  C   UNL     1      47.342   1.485   7.058  0.00  0.00    +0.000 A 
ATOM     16  N   UNL     1      46.591   0.777   7.926  0.00  0.00    +0.000 NA
ATOM     17  C   UNL     1      45.641   1.455   8.611  0.00  0.00    +0.000 A 
ENDBRANCH  11  12
ENDBRANCH   8  11
ENDBRANCH   5   8
ENDBRANCH   1   2
BRANCH   1  20
ATOM     18  O   UNL     1      48.946   9.040  11.360  0.00  0.00    +0.000 OA
ATOM     19  C   UNL     1      49.636   8.183  11.904  0.00  0.00    +0.000 C 
ATOM     20  N   UNL     1      49.125   7.287  12.808  0.00  0.00    +0.000 N 
ATOM     21  H   UNL     1      49.768   6.745  13.374  0.00  0.00    +0.000 HD
BRANCH  19  22
ATOM     22  C   UNL     1      51.056   8.021  11.575  0.00  0.00    +0.000 A 
ATOM     23  C   UNL     1      51.421   7.492  10.344  0.00  0.00    +0.000 A 
ATOM     24  S   UNL     1      53.107   7.350  10.136  0.00  0.00    +0.000 S 
ATOM     25  C   UNL     1      53.411   8.034  11.663  0.00  0.00    +0.000 A 
ATOM     26  N   UNL     1      54.684   8.229  12.101  0.00  0.00    +0.000 NA
ATOM     27  C   UNL     1      54.771   8.794  13.259  0.00  0.00    +0.000 A 
ATOM     28  N   UNL     1      53.696   9.177  14.020  0.00  0.00    +0.000 N 
ATOM     29  C   UNL     1      52.394   8.936  13.653  0.00  0.00    +0.000 A 
ATOM     30  O   UNL     1      51.464   9.176  14.419  0.00  0.00    +0.000 OA
ATOM     31  C   UNL     1      52.242   8.343  12.335  0.00  0.00    +0.000 A 
ATOM     32  H   UNL     1      53.833   9.593  14.930  0.00  0.00    +0.000 HD
ENDBRANCH  19  22
ENDBRANCH   1  20
TORSDOF 7
ENDMDL
MODEL 6
REMARK VINA RESULT:    -7.135      1.624      2.339
REMARK INTER + INTRA:         -10.917
REMARK INTER:                  -9.860
REMARK INTRA:                  -1.057
REMARK UNBOUND:                -1.071
REMARK  Name = 
REMARK  7 active torsions:
REMARK  status: ('A' for Active; 'I' for Inactive)
REMARK    1  A    between atoms: C_2  and  C_20
REMARK    2  A    between atoms: N_3  and  C_4
REMARK    3  A    between atoms: C_4  and  C_5
REMARK    4  A    between atoms: C_8  and  C_9
REMARK    5  A    between atoms: C_9  and  O_10
REMARK    6  A    between atoms: C_9  and  C_11
REMARK    7  A    between atoms: C_11  and  C_12
REMARK                            x       y       z     vdW  Elec       q    Type
REMARK                         _______ _______ _______ _____ _____    ______ ____
ROOT
ATOM      1  C   UNL     1      48.064   6.825  14.009  0.00  0.00    +0.000 C 
ENDROOT
BRANCH   1   2
ATOM      2  C   UNL     1      47.054   5.959  13.306  0.00  0.00    +0.000 A 
ATOM      3  C   UNL     1      46.120   6.523  12.431  0.00  0.00    +0.000 A 
ATOM      4  C   UNL     1      45.167   5.721  11.798  0.00  0.00    +0.000 A 
ATOM      5  C   UNL     1      45.111   4.340  12.040  0.00  0.00    +0.000 A 
ATOM      6  C   UNL     1      46.050   3.783  12.921  0.00  0.00    +0.000 A 
ATOM      7  C   UNL     1      47.001   4.583  13.556  0.00  0.00    +0.000 A 
BRANCH   5   8
ATOM      8  C   UNL     1      44.084   3.501  11.301  0.00  0.00    +0.000 C 
BRANCH   8   9
ATOM      9  O   UNL     1      42.832   3.676  11.969  0.00  0.00    +0.000 OA
ATOM     10  H   UNL     1      42.331   2.850  11.872  0.00  0.00    +0.000 HD
ENDBRANCH   8   9
BRANCH   8  11
ATOM     11  C   UNL     1      43.931   3.854   9.806  0.00  0.00    +0.000 C 
BRANCH  11  12
ATOM     12  C   UNL     1      45.033   3.430   8.861  0.00  0.00    +0.000 A 
ATOM     13  C   UNL     1      45.354   2.070   8.772  0.00  0.00    +0.000 A 
ATOM     14  C   UNL     1      46.401   1.652   7.963  0.00  0.00    +0.000 A 
ATOM     15  C   UNL     1      47.104   2.611   7.255  0.00  0.00    +0.000 A 
ATOM     16  N   UNL     1      46.820   3.928   7.299  0.00  0.00    +0.000 NA
ATOM     17  C   UNL     1      45.799   4.310   8.102  0.00  0.00    +0.000 A 
ENDBRANCH  11  12
ENDBRANCH   8  11
ENDBRANCH   5   8
ENDBRANCH   1   2
BRANCH   1  20
ATOM     18  O   UNL     1      50.202   6.275  15.751  0.00  0.00    +0.000 OA
ATOM     19  C   UNL     1      49.081   6.455  16.220  0.00  0.00    +0.000 C 
ATOM     20  N   UNL     1      47.974   6.649  15.436  0.00  0.00    +0.000 N 
ATOM     21  H   UNL     1      47.125   6.995  15.867  0.00  0.00    +0.000 HD
BRANCH  19  22
ATOM     22  C   UNL     1      48.843   6.418  17.667  0.00  0.00    +0.000 A 
ATOM     23  C   UNL     1      48.191   5.327  18.229  0.00  0.00    +0.000 A 
ATOM     24  S   UNL     1      47.974   5.457  19.914  0.00  0.00    +0.000 S 
ATOM     25  C   UNL     1      48.784   6.952  19.961  0.00  0.00    +0.000 A 
ATOM     26  N   UNL     1      48.975   7.607  21.138  0.00  0.00    +0.000 NA
ATOM     27  C   UNL     1      49.640   8.709  21.035  0.00  0.00    +0.000 A 
ATOM     28  N   UNL     1      50.128   9.216  19.858  0.00  0.00    +0.000 N 
ATOM     29  C   UNL     1      49.898   8.629  18.637  0.00  0.00    +0.000 A 
ATOM     30  O   UNL     1      50.238   9.181  17.594  0.00  0.00    +0.000 OA
ATOM     31  C   UNL     1      49.192   7.361  18.704  0.00  0.00    +0.000 A 
ATOM     32  H   UNL     1      50.620  10.098  19.842  0.00  0.00    +0.000 HD
ENDBRANCH  19  22
ENDBRANCH   1  20
TORSDOF 7
ENDMDL
MODEL 7
REMARK VINA RESULT:    -7.057      3.352      8.332
REMARK INTER + INTRA:         -10.810
REMARK INTER:                  -9.296
REMARK INTRA:                  -1.514
REMARK UNBOUND:                -1.071
REMARK  Name = 
REMARK  7 active torsions:
REMARK  status: ('A' for Active; 'I' for Inactive)
REMARK    1  A    between atoms: C_2  and  C_20
REMARK    2  A    between atoms: N_3  and  C_4
REMARK    3  A    between atoms: C_4  and  C_5
REMARK    4  A    between atoms: C_8  and  C_9
REMARK    5  A    between atoms: C_9  and  O_10
REMARK    6  A    between atoms: C_9  and  C_11
REMARK    7  A    between atoms: C_11  and  C_12
REMARK                            x       y       z     vdW  Elec       q    Type
REMARK                         _______ _______ _______ _____ _____    ______ ____
ROOT
ATOM      1  C   UNL     1      48.205   8.233  12.170  0.00  0.00    +0.000 C 
ENDROOT
BRANCH   1   2
ATOM      2  C   UNL     1      48.573   8.038  13.617  0.00  0.00    +0.000 A 
ATOM      3  C   UNL     1      47.873   8.708  14.625  0.00  0.00    +0.000 A 
ATOM      4  C   UNL     1      48.231   8.546  15.965  0.00  0.00    +0.000 A 
ATOM      5  C   UNL     1      49.311   7.726  16.329  0.00  0.00    +0.000 A 
ATOM      6  C   UNL     1      50.009   7.059  15.310  0.00  0.00    +0.000 A 
ATOM      7  C   UNL     1      49.654   7.223  13.971  0.00  0.00    +0.000 A 
BRANCH   5   8
ATOM      8  C   UNL     1      49.640   7.547  17.800  0.00  0.00    +0.000 C 
BRANCH   8   9
ATOM      9  O   UNL     1      49.709   8.851  18.381  0.00  0.00    +0.000 OA
ATOM     10  H   UNL     1      48.854   9.028  18.807  0.00  0.00    +0.000 HD
ENDBRANCH   8   9
BRANCH   8  11
ATOM     11  C   UNL     1      48.627   6.682  18.579  0.00  0.00    +0.000 C 
BRANCH  11  12
ATOM     12  C   UNL     1      48.368   5.276  18.085  0.00  0.00    +0.000 A 
ATOM     13  C   UNL     1      49.459   4.416  17.909  0.00  0.00    +0.000 A 
ATOM     14  C   UNL     1      49.265   3.140  17.399  0.00  0.00    +0.000 A 
ATOM     15  C   UNL     1      47.976   2.752  17.078  0.00  0.00    +0.000 A 
ATOM     16  N   UNL     1      46.896   3.542  17.245  0.00  0.00    +0.000 NA
ATOM     17  C   UNL     1      47.114   4.784  17.738  0.00  0.00    +0.000 A 
ENDBRANCH  11  12
ENDBRANCH   8  11
ENDBRANCH   5   8
ENDBRANCH   1   2
BRANCH   1  20
ATOM     18  O   UNL     1      45.427   7.975  11.822  0.00  0.00    +0.000 OA
ATOM     19  C   UNL     1      46.162   7.060  11.458  0.00  0.00    +0.000 C 
ATOM     20  N   UNL     1      47.517   7.074  11.664  0.00  0.00    +0.000 N 
ATOM     21  H   UNL     1      48.093   6.404  11.167  0.00  0.00    +0.000 HD
BRANCH  19  22
ATOM     22  C   UNL     1      45.622   5.853  10.822  0.00  0.00    +0.000 A 
ATOM     23  C   UNL     1      45.896   5.599   9.484  0.00  0.00    +0.000 A 
ATOM     24  S   UNL     1      45.172   4.172   8.899  0.00  0.00    +0.000 S 
ATOM     25  C   UNL     1      44.507   3.817  10.424  0.00  0.00    +0.000 A 
ATOM     26  N   UNL     1      43.776   2.686  10.622  0.00  0.00    +0.000 NA
ATOM     27  C   UNL     1      43.367   2.519  11.835  0.00  0.00    +0.000 A 
ATOM     28  N   UNL     1      43.619   3.386  12.868  0.00  0.00    +0.000 N 
ATOM     29  C   UNL     1      44.288   4.575  12.701  0.00  0.00    +0.000 A 
ATOM     30  O   UNL     1      44.380   5.385  13.620  0.00  0.00    +0.000 OA
ATOM     31  C   UNL     1      44.810   4.788  11.362  0.00  0.00    +0.000 A 
ATOM     32  H   UNL     1      43.248   3.210  13.790  0.00  0.00    +0.000 HD
ENDBRANCH  19  22
ENDBRANCH   1  20
TORSDOF 7
ENDMDL
MODEL 8
REMARK VINA RESULT:    -6.885      3.679      7.923
REMARK INTER + INTRA:         -10.573
REMARK INTER:                  -8.662
REMARK INTRA:                  -1.910
REMARK UNBOUND:                -1.071
REMARK  Name = 
REMARK  7 active torsions:
REMARK  status: ('A' for Active; 'I' for Inactive)
REMARK    1  A    between atoms: C_2  and  C_20
REMARK    2  A    between atoms: N_3  and  C_4
REMARK    3  A    between atoms: C_4  and  C_5
REMARK    4  A    between atoms: C_8  and  C_9
REMARK    5  A    between atoms: C_9  and  O_10
REMARK    6  A    between atoms: C_9  and  C_11
REMARK    7  A    between atoms: C_11  and  C_12
REMARK                            x       y       z     vdW  Elec       q    Type
REMARK                         _______ _______ _______ _____ _____    ______ ____
ROOT
ATOM      1  C   UNL     1      48.257   9.127  15.020  0.00  0.00    +0.000 C 
ENDROOT
BRANCH   1   2
ATOM      2  C   UNL     1      49.047   8.238  15.943  0.00  0.00    +0.000 A 
ATOM      3  C   UNL     1      48.786   8.230  17.317  0.00  0.00    +0.000 A 
ATOM      4  C   UNL     1      49.536   7.424  18.176  0.00  0.00    +0.000 A 
ATOM      5  C   UNL     1      50.578   6.621  17.686  0.00  0.00    +0.000 A 
ATOM      6  C   UNL     1      50.833   6.636  16.307  0.00  0.00    +0.000 A 
ATOM      7  C   UNL     1      50.086   7.444  15.448  0.00  0.00    +0.000 A 
BRANCH   5   8
ATOM      8  C   UNL     1      51.340   5.730  18.651  0.00  0.00    +0.000 C 
BRANCH   8   9
ATOM      9  O   UNL     1      51.684   6.529  19.785  0.00  0.00    +0.000 OA
ATOM     10  H   UNL     1      51.350   6.074  20.576  0.00  0.00    +0.000 HD
ENDBRANCH   8   9
BRANCH   8  11
ATOM     11  C   UNL     1      50.564   4.478  19.110  0.00  0.00    +0.000 C 
BRANCH  11  12
ATOM     12  C   UNL     1      49.837   3.669  18.060  0.00  0.00    +0.000 A 
ATOM     13  C   UNL     1      48.457   3.850  17.909  0.00  0.00    +0.000 A 
ATOM     14  C   UNL     1      47.748   3.080  16.999  0.00  0.00    +0.000 A 
ATOM     15  C   UNL     1      48.442   2.144  16.253  0.00  0.00    +0.000 A 
ATOM     16  N   UNL     1      49.771   1.947  16.353  0.00  0.00    +0.000 NA
ATOM     17  C   UNL     1      50.438   2.706  17.255  0.00  0.00    +0.000 A 
ENDBRANCH  11  12
ENDBRANCH   8  11
ENDBRANCH   5   8
ENDBRANCH   1   2
BRANCH   1  20
ATOM     18  O   UNL     1      47.984   8.682  12.257  0.00  0.00    +0.000 OA
ATOM     19  C   UNL     1      47.189   8.151  13.028  0.00  0.00    +0.000 C 
ATOM     20  N   UNL     1      47.205   8.381  14.379  0.00  0.00    +0.000 N 
ATOM     21  H   UNL     1      46.671   7.768  14.985  0.00  0.00    +0.000 HD
BRANCH  19  22
ATOM     22  C   UNL     1      46.121   7.272  12.540  0.00  0.00    +0.000 A 
ATOM     23  C   UNL     1      45.095   7.799  11.767  0.00  0.00    +0.000 A 
ATOM     24  S   UNL     1      43.927   6.646  11.307  0.00  0.00    +0.000 S 
ATOM     25  C   UNL     1      44.774   5.393  12.084  0.00  0.00    +0.000 A 
ATOM     26  N   UNL     1      44.318   4.112  12.046  0.00  0.00    +0.000 NA
ATOM     27  C   UNL     1      45.079   3.255  12.641  0.00  0.00    +0.000 A 
ATOM     28  N   UNL     1      46.255   3.567  13.275  0.00  0.00    +0.000 N 
ATOM     29  C   UNL     1      46.719   4.854  13.402  0.00  0.00    +0.000 A 
ATOM     30  O   UNL     1      47.705   5.108  14.088  0.00  0.00    +0.000 OA
ATOM     31  C   UNL     1      45.920   5.851  12.710  0.00  0.00    +0.000 A 
ATOM     32  H   UNL     1      46.791   2.852  13.744  0.00  0.00    +0.000 HD
ENDBRANCH  19  22
ENDBRANCH   1  20
TORSDOF 7
ENDMDL
MODEL 9
REMARK VINA RESULT:    -6.823      4.786      8.085
REMARK INTER + INTRA:         -10.486
REMARK INTER:                  -9.302
REMARK INTRA:                  -1.184
REMARK UNBOUND:                -1.071
REMARK  Name = 
REMARK  7 active torsions:
REMARK  status: ('A' for Active; 'I' for Inactive)
REMARK    1  A    between atoms: C_2  and  C_20
REMARK    2  A    between atoms: N_3  and  C_4
REMARK    3  A    between atoms: C_4  and  C_5
REMARK    4  A    between atoms: C_8  and  C_9
REMARK    5  A    between atoms: C_9  and  O_10
REMARK    6  A    between atoms: C_9  and  C_11
REMARK    7  A    between atoms: C_11  and  C_12
REMARK                            x       y       z     vdW  Elec       q    Type
REMARK                         _______ _______ _______ _____ _____    ______ ____
ROOT
ATOM      1  C   UNL     1      46.329   8.229  13.196  0.00  0.00    +0.000 C 
ENDROOT
BRANCH   1   2
ATOM      2  C   UNL     1      47.684   8.395  12.563  0.00  0.00    +0.000 A 
ATOM      3  C   UNL     1      48.098   9.643  12.086  0.00  0.00    +0.000 A 
ATOM      4  C   UNL     1      49.346   9.790  11.476  0.00  0.00    +0.000 A 
ATOM      5  C   UNL     1      50.203   8.690  11.311  0.00  0.00    +0.000 A 
ATOM      6  C   UNL     1      49.778   7.442  11.791  0.00  0.00    +0.000 A 
ATOM      7  C   UNL     1      48.530   7.293  12.397  0.00  0.00    +0.000 A 
BRANCH   5   8
ATOM      8  C   UNL     1      51.566   8.904  10.678  0.00  0.00    +0.000 C 
BRANCH   8   9
ATOM      9  O   UNL     1      52.102  10.112  11.223  0.00  0.00    +0.000 OA
ATOM     10  H   UNL     1      51.657  10.855  10.782  0.00  0.00    +0.000 HD
ENDBRANCH   8   9
BRANCH   8  11
ATOM     11  C   UNL     1      52.561   7.745  10.901  0.00  0.00    +0.000 C 
BRANCH  11  12
ATOM     12  C   UNL     1      52.955   6.909   9.705  0.00  0.00    +0.000 A 
ATOM     13  C   UNL     1      52.365   7.190   8.466  0.00  0.00    +0.000 A 
ATOM     14  C   UNL     1      52.656   6.403   7.361  0.00  0.00    +0.000 A 
ATOM     15  C   UNL     1      53.539   5.350   7.521  0.00  0.00    +0.000 A 
ATOM     16  N   UNL     1      54.140   5.052   8.690  0.00  0.00    +0.000 NA
ATOM     17  C   UNL     1      53.833   5.830   9.754  0.00  0.00    +0.000 A 
ENDBRANCH  11  12
ENDBRANCH   8  11
ENDBRANCH   5   8
ENDBRANCH   1   2
BRANCH   1  20
ATOM     18  O   UNL     1      44.426   7.622  11.217  0.00  0.00    +0.000 OA
ATOM     19  C   UNL     1      44.920   6.707  11.870  0.00  0.00    +0.000 C 
ATOM     20  N   UNL     1      45.792   6.924  12.905  0.00  0.00    +0.000 N 
ATOM     21  H   UNL     1      46.322   6.141  13.269  0.00  0.00    +0.000 HD
BRANCH  19  22
ATOM     22  C   UNL     1      44.558   5.307  11.621  0.00  0.00    +0.000 A 
ATOM     23  C   UNL     1      43.818   4.609  12.566  0.00  0.00    +0.000 A 
ATOM     24  S   UNL     1      43.508   2.991  12.130  0.00  0.00    +0.000 S 
ATOM     25  C   UNL     1      44.310   3.179  10.642  0.00  0.00    +0.000 A 
ATOM     26  N   UNL     1      44.384   2.152   9.752  0.00  0.00    +0.000 NA
ATOM     27  C   UNL     1      44.984   2.443   8.647  0.00  0.00    +0.000 A 
ATOM     28  N   UNL     1      45.522   3.671   8.353  0.00  0.00    +0.000 N 
ATOM     29  C   UNL     1      45.536   4.715   9.246  0.00  0.00    +0.000 A 
ATOM     30  O   UNL     1      46.140   5.755   8.996  0.00  0.00    +0.000 OA
ATOM     31  C   UNL     1      44.831   4.451  10.490  0.00  0.00    +0.000 A 
ATOM     32  H   UNL     1      46.001   3.826   7.478  0.00  0.00    +0.000 HD
ENDBRANCH  19  22
ENDBRANCH   1  20
TORSDOF 7
ENDMDL
