MODEL 1
REMARK VINA RESULT:    -7.047      0.000      0.000
REMARK INTER + INTRA:         -10.355
REMARK INTER:                  -9.519
REMARK INTRA:                  -0.836
REMARK UNBOUND:                -0.836
REMARK  Name = 
REMARK  7 active torsions:
REMARK  status: ('A' for Active; 'I' for Inactive)
REMARK    1  A    between atoms: C_1  and  O_2
REMARK    2  A    between atoms: O_2  and  C_3
REMARK    3  A    between atoms: C_5  and  C_6
REMARK    4  A    between atoms: C_6  and  N_7
REMARK    5  A    between atoms: C_8  and  C_10
REMARK    6  A    between atoms: C_22  and  C_23
REMARK    7  A    between atoms: C_23  and  N_24
REMARK                            x       y       z     vdW  Elec       q    Type
REMARK                         _______ _______ _______ _____ _____    ______ ____
ROOT
ATOM      1  C   UNL     1      47.200   3.299  16.849  0.00  0.00    +0.000 C 
ENDROOT
BRANCH   1   4
ATOM      2  C   UNL     1      50.676   4.563  17.867  0.00  0.00    +0.000 A 
ATOM      3  C   UNL     1      49.295   4.506  17.590  0.00  0.00    +0.000 A 
ATOM      4  C   UNL     1      48.676   3.329  17.148  0.00  0.00    +0.000 A 
ATOM      5  C   UNL     1      49.459   2.183  17.015  0.00  0.00    +0.000 A 
ATOM      6  C   UNL     1      50.825   2.227  17.312  0.00  0.00    +0.000 A 
ATOM      7  C   UNL     1      51.467   3.406  17.757  0.00  0.00    +0.000 A 
BRANCH   2   9
ATOM      8  C   UNL     1      50.361   6.348  19.396  0.00  0.00    +0.000 C 
ATOM      9  O   UNL     1      51.088   5.793  18.307  0.00  0.00    +0.000 OA
ENDBRANCH   2   9
BRANCH   7  10
ATOM     10  C   UNL     1      52.957   3.315  18.040  0.00  0.00    +0.000 C 
BRANCH  10  11
ATOM     11  N   UNL     1      53.467   2.335  19.001  0.00  0.00    +0.000 NA
ATOM     12  C   UNL     1      54.234   2.857  20.124  0.00  0.00    +0.000 C 
ATOM     13  C   UNL     1      55.681   2.581  19.773  0.00  0.00    +0.000 C 
ATOM     14  C   UNL     1      55.622   1.279  18.998  0.00  0.00    +0.000 C 
ATOM     15  C   UNL     1      54.205   1.205  18.445  0.00  0.00    +0.000 C 
ENDBRANCH  10  11
ENDBRANCH   7  10
ENDBRANCH   1   4
BRANCH   1  16
ATOM     16  N   UNL     1      46.826   4.312  15.893  0.00  0.00    +0.000 N 
ATOM     17  C   UNL     1      46.865   4.100  14.540  0.00  0.00    +0.000 C 
ATOM     18  O   UNL     1      47.223   3.027  14.059  0.00  0.00    +0.000 OA
ATOM     19  H   UNL     1      46.684   5.251  16.251  0.00  0.00    +0.000 HD
BRANCH  17  20
ATOM     20  C   UNL     1      46.388   5.195  13.681  0.00  0.00    +0.000 A 
ATOM     21  C   UNL     1      47.186   6.320  13.513  0.00  0.00    +0.000 A 
ATOM     22  S   UNL     1      46.519   7.488  12.469  0.00  0.00    +0.000 S 
ATOM     23  C   UNL     1      45.117   6.555  12.237  0.00  0.00    +0.000 A 
ATOM     24  N   UNL     1      44.103   7.010  11.454  0.00  0.00    +0.000 NA
ATOM     25  C   UNL     1      43.080   6.224  11.393  0.00  0.00    +0.000 A 
ATOM     26  N   UNL     1      42.989   5.015  12.030  0.00  0.00    +0.000 N 
ATOM     27  C   UNL     1      44.012   4.489  12.782  0.00  0.00    +0.000 A 
ATOM     28  O   UNL     1      43.933   3.360  13.261  0.00  0.00    +0.000 OA
ATOM     29  C   UNL     1      45.167   5.354  12.924  0.00  0.00    +0.000 A 
ATOM     30  H   UNL     1      42.172   4.433  11.918  0.00  0.00    +0.000 HD
ENDBRANCH  17  20
ENDBRANCH   1  16
TORSDOF 6
ENDMDL
MODEL 2
REMARK VINA RESULT:    -6.927      1.903      3.039
REMARK INTER + INTRA:         -10.193
REMARK INTER:                  -9.046
REMARK INTRA:                  -1.147
REMARK UNBOUND:                -0.836
REMARK  Name = 
REMARK  7 active torsions:
REMARK  status: ('A' for Active; 'I' for Inactive)
REMARK    1  A    between atoms: C_1  and  O_2
REMARK    2  A    between atoms: O_2  and  C_3
REMARK    3  A    between atoms: C_5  and  C_6
REMARK    4  A    between atoms: C_6  and  N_7
REMARK    5  A    between atoms: C_8  and  C_10
REMARK    6  A    between atoms: C_22  and  C_23
REMARK    7  A    between atoms: C_23  and  N_24
REMARK                            x       y       z     vdW  Elec       q    Type
REMARK                         _______ _______ _______ _____ _____    ______ ____
ROOT
ATOM      1  C   UNL     1      47.342   3.594  16.678  0.00  0.00    +0.000 C 
ENDROOT
BRANCH   1   4
ATOM      2  C   UNL     1      50.977   3.621  17.904  0.00  0.00    +0.000 A 
ATOM      3  C   UNL     1      49.740   3.198  17.377  0.00  0.00    +0.000 A 
ATOM      4  C   UNL     1      48.656   4.076  17.234  0.00  0.00    +0.000 A 
ATOM      5  C   UNL     1      48.837   5.409  17.599  0.00  0.00    +0.000 A 
ATOM      6  C   UNL     1      50.069   5.841  18.100  0.00  0.00    +0.000 A 
ATOM      7  C   UNL     1      51.172   4.969  18.253  0.00  0.00    +0.000 A 
BRANCH   2   9
ATOM      8  C   UNL     1      51.525   1.369  17.402  0.00  0.00    +0.000 C 
ATOM      9  O   UNL     1      51.915   2.625  17.945  0.00  0.00    +0.000 OA
ENDBRANCH   2   9
BRANCH   7  10
ATOM     10  C   UNL     1      52.451   5.568  18.813  0.00  0.00    +0.000 C 
BRANCH  10  11
ATOM     11  N   UNL     1      53.362   6.311  17.939  0.00  0.00    +0.000 NA
ATOM     12  C   UNL     1      53.345   7.763  18.058  0.00  0.00    +0.000 C 
ATOM     13  C   UNL     1      52.543   8.246  16.867  0.00  0.00    +0.000 C 
ATOM     14  C   UNL     1      52.871   7.240  15.781  0.00  0.00    +0.000 C 
ATOM     15  C   UNL     1      53.309   5.981  16.517  0.00  0.00    +0.000 C 
ENDBRANCH  10  11
ENDBRANCH   7  10
ENDBRANCH   1   4
BRANCH   1  16
ATOM     16  N   UNL     1      46.798   4.518  15.712  0.00  0.00    +0.000 N 
ATOM     17  C   UNL     1      46.774   4.251  14.369  0.00  0.00    +0.000 C 
ATOM     18  O   UNL     1      47.217   3.203  13.905  0.00  0.00    +0.000 OA
ATOM     19  H   UNL     1      46.576   5.451  16.045  0.00  0.00    +0.000 HD
BRANCH  17  20
ATOM     20  C   UNL     1      46.125   5.249  13.505  0.00  0.00    +0.000 A 
ATOM     21  C   UNL     1      46.781   6.446  13.242  0.00  0.00    +0.000 A 
ATOM     22  S   UNL     1      45.924   7.488  12.203  0.00  0.00    +0.000 S 
ATOM     23  C   UNL     1      44.622   6.398  12.100  0.00  0.00    +0.000 A 
ATOM     24  N   UNL     1      43.516   6.706  11.371  0.00  0.00    +0.000 NA
ATOM     25  C   UNL     1      42.586   5.811  11.408  0.00  0.00    +0.000 A 
ATOM     26  N   UNL     1      42.670   4.629  12.094  0.00  0.00    +0.000 N 
ATOM     27  C   UNL     1      43.790   4.251  12.794  0.00  0.00    +0.000 A 
ATOM     28  O   UNL     1      43.868   3.142  13.318  0.00  0.00    +0.000 OA
ATOM     29  C   UNL     1      44.848   5.242  12.826  0.00  0.00    +0.000 A 
ATOM     30  H   UNL     1      41.917   3.957  12.059  0.00  0.00    +0.000 HD
ENDBRANCH  17  20
ENDBRANCH   1  16
TORSDOF 6
ENDMDL
MODEL 3
REMARK VINA RESULT:    -6.853      3.833      9.073
REMARK INTER + INTRA:         -10.092
REMARK INTER:                  -9.251
REMARK INTRA:                  -0.841
REMARK UNBOUND:                -0.836
REMARK  Name = 
REMARK  7 active torsions:
REMARK  status: ('A' for Active; 'I' for Inactive)
REMARK    1  A    between atoms: C_1  and  O_2
REMARK    2  A    between atoms: O_2  and  C_3
REMARK    3  A    between atoms: C_5  and  C_6
REMARK    4  A    between atoms: C_6  and  N_7
REMARK    5  A    between atoms: C_8  and  C_10
REMARK    6  A    between atoms: C_22  and  C_23
REMARK    7  A    between atoms: C_23  and  N_24
REMARK                            x       y       z     vdW  Elec       q    Type
REMARK                         _______ _______ _______ _____ _____    ______ ____
ROOT
ATOM      1  C   UNL     1      47.396   7.764  13.650  0.00  0.00    +0.000 C 
ENDROOT
BRANCH   1   4
ATOM      2  C   UNL     1      44.616   5.847  11.829  0.00  0.00    +0.000 A 
ATOM      3  C   UNL     1      45.376   6.884  12.410  0.00  0.00    +0.000 A 
ATOM      4  C   UNL     1      46.610   6.640  13.028  0.00  0.00    +0.000 A 
ATOM      5  C   UNL     1      47.099   5.335  13.030  0.00  0.00    +0.000 A 
ATOM      6  C   UNL     1      46.362   4.306  12.434  0.00  0.00    +0.000 A 
ATOM      7  C   UNL     1      45.115   4.533  11.808  0.00  0.00    +0.000 A 
BRANCH   2   9
ATOM      8  C   UNL     1      42.247   5.748  11.788  0.00  0.00    +0.000 C 
ATOM      9  O   UNL     1      43.452   6.287  11.258  0.00  0.00    +0.000 OA
ENDBRANCH   2   9
BRANCH   7  10
ATOM     10  C   UNL     1      44.417   3.325  11.204  0.00  0.00    +0.000 C 
BRANCH  10  11
ATOM     11  N   UNL     1      44.234   3.229   9.755  0.00  0.00    +0.000 NA
ATOM     12  C   UNL     1      44.473   1.925   9.149  0.00  0.00    +0.000 C 
ATOM     13  C   UNL     1      45.841   2.035   8.508  0.00  0.00    +0.000 C 
ATOM     14  C   UNL     1      45.912   3.481   8.057  0.00  0.00    +0.000 C 
ATOM     15  C   UNL     1      44.927   4.228   8.946  0.00  0.00    +0.000 C 
ENDBRANCH  10  11
ENDBRANCH   7  10
ENDBRANCH   1   4
BRANCH   1  16
ATOM     16  N   UNL     1      47.875   7.420  14.966  0.00  0.00    +0.000 N 
ATOM     17  C   UNL     1      49.176   7.063  15.207  0.00  0.00    +0.000 C 
ATOM     18  O   UNL     1      50.015   7.015  14.310  0.00  0.00    +0.000 OA
ATOM     19  H   UNL     1      47.176   7.293  15.690  0.00  0.00    +0.000 HD
BRANCH  17  20
ATOM     20  C   UNL     1      49.546   6.806  16.607  0.00  0.00    +0.000 A 
ATOM     21  C   UNL     1      50.523   7.595  17.204  0.00  0.00    +0.000 A 
ATOM     22  S   UNL     1      50.824   7.202  18.834  0.00  0.00    +0.000 S 
ATOM     23  C   UNL     1      49.693   5.933  18.791  0.00  0.00    +0.000 A 
ATOM     24  N   UNL     1      49.483   5.153  19.885  0.00  0.00    +0.000 NA
ATOM     25  C   UNL     1      48.629   4.201  19.707  0.00  0.00    +0.000 A 
ATOM     26  N   UNL     1      47.951   3.972  18.540  0.00  0.00    +0.000 N 
ATOM     27  C   UNL     1      48.086   4.770  17.429  0.00  0.00    +0.000 A 
ATOM     28  O   UNL     1      47.392   4.593  16.430  0.00  0.00    +0.000 OA
ATOM     29  C   UNL     1      49.072   5.826  17.558  0.00  0.00    +0.000 A 
ATOM     30  H   UNL     1      47.273   3.227  18.474  0.00  0.00    +0.000 HD
ENDBRANCH  17  20
ENDBRANCH   1  16
TORSDOF 6
ENDMDL
MODEL 4
REMARK VINA RESULT:    -6.797      3.470      4.938
REMARK INTER + INTRA:         -10.017
REMARK INTER:                  -8.772
REMARK INTRA:                  -1.245
REMARK UNBOUND:                -0.836
REMARK  Name = 
REMARK  7 active torsions:
REMARK  status: ('A' for Active; 'I' for Inactive)
REMARK    1  A    between atoms: C_1  and  O_2
REMARK    2  A    between atoms: O_2  and  C_3
REMARK    3  A    between atoms: C_5  and  C_6
REMARK    4  A    between atoms: C_6  and  N_7
REMARK    5  A    between atoms: C_8  and  C_10
REMARK    6  A    between atoms: C_22  and  C_23
REMARK    7  A    between atoms: C_23  and  N_24
REMARK                            x       y       z     vdW  Elec       q    Type
REMARK                         _______ _______ _______ _____ _____    ______ ____
ROOT
ATOM      1  C   UNL     1      48.475   7.441  12.917  0.00  0.00    +0.000 C 
ENDROOT
BRANCH   1   4
ATOM      2  C   UNL     1      48.480   5.621  16.294  0.00  0.00    +0.000 A 
ATOM      3  C   UNL     1      48.110   6.069  15.009  0.00  0.00    +0.000 A 
ATOM      4  C   UNL     1      48.899   6.971  14.283  0.00  0.00    +0.000 A 
ATOM      5  C   UNL     1      50.098   7.400  14.850  0.00  0.00    +0.000 A 
ATOM      6  C   UNL     1      50.484   6.941  16.113  0.00  0.00    +0.000 A 
ATOM      7  C   UNL     1      49.698   6.033  16.861  0.00  0.00    +0.000 A 
BRANCH   2   9
ATOM      8  C   UNL     1      47.832   3.355  16.557  0.00  0.00    +0.000 C 
ATOM      9  O   UNL     1      47.590   4.730  16.832  0.00  0.00    +0.000 OA
ENDBRANCH   2   9
BRANCH   7  10
ATOM     10  C   UNL     1      50.233   5.619  18.223  0.00  0.00    +0.000 C 
BRANCH  10  11
ATOM     11  N   UNL     1      49.694   6.226  19.442  0.00  0.00    +0.000 NA
ATOM     12  C   UNL     1      48.681   5.465  20.160  0.00  0.00    +0.000 C 
ATOM     13  C   UNL     1      47.366   6.124  19.800  0.00  0.00    +0.000 C 
ATOM     14  C   UNL     1      47.728   7.588  19.642  0.00  0.00    +0.000 C 
ATOM     15  C   UNL     1      49.217   7.601  19.325  0.00  0.00    +0.000 C 
ENDBRANCH  10  11
ENDBRANCH   7  10
ENDBRANCH   1   4
BRANCH   1  16
ATOM     16  N   UNL     1      47.663   6.459  12.240  0.00  0.00    +0.000 N 
ATOM     17  C   UNL     1      46.408   6.739  11.769  0.00  0.00    +0.000 C 
ATOM     18  O   UNL     1      45.897   7.849  11.896  0.00  0.00    +0.000 OA
ATOM     19  H   UNL     1      47.990   5.499  12.264  0.00  0.00    +0.000 HD
BRANCH  17  20
ATOM     20  C   UNL     1      45.719   5.666  11.034  0.00  0.00    +0.000 A 
ATOM     21  C   UNL     1      45.777   5.652   9.646  0.00  0.00    +0.000 A 
ATOM     22  S   UNL     1      44.962   4.336   8.935  0.00  0.00    +0.000 S 
ATOM     23  C   UNL     1      44.462   3.759  10.455  0.00  0.00    +0.000 A 
ATOM     24  N   UNL     1      43.684   2.648  10.554  0.00  0.00    +0.000 NA
ATOM     25  C   UNL     1      43.343   2.340  11.761  0.00  0.00    +0.000 A 
ATOM     26  N   UNL     1      43.726   3.032  12.878  0.00  0.00    +0.000 N 
ATOM     27  C   UNL     1      44.560   4.124  12.831  0.00  0.00    +0.000 A 
ATOM     28  O   UNL     1      44.961   4.663  13.860  0.00  0.00    +0.000 OA
ATOM     29  C   UNL     1      44.934   4.543  11.494  0.00  0.00    +0.000 A 
ATOM     30  H   UNL     1      43.449   2.722  13.798  0.00  0.00    +0.000 HD
ENDBRANCH  17  20
ENDBRANCH   1  16
TORSDOF 6
ENDMDL
MODEL 5
REMARK VINA RESULT:    -6.729      3.607      9.032
REMARK INTER + INTRA:          -9.926
REMARK INTER:                  -8.628
REMARK INTRA:                  -1.298
REMARK UNBOUND:                -0.836
REMARK  Name = 
REMARK  7 active torsions:
REMARK  status: ('A' for Active; 'I' for Inactive)
REMARK    1  A    between atoms: C_1  and  O_2
REMARK    2  A    between atoms: O_2  and  C_3
REMARK    3  A    between atoms: C_5  and  C_6
REMARK    4  A    between atoms: C_6  and  N_7
REMARK    5  A    between atoms: C_8  and  C_10
REMARK    6  A    between atoms: C_22  and  C_23
REMARK    7  A    between atoms: C_23  and  N_24
REMARK                            x       y       z     vdW  Elec       q    Type
REMARK                         _______ _______ _______ _____ _____    ______ ____
ROOT
ATOM      1  C   UNL     1      47.699   8.668  13.980  0.00  0.00    +0.000 C 
ENDROOT
BRANCH   1   4
ATOM      2  C   UNL     1      44.874   7.764  11.547  0.00  0.00    +0.000 A 
ATOM      3  C   UNL     1      45.700   8.472  12.444  0.00  0.00    +0.000 A 
ATOM      4  C   UNL     1      46.840   7.892  13.017  0.00  0.00    +0.000 A 
ATOM      5  C   UNL     1      47.169   6.587  12.651  0.00  0.00    +0.000 A 
ATOM      6  C   UNL     1      46.367   5.888  11.743  0.00  0.00    +0.000 A 
ATOM      7  C   UNL     1      45.212   6.456  11.158  0.00  0.00    +0.000 A 
BRANCH   2   9
ATOM      8  C   UNL     1      44.025   9.913  11.014  0.00  0.00    +0.000 C 
ATOM      9  O   UNL     1      43.822   8.507  11.081  0.00  0.00    +0.000 OA
ENDBRANCH   2   9
BRANCH   7  10
ATOM     10  C   UNL     1      44.429   5.584  10.190  0.00  0.00    +0.000 C 
BRANCH  10  11
ATOM     11  N   UNL     1      43.391   4.680  10.688  0.00  0.00    +0.000 NA
ATOM     12  C   UNL     1      42.619   5.138  11.836  0.00  0.00    +0.000 C 
ATOM     13  C   UNL     1      43.193   4.389  13.020  0.00  0.00    +0.000 C 
ATOM     14  C   UNL     1      43.598   3.049  12.437  0.00  0.00    +0.000 C 
ATOM     15  C   UNL     1      43.800   3.303  10.949  0.00  0.00    +0.000 C 
ENDBRANCH  10  11
ENDBRANCH   7  10
ENDBRANCH   1   4
BRANCH   1  16
ATOM     16  N   UNL     1      48.058   7.879  15.133  0.00  0.00    +0.000 N 
ATOM     17  C   UNL     1      49.310   7.349  15.302  0.00  0.00    +0.000 C 
ATOM     18  O   UNL     1      50.205   7.516  14.477  0.00  0.00    +0.000 OA
ATOM     19  H   UNL     1      47.302   7.591  15.745  0.00  0.00    +0.000 HD
BRANCH  17  20
ATOM     20  C   UNL     1      49.561   6.626  16.559  0.00  0.00    +0.000 A 
ATOM     21  C   UNL     1      50.514   7.118  17.443  0.00  0.00    +0.000 A 
ATOM     22  S   UNL     1      50.673   6.196  18.866  0.00  0.00    +0.000 S 
ATOM     23  C   UNL     1      49.507   5.078  18.334  0.00  0.00    +0.000 A 
ATOM     24  N   UNL     1      49.187   3.996  19.093  0.00  0.00    +0.000 NA
ATOM     25  C   UNL     1      48.318   3.206  18.557  0.00  0.00    +0.000 A 
ATOM     26  N   UNL     1      47.726   3.412  17.339  0.00  0.00    +0.000 N 
ATOM     27  C   UNL     1      47.974   4.521  16.567  0.00  0.00    +0.000 A 
ATOM     28  O   UNL     1      47.354   4.722  15.524  0.00  0.00    +0.000 OA
ATOM     29  C   UNL     1      48.981   5.417  17.100  0.00  0.00    +0.000 A 
ATOM     30  H   UNL     1      47.030   2.770  16.988  0.00  0.00    +0.000 HD
ENDBRANCH  17  20
ENDBRANCH   1  16
TORSDOF 6
ENDMDL
MODEL 6
REMARK VINA RESULT:    -6.683      1.983      3.043
REMARK INTER + INTRA:          -9.863
REMARK INTER:                  -8.860
REMARK INTRA:                  -1.003
REMARK UNBOUND:                -0.836
REMARK  Name = 
REMARK  7 active torsions:
REMARK  status: ('A' for Active; 'I' for Inactive)
REMARK    1  A    between atoms: C_1  and  O_2
REMARK    2  A    between atoms: O_2  and  C_3
REMARK    3  A    between atoms: C_5  and  C_6
REMARK    4  A    between atoms: C_6  and  N_7
REMARK    5  A    between atoms: C_8  and  C_10
REMARK    6  A    between atoms: C_22  and  C_23
REMARK    7  A    between atoms: C_23  and  N_24
REMARK                            x       y       z     vdW  Elec       q    Type
REMARK                         _______ _______ _______ _____ _____    ______ ____
ROOT
ATOM      1  C   UNL     1      49.041   7.859  15.522  0.00  0.00    +0.000 C 
ENDROOT
BRANCH   1   4
ATOM      2  C   UNL     1      49.408   4.524  17.382  0.00  0.00    +0.000 A 
ATOM      3  C   UNL     1      48.858   5.632  16.707  0.00  0.00    +0.000 A 
ATOM      4  C   UNL     1      49.656   6.681  16.231  0.00  0.00    +0.000 A 
ATOM      5  C   UNL     1      51.036   6.591  16.411  0.00  0.00    +0.000 A 
ATOM      6  C   UNL     1      51.591   5.483  17.059  0.00  0.00    +0.000 A 
ATOM      7  C   UNL     1      50.800   4.417  17.547  0.00  0.00    +0.000 A 
BRANCH   2   9
ATOM      8  C   UNL     1      47.152   3.802  17.256  0.00  0.00    +0.000 C 
ATOM      9  O   UNL     1      48.470   3.597  17.751  0.00  0.00    +0.000 OA
ENDBRANCH   2   9
BRANCH   7  10
ATOM     10  C   UNL     1      51.531   3.276  18.235  0.00  0.00    +0.000 C 
BRANCH  10  11
ATOM     11  N   UNL     1      52.484   2.453  17.487  0.00  0.00    +0.000 NA
ATOM     12  C   UNL     1      52.138   1.049  17.306  0.00  0.00    +0.000 C 
ATOM     13  C   UNL     1      52.987   0.303  18.313  0.00  0.00    +0.000 C 
ATOM     14  C   UNL     1      54.266   1.116  18.379  0.00  0.00    +0.000 C 
ATOM     15  C   UNL     1      53.876   2.515  17.923  0.00  0.00    +0.000 C 
ENDBRANCH  10  11
ENDBRANCH   7  10
ENDBRANCH   1   4
BRANCH   1  16
ATOM     16  N   UNL     1      47.892   7.473  14.740  0.00  0.00    +0.000 N 
ATOM     17  C   UNL     1      48.003   6.854  13.523  0.00  0.00    +0.000 C 
ATOM     18  O   UNL     1      49.094   6.589  13.024  0.00  0.00    +0.000 OA
ATOM     19  H   UNL     1      46.990   7.822  15.048  0.00  0.00    +0.000 HD
BRANCH  17  20
ATOM     20  C   UNL     1      46.749   6.452  12.866  0.00  0.00    +0.000 A 
ATOM     21  C   UNL     1      45.960   7.424  12.263  0.00  0.00    +0.000 A 
ATOM     22  S   UNL     1      44.559   6.806  11.516  0.00  0.00    +0.000 S 
ATOM     23  C   UNL     1      44.931   5.222  12.011  0.00  0.00    +0.000 A 
ATOM     24  N   UNL     1      44.097   4.190  11.715  0.00  0.00    +0.000 NA
ATOM     25  C   UNL     1      44.475   3.047  12.182  0.00  0.00    +0.000 A 
ATOM     26  N   UNL     1      45.622   2.841  12.901  0.00  0.00    +0.000 N 
ATOM     27  C   UNL     1      46.523   3.843  13.171  0.00  0.00    +0.000 A 
ATOM     28  O   UNL     1      47.588   3.604  13.737  0.00  0.00    +0.000 OA
ATOM     29  C   UNL     1      46.122   5.159  12.712  0.00  0.00    +0.000 A 
ATOM     30  H   UNL     1      45.876   1.916  13.214  0.00  0.00    +0.000 HD
ENDBRANCH  17  20
ENDBRANCH   1  16
TORSDOF 6
ENDMDL
MODEL 7
REMARK VINA RESULT:    -6.627      4.250      5.768
REMARK INTER + INTRA:          -9.788
REMARK INTER:                  -8.517
REMARK INTRA:                  -1.271
REMARK UNBOUND:                -0.836
REMARK  Name = 
REMARK  7 active torsions:
REMARK  status: ('A' for Active; 'I' for Inactive)
REMARK    1  A    between atoms: C_1  and  O_2
REMARK    2  A    between atoms: O_2  and  C_3
REMARK    3  A    between atoms: C_5  and  C_6
REMARK    4  A    between atoms: C_6  and  N_7
REMARK    5  A    between atoms: C_8  and  C_10
REMARK    6  A    between atoms: C_22  and  C_23
REMARK    7  A    between atoms: C_23  and  N_24
REMARK                            x       y       z     vdW  Elec       q    Type
REMARK                         _______ _______ _______ _____ _____    ______ ____
ROOT
ATOM      1  C   UNL     1      47.660   7.648  12.095  0.00  0.00    +0.000 C 
ENDROOT
BRANCH   1   4
ATOM      2  C   UNL     1      48.888   6.480  15.537  0.00  0.00    +0.000 A 
ATOM      3  C   UNL     1      48.246   6.522  14.282  0.00  0.00    +0.000 A 
ATOM      4  C   UNL     1      48.366   7.625  13.426  0.00  0.00    +0.000 A 
ATOM      5  C   UNL     1      49.173   8.687  13.829  0.00  0.00    +0.000 A 
ATOM      6  C   UNL     1      49.832   8.641  15.062  0.00  0.00    +0.000 A 
ATOM      7  C   UNL     1      49.721   7.538  15.939  0.00  0.00    +0.000 A 
BRANCH   2   9
ATOM      8  C   UNL     1      47.514   4.570  15.837  0.00  0.00    +0.000 C 
ATOM      9  O   UNL     1      48.667   5.312  16.217  0.00  0.00    +0.000 OA
ENDBRANCH   2   9
BRANCH   7  10
ATOM     10  C   UNL     1      50.487   7.620  17.250  0.00  0.00    +0.000 C 
BRANCH  10  11
ATOM     11  N   UNL     1      49.814   8.068  18.470  0.00  0.00    +0.000 NA
ATOM     12  C   UNL     1      49.226   7.034  19.312  0.00  0.00    +0.000 C 
ATOM     13  C   UNL     1      47.741   7.087  19.021  0.00  0.00    +0.000 C 
ATOM     14  C   UNL     1      47.480   8.556  18.748  0.00  0.00    +0.000 C 
ATOM     15  C   UNL     1      48.823   9.128  18.311  0.00  0.00    +0.000 C 
ENDBRANCH  10  11
ENDBRANCH   7  10
ENDBRANCH   1   4
BRANCH   1  16
ATOM     16  N   UNL     1      46.925   6.430  11.856  0.00  0.00    +0.000 N 
ATOM     17  C   UNL     1      45.556   6.384  11.857  0.00  0.00    +0.000 C 
ATOM     18  O   UNL     1      44.871   7.383  12.062  0.00  0.00    +0.000 OA
ATOM     19  H   UNL     1      47.459   5.567  11.846  0.00  0.00    +0.000 HD
BRANCH  17  20
ATOM     20  C   UNL     1      44.935   5.091  11.528  0.00  0.00    +0.000 A 
ATOM     21  C   UNL     1      44.179   4.439  12.494  0.00  0.00    +0.000 A 
ATOM     22  S   UNL     1      43.497   2.972  11.961  0.00  0.00    +0.000 S 
ATOM     23  C   UNL     1      44.225   3.130  10.432  0.00  0.00    +0.000 A 
ATOM     24  N   UNL     1      44.064   2.168   9.484  0.00  0.00    +0.000 NA
ATOM     25  C   UNL     1      44.701   2.391   8.383  0.00  0.00    +0.000 A 
ATOM     26  N   UNL     1      45.469   3.498   8.138  0.00  0.00    +0.000 N 
ATOM     27  C   UNL     1      45.612   4.522   9.044  0.00  0.00    +0.000 A 
ATOM     28  O   UNL     1      46.230   5.544   8.755  0.00  0.00    +0.000 OA
ATOM     29  C   UNL     1      44.956   4.300  10.318  0.00  0.00    +0.000 A 
ATOM     30  H   UNL     1      45.918   3.627   7.244  0.00  0.00    +0.000 HD
ENDBRANCH  17  20
ENDBRANCH   1  16
TORSDOF 6
ENDMDL
MODEL 8
REMARK VINA RESULT:    -6.605      2.983      9.085
REMARK INTER + INTRA:          -9.758
REMARK INTER:                  -8.387
REMARK INTRA:                  -1.372
REMARK UNBOUND:                -0.836
REMARK  Name = 
REMARK  7 active torsions:
REMARK  status: ('A' for Active; 'I' for Inactive)
REMARK    1  A    between atoms: C_1  and  O_2
REMARK    2  A    between atoms: O_2  and  C_3
REMARK    3  A    between atoms: C_5  and  C_6
REMARK    4  A    between atoms: C_6  and  N_7
REMARK    5  A    between atoms: C_8  and  C_10
REMARK    6  A    between atoms: C_22  and  C_23
REMARK    7  A    between atoms: C_23  and  N_24
REMARK                            x       y       z     vdW  Elec       q    Type
REMARK                         _______ _______ _______ _____ _____    ______ ____
ROOT
ATOM      1  C   UNL     1      48.714   7.921  12.851  0.00  0.00    +0.000 C 
ENDROOT
BRANCH   1   4
ATOM      2  C   UNL     1      46.116   5.128  13.255  0.00  0.00    +0.000 A 
ATOM      3  C   UNL     1      47.334   5.838  13.237  0.00  0.00    +0.000 A 
ATOM      4  C   UNL     1      47.398   7.190  12.872  0.00  0.00    +0.000 A 
ATOM      5  C   UNL     1      46.208   7.842  12.552  0.00  0.00    +0.000 A 
ATOM      6  C   UNL     1      44.994   7.150  12.591  0.00  0.00    +0.000 A 
ATOM      7  C   UNL     1      44.910   5.786  12.955  0.00  0.00    +0.000 A 
BRANCH   2   9
ATOM      8  C   UNL     1      47.192   3.587  14.701  0.00  0.00    +0.000 C 
ATOM      9  O   UNL     1      46.256   3.827  13.657  0.00  0.00    +0.000 OA
ENDBRANCH   2   9
BRANCH   7  10
ATOM     10  C   UNL     1      43.528   5.155  12.952  0.00  0.00    +0.000 C 
BRANCH  10  11
ATOM     11  N   UNL     1      43.049   4.434  11.771  0.00  0.00    +0.000 NA
ATOM     12  C   UNL     1      43.375   3.016  11.692  0.00  0.00    +0.000 C 
ATOM     13  C   UNL     1      44.525   2.931  10.711  0.00  0.00    +0.000 C 
ATOM     14  C   UNL     1      44.239   4.045   9.723  0.00  0.00    +0.000 C 
ATOM     15  C   UNL     1      43.359   5.034  10.476  0.00  0.00    +0.000 C 
ENDBRANCH  10  11
ENDBRANCH   7  10
ENDBRANCH   1   4
BRANCH   1  16
ATOM     16  N   UNL     1      49.683   7.307  13.726  0.00  0.00    +0.000 N 
ATOM     17  C   UNL     1      50.418   8.025  14.631  0.00  0.00    +0.000 C 
ATOM     18  O   UNL     1      50.294   9.242  14.752  0.00  0.00    +0.000 OA
ATOM     19  H   UNL     1      49.922   6.339  13.537  0.00  0.00    +0.000 HD
BRANCH  17  20
ATOM     20  C   UNL     1      51.318   7.263  15.510  0.00  0.00    +0.000 A 
ATOM     21  C   UNL     1      52.690   7.463  15.411  0.00  0.00    +0.000 A 
ATOM     22  S   UNL     1      53.603   6.537  16.511  0.00  0.00    +0.000 S 
ATOM     23  C   UNL     1      52.202   5.798  17.131  0.00  0.00    +0.000 A 
ATOM     24  N   UNL     1      52.289   4.854  18.106  0.00  0.00    +0.000 NA
ATOM     25  C   UNL     1      51.156   4.345  18.459  0.00  0.00    +0.000 A 
ATOM     26  N   UNL     1      49.943   4.709  17.939  0.00  0.00    +0.000 N 
ATOM     27  C   UNL     1      49.802   5.700  16.997  0.00  0.00    +0.000 A 
ATOM     28  O   UNL     1      48.691   6.067  16.622  0.00  0.00    +0.000 OA
ATOM     29  C   UNL     1      51.049   6.271  16.528  0.00  0.00    +0.000 A 
ATOM     30  H   UNL     1      49.089   4.292  18.279  0.00  0.00    +0.000 HD
ENDBRANCH  17  20
ENDBRANCH   1  16
TORSDOF 6
ENDMDL
MODEL 9
REMARK VINA RESULT:    -6.562      3.489      9.061
REMARK INTER + INTRA:          -9.700
REMARK INTER:                  -8.635
REMARK INTRA:                  -1.065
REMARK UNBOUND:                -0.836
REMARK  Name = 
REMARK  7 active torsions:
REMARK  status: ('A' for Active; 'I' for Inactive)
REMARK    1  A    between atoms: C_1  and  O_2
REMARK    2  A    between atoms: O_2  and  C_3
REMARK    3  A    between atoms: C_5  and  C_6
REMARK    4  A    between atoms: C_6  and  N_7
REMARK    5  A    between atoms: C_8  and  C_10
REMARK    6  A    between atoms: C_22  and  C_23
REMARK    7  A    between atoms: C_23  and  N_24
REMARK                            x       y       z     vdW  Elec       q    Type
REMARK                         _______ _______ _______ _____ _____    ______ ____
ROOT
ATOM      1  C   UNL     1      47.653   7.990  13.397  0.00  0.00    +0.000 C 
ENDROOT
BRANCH   1   4
ATOM      2  C   UNL     1      45.724   4.753  12.674  0.00  0.00    +0.000 A 
ATOM      3  C   UNL     1      46.697   5.663  13.136  0.00  0.00    +0.000 A 
ATOM      4  C   UNL     1      46.593   7.041  12.901  0.00  0.00    +0.000 A 
ATOM      5  C   UNL     1      45.473   7.510  12.218  0.00  0.00    +0.000 A 
ATOM      6  C   UNL     1      44.491   6.615  11.778  0.00  0.00    +0.000 A 
ATOM      7  C   UNL     1      44.580   5.222  12.004  0.00  0.00    +0.000 A 
BRANCH   2   9
ATOM      8  C   UNL     1      47.011   3.260  13.993  0.00  0.00    +0.000 C 
ATOM      9  O   UNL     1      45.991   3.456  13.021  0.00  0.00    +0.000 OA
ENDBRANCH   2   9
BRANCH   7  10
ATOM     10  C   UNL     1      43.446   4.363  11.469  0.00  0.00    +0.000 C 
BRANCH  10  11
ATOM     11  N   UNL     1      43.543   3.761  10.138  0.00  0.00    +0.000 NA
ATOM     12  C   UNL     1      44.114   2.423  10.064  0.00  0.00    +0.000 C 
ATOM     13  C   UNL     1      45.532   2.627   9.571  0.00  0.00    +0.000 C 
ATOM     14  C   UNL     1      45.422   3.824   8.646  0.00  0.00    +0.000 C 
ATOM     15  C   UNL     1      44.178   4.574   9.104  0.00  0.00    +0.000 C 
ENDBRANCH  10  11
ENDBRANCH   7  10
ENDBRANCH   1   4
BRANCH   1  16
ATOM     16  N   UNL     1      47.829   7.898  14.826  0.00  0.00    +0.000 N 
ATOM     17  C   UNL     1      48.887   7.243  15.397  0.00  0.00    +0.000 C 
ATOM     18  O   UNL     1      49.753   6.691  14.722  0.00  0.00    +0.000 OA
ATOM     19  H   UNL     1      47.052   8.201  15.403  0.00  0.00    +0.000 HD
BRANCH  17  20
ATOM     20  C   UNL     1      48.982   7.288  16.865  0.00  0.00    +0.000 A 
ATOM     21  C   UNL     1      48.942   8.520  17.507  0.00  0.00    +0.000 A 
ATOM     22  S   UNL     1      49.031   8.414  19.205  0.00  0.00    +0.000 S 
ATOM     23  C   UNL     1      49.173   6.720  19.144  0.00  0.00    +0.000 A 
ATOM     24  N   UNL     1      49.320   5.995  20.284  0.00  0.00    +0.000 NA
ATOM     25  C   UNL     1      49.456   4.725  20.096  0.00  0.00    +0.000 A 
ATOM     26  N   UNL     1      49.440   4.114  18.871  0.00  0.00    +0.000 N 
ATOM     27  C   UNL     1      49.235   4.799  17.698  0.00  0.00    +0.000 A 
ATOM     28  O   UNL     1      49.131   4.207  16.625  0.00  0.00    +0.000 OA
ATOM     29  C   UNL     1      49.125   6.237  17.847  0.00  0.00    +0.000 A 
ATOM     30  H   UNL     1      49.523   3.111  18.793  0.00  0.00    +0.000 HD
ENDBRANCH  17  20
ENDBRANCH   1  16
TORSDOF 6
ENDMDL
