MODEL 1
REMARK VINA RESULT:    -7.327      0.000      0.000
REMARK INTER + INTRA:         -11.952
REMARK INTER:                 -10.753
REMARK INTRA:                  -1.198
REMARK UNBOUND:                -1.198
REMARK  Name = 
REMARK  10 active torsions:
REMARK  status: ('A' for Active; 'I' for Inactive)
REMARK    1  A    between atoms: C_1  and  C_2
REMARK    2  A    between atoms: C_2  and  N_3
REMARK    3  A    between atoms: C_2  and  C_20
REMARK    4  A    between atoms: N_3  and  C_4
REMARK    5  A    between atoms: C_4  and  C_5
REMARK    6  A    between atoms: C_8  and  C_9
REMARK    7  A    between atoms: C_9  and  N_10
REMARK    8  A    between atoms: N_10  and  C_11
REMARK    9  A    between atoms: C_11  and  C_12
REMARK   10  A    between atoms: N_15  and  C_16
REMARK                            x       y       z     vdW  Elec       q    Type
REMARK                         _______ _______ _______ _____ _____    ______ ____
ROOT
ATOM      1  C   UNL     1      48.044   6.514  13.922  0.00  0.00    +0.000 C 
ENDROOT
BRANCH   1   2
ATOM      2  C   UNL     1      47.003   5.885  13.033  0.00  0.00    +0.000 A 
ATOM      3  C   UNL     1      46.325   4.729  13.433  0.00  0.00    +0.000 A 
ATOM      4  C   UNL     1      45.304   4.200  12.641  0.00  0.00    +0.000 A 
ATOM      5  C   UNL     1      44.940   4.822  11.436  0.00  0.00    +0.000 A 
ATOM      6  C   UNL     1      45.619   5.979  11.038  0.00  0.00    +0.000 A 
ATOM      7  C   UNL     1      46.641   6.505  11.826  0.00  0.00    +0.000 A 
BRANCH   5   8
ATOM      8  C   UNL     1      43.823   4.265  10.588  0.00  0.00    +0.000 C 
BRANCH   8   9
ATOM      9  N   UNL     1      43.922   4.776   9.229  0.00  0.00    +0.000 NA
ATOM     10  H   UNL     1      44.647   5.492   9.195  0.00  0.00    +0.000 HD
BRANCH   9  11
ATOM     11  C   UNL     1      44.207   3.725   8.261  0.00  0.00    +0.000 C 
BRANCH  11  12
ATOM     12  C   UNL     1      45.664   3.288   8.426  0.00  0.00    +0.000 C 
ATOM     13  C   UNL     1      45.820   1.788   8.696  0.00  0.00    +0.000 C 
ATOM     14  C   UNL     1      46.617   1.259   7.513  0.00  0.00    +0.000 C 
ATOM     15  N   UNL     1      47.418   2.417   7.120  0.00  0.00    +0.000 NA
ATOM     16  C   UNL     1      48.007   2.262   5.796  0.00  0.00    +0.000 C 
ATOM     17  C   UNL     1      46.486   3.547   7.160  0.00  0.00    +0.000 C 
ENDBRANCH  11  12
ENDBRANCH   9  11
ENDBRANCH   8   9
ENDBRANCH   5   8
ENDBRANCH   1   2
BRANCH   1  18
ATOM     18  N   UNL     1      48.078   5.933  15.264  0.00  0.00    +0.000 NA
ATOM     19  H   UNL     1      48.199   4.921  15.172  0.00  0.00    +0.000 HD
BRANCH  18  21
ATOM     20  C   UNL     1      50.181   7.316  15.208  0.00  0.00    +0.000 C 
ATOM     21  C   UNL     1      49.214   6.453  16.045  0.00  0.00    +0.000 C 
BRANCH  21  22
ATOM     22  C   UNL     1      48.672   7.276  17.200  0.00  0.00    +0.000 A 
ATOM     23  C   UNL     1      48.754   8.659  17.292  0.00  0.00    +0.000 A 
ATOM     24  S   UNL     1      48.250   9.270  18.804  0.00  0.00    +0.000 S 
ATOM     25  C   UNL     1      47.919   7.707  19.392  0.00  0.00    +0.000 A 
ATOM     26  N   UNL     1      47.548   7.497  20.689  0.00  0.00    +0.000 NA
ATOM     27  C   UNL     1      47.369   6.255  20.990  0.00  0.00    +0.000 A 
ATOM     28  N   UNL     1      47.481   5.208  20.112  0.00  0.00    +0.000 N 
ATOM     29  C   UNL     1      47.768   5.378  18.777  0.00  0.00    +0.000 A 
ATOM     30  O   UNL     1      47.715   4.441  17.986  0.00  0.00    +0.000 OA
ATOM     31  C   UNL     1      48.099   6.744  18.415  0.00  0.00    +0.000 A 
ATOM     32  H   UNL     1      47.263   4.266  20.403  0.00  0.00    +0.000 HD
ENDBRANCH  21  22
ENDBRANCH  18  21
ENDBRANCH   1  18
TORSDOF 8
ENDMDL
MODEL 2
REMARK VINA RESULT:    -7.322      1.167      1.473
REMARK INTER + INTRA:         -11.944
REMARK INTER:                 -11.130
REMARK INTRA:                  -0.815
REMARK UNBOUND:                -1.198
REMARK  Name = 
REMARK  10 active torsions:
REMARK  status: ('A' for Active; 'I' for Inactive)
REMARK    1  A    between atoms: C_1  and  C_2
REMARK    2  A    between atoms: C_2  and  N_3
REMARK    3  A    between atoms: C_2  and  C_20
REMARK    4  A    between atoms: N_3  and  C_4
REMARK    5  A    between atoms: C_4  and  C_5
REMARK    6  A    between atoms: C_8  and  C_9
REMARK    7  A    between atoms: C_9  and  N_10
REMARK    8  A    between atoms: N_10  and  C_11
REMARK    9  A    between atoms: C_11  and  C_12
REMARK   10  A    between atoms: N_15  and  C_16
REMARK                            x       y       z     vdW  Elec       q    Type
REMARK                         _______ _______ _______ _____ _____    ______ ____
ROOT
ATOM      1  C   UNL     1      48.256   6.618  13.605  0.00  0.00    +0.000 C 
ENDROOT
BRANCH   1   2
ATOM      2  C   UNL     1      47.025   6.063  12.937  0.00  0.00    +0.000 A 
ATOM      3  C   UNL     1      46.168   5.196  13.622  0.00  0.00    +0.000 A 
ATOM      4  C   UNL     1      44.987   4.753  13.025  0.00  0.00    +0.000 A 
ATOM      5  C   UNL     1      44.639   5.175  11.732  0.00  0.00    +0.000 A 
ATOM      6  C   UNL     1      45.497   6.043  11.047  0.00  0.00    +0.000 A 
ATOM      7  C   UNL     1      46.679   6.482  11.642  0.00  0.00    +0.000 A 
BRANCH   5   8
ATOM      8  C   UNL     1      43.353   4.714  11.091  0.00  0.00    +0.000 C 
BRANCH   8   9
ATOM      9  N   UNL     1      43.435   3.299  10.762  0.00  0.00    +0.000 NA
ATOM     10  H   UNL     1      42.788   3.098   9.999  0.00  0.00    +0.000 HD
BRANCH   9  11
ATOM     11  C   UNL     1      44.785   2.891  10.397  0.00  0.00    +0.000 C 
BRANCH  11  12
ATOM     12  C   UNL     1      44.837   2.663   8.885  0.00  0.00    +0.000 C 
ATOM     13  C   UNL     1      45.148   3.935   8.090  0.00  0.00    +0.000 C 
ATOM     14  C   UNL     1      46.467   3.644   7.388  0.00  0.00    +0.000 C 
ATOM     15  N   UNL     1      46.425   2.193   7.212  0.00  0.00    +0.000 NA
ATOM     16  C   UNL     1      47.729   1.637   6.874  0.00  0.00    +0.000 C 
ATOM     17  C   UNL     1      45.941   1.675   8.494  0.00  0.00    +0.000 C 
ENDBRANCH  11  12
ENDBRANCH   9  11
ENDBRANCH   8   9
ENDBRANCH   5   8
ENDBRANCH   1   2
BRANCH   1  18
ATOM     18  N   UNL     1      48.511   6.026  14.918  0.00  0.00    +0.000 NA
ATOM     19  H   UNL     1      48.982   5.129  14.780  0.00  0.00    +0.000 HD
BRANCH  18  21
ATOM     20  C   UNL     1      49.593   8.289  15.133  0.00  0.00    +0.000 C 
ATOM     21  C   UNL     1      49.397   6.880  15.729  0.00  0.00    +0.000 C 
BRANCH  21  22
ATOM     22  C   UNL     1      48.812   6.998  17.126  0.00  0.00    +0.000 A 
ATOM     23  C   UNL     1      48.347   8.179  17.690  0.00  0.00    +0.000 A 
ATOM     24  S   UNL     1      47.954   8.031  19.344  0.00  0.00    +0.000 S 
ATOM     25  C   UNL     1      48.404   6.389  19.366  0.00  0.00    +0.000 A 
ATOM     26  N   UNL     1      48.416   5.668  20.525  0.00  0.00    +0.000 NA
ATOM     27  C   UNL     1      48.817   4.450  20.383  0.00  0.00    +0.000 A 
ATOM     28  N   UNL     1      49.162   3.869  19.190  0.00  0.00    +0.000 N 
ATOM     29  C   UNL     1      49.083   4.530  17.985  0.00  0.00    +0.000 A 
ATOM     30  O   UNL     1      49.255   3.943  16.921  0.00  0.00    +0.000 OA
ATOM     31  C   UNL     1      48.757   5.939  18.106  0.00  0.00    +0.000 A 
ATOM     32  H   UNL     1      49.405   2.891  19.144  0.00  0.00    +0.000 HD
ENDBRANCH  21  22
ENDBRANCH  18  21
ENDBRANCH   1  18
TORSDOF 8
ENDMDL
MODEL 3
REMARK VINA RESULT:    -7.229      2.597      3.269
REMARK INTER + INTRA:         -11.808
REMARK INTER:                 -11.066
REMARK INTRA:                  -0.742
REMARK UNBOUND:                -1.198
REMARK  Name = 
REMARK  10 active torsions:
REMARK  status: ('A' for Active; 'I' for Inactive)
REMARK    1  A    between atoms: C_1  and  C_2
REMARK    2  A    between atoms: C_2  and  N_3
REMARK    3  A    between atoms: C_2  and  C_20
REMARK    4  A    between atoms: N_3  and  C_4
REMARK    5  A    between atoms: C_4  and  C_5
REMARK    6  A    between atoms: C_8  and  C_9
REMARK    7  A    between atoms: C_9  and  N_10
REMARK    8  A    between atoms: N_10  and  C_11
REMARK    9  A    between atoms: C_11  and  C_12
REMARK   10  A    between atoms: N_15  and  C_16
REMARK                            x       y       z     vdW  Elec       q    Type
REMARK                         _______ _______ _______ _____ _____    ______ ____
ROOT
ATOM      1  C   UNL     1      47.915   6.100  14.549  0.00  0.00    +0.000 C 
ENDROOT
BRANCH   1   2
ATOM      2  C   UNL     1      46.840   5.703  13.572  0.00  0.00    +0.000 A 
ATOM      3  C   UNL     1      46.343   6.621  12.641  0.00  0.00    +0.000 A 
ATOM      4  C   UNL     1      45.407   6.222  11.686  0.00  0.00    +0.000 A 
ATOM      5  C   UNL     1      44.955   4.894  11.640  0.00  0.00    +0.000 A 
ATOM      6  C   UNL     1      45.453   3.976  12.571  0.00  0.00    +0.000 A 
ATOM      7  C   UNL     1      46.385   4.374  13.529  0.00  0.00    +0.000 A 
BRANCH   5   8
ATOM      8  C   UNL     1      43.960   4.455  10.595  0.00  0.00    +0.000 C 
BRANCH   8   9
ATOM      9  N   UNL     1      44.461   4.761   9.264  0.00  0.00    +0.000 NA
ATOM     10  H   UNL     1      45.386   5.183   9.346  0.00  0.00    +0.000 HD
BRANCH   9  11
ATOM     11  C   UNL     1      44.520   3.583   8.408  0.00  0.00    +0.000 C 
BRANCH  11  12
ATOM     12  C   UNL     1      45.955   3.052   8.403  0.00  0.00    +0.000 C 
ATOM     13  C   UNL     1      46.035   1.523   8.441  0.00  0.00    +0.000 C 
ATOM     14  C   UNL     1      46.721   1.134   7.139  0.00  0.00    +0.000 C 
ATOM     15  N   UNL     1      47.564   2.296   6.861  0.00  0.00    +0.000 NA
ATOM     16  C   UNL     1      48.057   2.309   5.490  0.00  0.00    +0.000 C 
ATOM     17  C   UNL     1      46.708   3.454   7.131  0.00  0.00    +0.000 C 
ENDBRANCH  11  12
ENDBRANCH   9  11
ENDBRANCH   8   9
ENDBRANCH   5   8
ENDBRANCH   1   2
BRANCH   1  18
ATOM     18  N   UNL     1      48.293   5.017  15.456  0.00  0.00    +0.000 NA
ATOM     19  H   UNL     1      49.239   4.711  15.214  0.00  0.00    +0.000 HD
BRANCH  18  21
ATOM     20  C   UNL     1      47.133   4.925  17.689  0.00  0.00    +0.000 C 
ATOM     21  C   UNL     1      48.312   5.472  16.858  0.00  0.00    +0.000 C 
BRANCH  21  22
ATOM     22  C   UNL     1      49.622   5.038  17.492  0.00  0.00    +0.000 A 
ATOM     23  C   UNL     1      50.534   5.899  18.088  0.00  0.00    +0.000 A 
ATOM     24  S   UNL     1      52.004   5.141  18.512  0.00  0.00    +0.000 S 
ATOM     25  C   UNL     1      51.475   3.641  17.903  0.00  0.00    +0.000 A 
ATOM     26  N   UNL     1      52.306   2.559  17.854  0.00  0.00    +0.000 NA
ATOM     27  C   UNL     1      51.771   1.508  17.331  0.00  0.00    +0.000 A 
ATOM     28  N   UNL     1      50.474   1.419  16.895  0.00  0.00    +0.000 N 
ATOM     29  C   UNL     1      49.575   2.456  17.004  0.00  0.00    +0.000 A 
ATOM     30  O   UNL     1      48.386   2.302  16.744  0.00  0.00    +0.000 OA
ATOM     31  C   UNL     1      50.162   3.698  17.471  0.00  0.00    +0.000 A 
ATOM     32  H   UNL     1      50.103   0.544  16.556  0.00  0.00    +0.000 HD
ENDBRANCH  21  22
ENDBRANCH  18  21
ENDBRANCH   1  18
TORSDOF 8
ENDMDL
MODEL 4
REMARK VINA RESULT:    -7.185      2.006      2.333
REMARK INTER + INTRA:         -11.744
REMARK INTER:                 -10.568
REMARK INTRA:                  -1.176
REMARK UNBOUND:                -1.198
REMARK  Name = 
REMARK  10 active torsions:
REMARK  status: ('A' for Active; 'I' for Inactive)
REMARK    1  A    between atoms: C_1  and  C_2
REMARK    2  A    between atoms: C_2  and  N_3
REMARK    3  A    between atoms: C_2  and  C_20
REMARK    4  A    between atoms: N_3  and  C_4
REMARK    5  A    between atoms: C_4  and  C_5
REMARK    6  A    between atoms: C_8  and  C_9
REMARK    7  A    between atoms: C_9  and  N_10
REMARK    8  A    between atoms: N_10  and  C_11
REMARK    9  A    between atoms: C_11  and  C_12
REMARK   10  A    between atoms: N_15  and  C_16
REMARK                            x       y       z     vdW  Elec       q    Type
REMARK                         _______ _______ _______ _____ _____    ______ ____
ROOT
ATOM      1  C   UNL     1      46.551   8.316  12.971  0.00  0.00    +0.000 C 
ENDROOT
BRANCH   1   2
ATOM      2  C   UNL     1      45.878   7.089  12.414  0.00  0.00    +0.000 A 
ATOM      3  C   UNL     1      44.792   6.506  13.074  0.00  0.00    +0.000 A 
ATOM      4  C   UNL     1      44.122   5.419  12.509  0.00  0.00    +0.000 A 
ATOM      5  C   UNL     1      44.525   4.900  11.269  0.00  0.00    +0.000 A 
ATOM      6  C   UNL     1      45.612   5.484  10.609  0.00  0.00    +0.000 A 
ATOM      7  C   UNL     1      46.284   6.566  11.175  0.00  0.00    +0.000 A 
BRANCH   5   8
ATOM      8  C   UNL     1      43.790   3.738  10.645  0.00  0.00    +0.000 C 
BRANCH   8   9
ATOM      9  N   UNL     1      44.090   3.660   9.223  0.00  0.00    +0.000 NA
ATOM     10  H   UNL     1      44.849   4.307   9.007  0.00  0.00    +0.000 HD
BRANCH   9  11
ATOM     11  C   UNL     1      44.445   2.310   8.805  0.00  0.00    +0.000 C 
BRANCH  11  12
ATOM     12  C   UNL     1      45.939   2.274   8.479  0.00  0.00    +0.000 C 
ATOM     13  C   UNL     1      46.442   0.880   8.092  0.00  0.00    +0.000 C 
ATOM     14  C   UNL     1      46.934   1.025   6.659  0.00  0.00    +0.000 C 
ATOM     15  N   UNL     1      47.353   2.425   6.603  0.00  0.00    +0.000 NA
ATOM     16  C   UNL     1      47.539   2.894   5.236  0.00  0.00    +0.000 C 
ATOM     17  C   UNL     1      46.284   3.163   7.279  0.00  0.00    +0.000 C 
ENDBRANCH  11  12
ENDBRANCH   9  11
ENDBRANCH   8   9
ENDBRANCH   5   8
ENDBRANCH   1   2
BRANCH   1  18
ATOM     18  N   UNL     1      47.201   8.078  14.259  0.00  0.00    +0.000 NA
ATOM     19  H   UNL     1      46.475   7.879  14.953  0.00  0.00    +0.000 HD
BRANCH  18  21
ATOM     20  C   UNL     1      49.360   7.159  13.348  0.00  0.00    +0.000 C 
ATOM     21  C   UNL     1      48.099   6.911  14.200  0.00  0.00    +0.000 C 
BRANCH  21  22
ATOM     22  C   UNL     1      48.509   6.542  15.615  0.00  0.00    +0.000 A 
ATOM     23  C   UNL     1      49.323   7.318  16.430  0.00  0.00    +0.000 A 
ATOM     24  S   UNL     1      49.779   6.536  17.877  0.00  0.00    +0.000 S 
ATOM     25  C   UNL     1      48.914   5.130  17.458  0.00  0.00    +0.000 A 
ATOM     26  N   UNL     1      48.970   4.003  18.227  0.00  0.00    +0.000 NA
ATOM     27  C   UNL     1      48.292   3.011  17.758  0.00  0.00    +0.000 A 
ATOM     28  N   UNL     1      47.527   3.049  16.620  0.00  0.00    +0.000 N 
ATOM     29  C   UNL     1      47.371   4.186  15.860  0.00  0.00    +0.000 A 
ATOM     30  O   UNL     1      46.566   4.233  14.936  0.00  0.00    +0.000 OA
ATOM     31  C   UNL     1      48.211   5.293  16.277  0.00  0.00    +0.000 A 
ATOM     32  H   UNL     1      46.970   2.253  16.347  0.00  0.00    +0.000 HD
ENDBRANCH  21  22
ENDBRANCH  18  21
ENDBRANCH   1  18
TORSDOF 8
ENDMDL
MODEL 5
REMARK VINA RESULT:    -6.873      1.985      2.672
REMARK INTER + INTRA:         -11.286
REMARK INTER:                  -9.982
REMARK INTRA:                  -1.304
REMARK UNBOUND:                -1.198
REMARK  Name = 
REMARK  10 active torsions:
REMARK  status: ('A' for Active; 'I' for Inactive)
REMARK    1  A    between atoms: C_1  and  C_2
REMARK    2  A    between atoms: C_2  and  N_3
REMARK    3  A    between atoms: C_2  and  C_20
REMARK    4  A    between atoms: N_3  and  C_4
REMARK    5  A    between atoms: C_4  and  C_5
REMARK    6  A    between atoms: C_8  and  C_9
REMARK    7  A    between atoms: C_9  and  N_10
REMARK    8  A    between atoms: N_10  and  C_11
REMARK    9  A    between atoms: C_11  and  C_12
REMARK   10  A    between atoms: N_15  and  C_16
REMARK                            x       y       z     vdW  Elec       q    Type
REMARK                         _______ _______ _______ _____ _____    ______ ____
ROOT
ATOM      1  C   UNL     1      48.648   9.110  13.702  0.00  0.00    +0.000 C 
ENDROOT
BRANCH   1   2
ATOM      2  C   UNL     1      47.607   8.307  12.968  0.00  0.00    +0.000 A 
ATOM      3  C   UNL     1      47.977   7.375  11.992  0.00  0.00    +0.000 A 
ATOM      4  C   UNL     1      47.012   6.576  11.376  0.00  0.00    +0.000 A 
ATOM      5  C   UNL     1      45.659   6.692  11.730  0.00  0.00    +0.000 A 
ATOM      6  C   UNL     1      45.289   7.624  12.706  0.00  0.00    +0.000 A 
ATOM      7  C   UNL     1      46.252   8.425  13.318  0.00  0.00    +0.000 A 
BRANCH   5   8
ATOM      8  C   UNL     1      44.616   5.815  11.081  0.00  0.00    +0.000 C 
BRANCH   8   9
ATOM      9  N   UNL     1      45.255   4.806  10.249  0.00  0.00    +0.000 NA
ATOM     10  H   UNL     1      46.225   4.696  10.547  0.00  0.00    +0.000 HD
BRANCH   9  11
ATOM     11  C   UNL     1      44.563   3.525  10.300  0.00  0.00    +0.000 C 
BRANCH  11  12
ATOM     12  C   UNL     1      44.591   2.897   8.906  0.00  0.00    +0.000 C 
ATOM     13  C   UNL     1      45.001   3.881   7.806  0.00  0.00    +0.000 C 
ATOM     14  C   UNL     1      46.289   3.310   7.230  0.00  0.00    +0.000 C 
ATOM     15  N   UNL     1      46.129   1.873   7.447  0.00  0.00    +0.000 NA
ATOM     16  C   UNL     1      47.382   1.145   7.293  0.00  0.00    +0.000 C 
ATOM     17  C   UNL     1      45.609   1.756   8.812  0.00  0.00    +0.000 C 
ENDBRANCH  11  12
ENDBRANCH   9  11
ENDBRANCH   8   9
ENDBRANCH   5   8
ENDBRANCH   1   2
BRANCH   1  18
ATOM     18  N   UNL     1      48.798   8.711  15.101  0.00  0.00    +0.000 NA
ATOM     19  H   UNL     1      47.864   8.595  15.503  0.00  0.00    +0.000 HD
BRANCH  18  21
ATOM     20  C   UNL     1      51.038   7.564  15.155  0.00  0.00    +0.000 C 
ATOM     21  C   UNL     1      49.503   7.423  15.220  0.00  0.00    +0.000 C 
BRANCH  21  22
ATOM     22  C   UNL     1      49.110   6.774  16.535  0.00  0.00    +0.000 A 
ATOM     23  C   UNL     1      49.507   7.223  17.788  0.00  0.00    +0.000 A 
ATOM     24  S   UNL     1      49.083   6.161  19.055  0.00  0.00    +0.000 S 
ATOM     25  C   UNL     1      48.367   5.059  17.972  0.00  0.00    +0.000 A 
ATOM     26  N   UNL     1      47.891   3.852  18.394  0.00  0.00    +0.000 NA
ATOM     27  C   UNL     1      47.413   3.115  17.449  0.00  0.00    +0.000 A 
ATOM     28  N   UNL     1      47.321   3.485  16.132  0.00  0.00    +0.000 N 
ATOM     29  C   UNL     1      47.708   4.725  15.674  0.00  0.00    +0.000 A 
ATOM     30  O   UNL     1      47.478   5.082  14.524  0.00  0.00    +0.000 OA
ATOM     31  C   UNL     1      48.367   5.543  16.675  0.00  0.00    +0.000 A 
ATOM     32  H   UNL     1      46.875   2.883  15.457  0.00  0.00    +0.000 HD
ENDBRANCH  21  22
ENDBRANCH  18  21
ENDBRANCH   1  18
TORSDOF 8
ENDMDL
MODEL 6
REMARK VINA RESULT:    -6.857      2.316      2.934
REMARK INTER + INTRA:         -11.262
REMARK INTER:                 -10.382
REMARK INTRA:                  -0.880
REMARK UNBOUND:                -1.198
REMARK  Name = 
REMARK  10 active torsions:
REMARK  status: ('A' for Active; 'I' for Inactive)
REMARK    1  A    between atoms: C_1  and  C_2
REMARK    2  A    between atoms: C_2  and  N_3
REMARK    3  A    between atoms: C_2  and  C_20
REMARK    4  A    between atoms: N_3  and  C_4
REMARK    5  A    between atoms: C_4  and  C_5
REMARK    6  A    between atoms: C_8  and  C_9
REMARK    7  A    between atoms: C_9  and  N_10
REMARK    8  A    between atoms: N_10  and  C_11
REMARK    9  A    between atoms: C_11  and  C_12
REMARK   10  A    between atoms: N_15  and  C_16
REMARK                            x       y       z     vdW  Elec       q    Type
REMARK                         _______ _______ _______ _____ _____    ______ ____
ROOT
ATOM      1  C   UNL     1      48.226   7.099  12.705  0.00  0.00    +0.000 C 
ENDROOT
BRANCH   1   2
ATOM      2  C   UNL     1      46.952   6.303  12.597  0.00  0.00    +0.000 A 
ATOM      3  C   UNL     1      45.963   6.655  11.672  0.00  0.00    +0.000 A 
ATOM      4  C   UNL     1      44.823   5.864  11.521  0.00  0.00    +0.000 A 
ATOM      5  C   UNL     1      44.654   4.701  12.290  0.00  0.00    +0.000 A 
ATOM      6  C   UNL     1      45.644   4.350  13.215  0.00  0.00    +0.000 A 
ATOM      7  C   UNL     1      46.781   5.142  13.370  0.00  0.00    +0.000 A 
BRANCH   5   8
ATOM      8  C   UNL     1      43.433   3.832  12.114  0.00  0.00    +0.000 C 
BRANCH   8   9
ATOM      9  N   UNL     1      43.394   3.289  10.765  0.00  0.00    +0.000 NA
ATOM     10  H   UNL     1      43.204   4.046  10.107  0.00  0.00    +0.000 HD
BRANCH   9  11
ATOM     11  C   UNL     1      44.630   2.608  10.404  0.00  0.00    +0.000 C 
BRANCH  11  12
ATOM     12  C   UNL     1      44.750   2.582   8.879  0.00  0.00    +0.000 C 
ATOM     13  C   UNL     1      45.063   3.954   8.274  0.00  0.00    +0.000 C 
ATOM     14  C   UNL     1      46.416   3.783   7.597  0.00  0.00    +0.000 C 
ATOM     15  N   UNL     1      46.416   2.368   7.230  0.00  0.00    +0.000 NA
ATOM     16  C   UNL     1      47.745   1.885   6.879  0.00  0.00    +0.000 C 
ATOM     17  C   UNL     1      45.892   1.675   8.410  0.00  0.00    +0.000 C 
ENDBRANCH  11  12
ENDBRANCH   9  11
ENDBRANCH   8   9
ENDBRANCH   5   8
ENDBRANCH   1   2
BRANCH   1  18
ATOM     18  N   UNL     1      49.094   6.646  13.792  0.00  0.00    +0.000 NA
ATOM     19  H   UNL     1      49.838   6.070  13.389  0.00  0.00    +0.000 HD
BRANCH  18  21
ATOM     20  C   UNL     1      48.722   8.662  15.253  0.00  0.00    +0.000 C 
ATOM     21  C   UNL     1      49.728   7.783  14.482  0.00  0.00    +0.000 C 
BRANCH  21  22
ATOM     22  C   UNL     1      50.772   7.245  15.445  0.00  0.00    +0.000 A 
ATOM     23  C   UNL     1      52.106   7.630  15.461  0.00  0.00    +0.000 A 
ATOM     24  S   UNL     1      53.070   6.692  16.511  0.00  0.00    +0.000 S 
ATOM     25  C   UNL     1      51.742   5.731  16.970  0.00  0.00    +0.000 A 
ATOM     26  N   UNL     1      51.894   4.646  17.784  0.00  0.00    +0.000 NA
ATOM     27  C   UNL     1      50.800   4.000  18.009  0.00  0.00    +0.000 A 
ATOM     28  N   UNL     1      49.563   4.357  17.538  0.00  0.00    +0.000 N 
ATOM     29  C   UNL     1      49.347   5.490  16.786  0.00  0.00    +0.000 A 
ATOM     30  O   UNL     1      48.213   5.865  16.505  0.00  0.00    +0.000 OA
ATOM     31  C   UNL     1      50.563   6.183  16.403  0.00  0.00    +0.000 A 
ATOM     32  H   UNL     1      48.739   3.841  17.808  0.00  0.00    +0.000 HD
ENDBRANCH  21  22
ENDBRANCH  18  21
ENDBRANCH   1  18
TORSDOF 8
ENDMDL
MODEL 7
REMARK VINA RESULT:    -6.732      2.233      2.904
REMARK INTER + INTRA:         -11.079
REMARK INTER:                  -9.836
REMARK INTRA:                  -1.243
REMARK UNBOUND:                -1.198
REMARK  Name = 
REMARK  10 active torsions:
REMARK  status: ('A' for Active; 'I' for Inactive)
REMARK    1  A    between atoms: C_1  and  C_2
REMARK    2  A    between atoms: C_2  and  N_3
REMARK    3  A    between atoms: C_2  and  C_20
REMARK    4  A    between atoms: N_3  and  C_4
REMARK    5  A    between atoms: C_4  and  C_5
REMARK    6  A    between atoms: C_8  and  C_9
REMARK    7  A    between atoms: C_9  and  N_10
REMARK    8  A    between atoms: N_10  and  C_11
REMARK    9  A    between atoms: C_11  and  C_12
REMARK   10  A    between atoms: N_15  and  C_16
REMARK                            x       y       z     vdW  Elec       q    Type
REMARK                         _______ _______ _______ _____ _____    ______ ____
ROOT
ATOM      1  C   UNL     1      47.506   4.246  15.019  0.00  0.00    +0.000 C 
ENDROOT
BRANCH   1   2
ATOM      2  C   UNL     1      46.536   4.411  13.879  0.00  0.00    +0.000 A 
ATOM      3  C   UNL     1      46.117   5.682  13.473  0.00  0.00    +0.000 A 
ATOM      4  C   UNL     1      45.283   5.830  12.363  0.00  0.00    +0.000 A 
ATOM      5  C   UNL     1      44.856   4.707  11.636  0.00  0.00    +0.000 A 
ATOM      6  C   UNL     1      45.275   3.436  12.043  0.00  0.00    +0.000 A 
ATOM      7  C   UNL     1      46.106   3.287  13.154  0.00  0.00    +0.000 A 
BRANCH   5   8
ATOM      8  C   UNL     1      43.972   4.866  10.424  0.00  0.00    +0.000 C 
BRANCH   8   9
ATOM      9  N   UNL     1      43.844   3.595   9.727  0.00  0.00    +0.000 NA
ATOM     10  H   UNL     1      42.859   3.330   9.696  0.00  0.00    +0.000 HD
BRANCH   9  11
ATOM     11  C   UNL     1      44.393   3.644   8.378  0.00  0.00    +0.000 C 
BRANCH  11  12
ATOM     12  C   UNL     1      45.847   3.171   8.423  0.00  0.00    +0.000 C 
ATOM     13  C   UNL     1      45.986   1.650   8.542  0.00  0.00    +0.000 C 
ATOM     14  C   UNL     1      46.710   1.223   7.273  0.00  0.00    +0.000 C 
ATOM     15  N   UNL     1      47.513   2.401   6.949  0.00  0.00    +0.000 NA
ATOM     16  C   UNL     1      48.029   2.364   5.586  0.00  0.00    +0.000 C 
ATOM     17  C   UNL     1      46.608   3.537   7.144  0.00  0.00    +0.000 C 
ENDBRANCH  11  12
ENDBRANCH   9  11
ENDBRANCH   8   9
ENDBRANCH   5   8
ENDBRANCH   1   2
BRANCH   1  18
ATOM     18  N   UNL     1      47.205   5.114  16.157  0.00  0.00    +0.000 NA
ATOM     19  H   UNL     1      46.198   5.294  16.165  0.00  0.00    +0.000 HD
BRANCH  18  21
ATOM     20  C   UNL     1      47.178   2.972  17.480  0.00  0.00    +0.000 C 
ATOM     21  C   UNL     1      47.558   4.466  17.433  0.00  0.00    +0.000 C 
BRANCH  21  22
ATOM     22  C   UNL     1      49.053   4.615  17.656  0.00  0.00    +0.000 A 
ATOM     23  C   UNL     1      49.978   3.589  17.521  0.00  0.00    +0.000 A 
ATOM     24  S   UNL     1      51.545   4.014  18.049  0.00  0.00    +0.000 S 
ATOM     25  C   UNL     1      51.037   5.579  18.487  0.00  0.00    +0.000 A 
ATOM     26  N   UNL     1      51.877   6.450  19.119  0.00  0.00    +0.000 NA
ATOM     27  C   UNL     1      51.334   7.581  19.419  0.00  0.00    +0.000 A 
ATOM     28  N   UNL     1      50.048   7.944  19.109  0.00  0.00    +0.000 N 
ATOM     29  C   UNL     1      49.192   7.133  18.398  0.00  0.00    +0.000 A 
ATOM     30  O   UNL     1      48.103   7.539  18.007  0.00  0.00    +0.000 OA
ATOM     31  C   UNL     1      49.714   5.802  18.146  0.00  0.00    +0.000 A 
ATOM     32  H   UNL     1      49.709   8.871  19.318  0.00  0.00    +0.000 HD
ENDBRANCH  21  22
ENDBRANCH  18  21
ENDBRANCH   1  18
TORSDOF 8
ENDMDL
MODEL 8
REMARK VINA RESULT:    -6.657      2.445      3.174
REMARK INTER + INTRA:         -10.968
REMARK INTER:                 -10.156
REMARK INTRA:                  -0.813
REMARK UNBOUND:                -1.198
REMARK  Name = 
REMARK  10 active torsions:
REMARK  status: ('A' for Active; 'I' for Inactive)
REMARK    1  A    between atoms: C_1  and  C_2
REMARK    2  A    between atoms: C_2  and  N_3
REMARK    3  A    between atoms: C_2  and  C_20
REMARK    4  A    between atoms: N_3  and  C_4
REMARK    5  A    between atoms: C_4  and  C_5
REMARK    6  A    between atoms: C_8  and  C_9
REMARK    7  A    between atoms: C_9  and  N_10
REMARK    8  A    between atoms: N_10  and  C_11
REMARK    9  A    between atoms: C_11  and  C_12
REMARK   10  A    between atoms: N_15  and  C_16
REMARK                            x       y       z     vdW  Elec       q    Type
REMARK                         _______ _______ _______ _____ _____    ______ ____
ROOT
ATOM      1  C   UNL     1      48.165   7.006  12.525  0.00  0.00    +0.000 C 
ENDROOT
BRANCH   1   2
ATOM      2  C   UNL     1      46.892   6.208  12.431  0.00  0.00    +0.000 A 
ATOM      3  C   UNL     1      45.933   6.502  11.456  0.00  0.00    +0.000 A 
ATOM      4  C   UNL     1      44.794   5.705  11.322  0.00  0.00    +0.000 A 
ATOM      5  C   UNL     1      44.597   4.596  12.160  0.00  0.00    +0.000 A 
ATOM      6  C   UNL     1      45.557   4.303  13.135  0.00  0.00    +0.000 A 
ATOM      7  C   UNL     1      46.693   5.101  13.272  0.00  0.00    +0.000 A 
BRANCH   5   8
ATOM      8  C   UNL     1      43.378   3.721  12.005  0.00  0.00    +0.000 C 
BRANCH   8   9
ATOM      9  N   UNL     1      43.444   2.986  10.750  0.00  0.00    +0.000 NA
ATOM     10  H   UNL     1      42.997   3.539  10.018  0.00  0.00    +0.000 HD
BRANCH   9  11
ATOM     11  C   UNL     1      44.812   2.659  10.369  0.00  0.00    +0.000 C 
BRANCH  11  12
ATOM     12  C   UNL     1      44.890   2.578   8.844  0.00  0.00    +0.000 C 
ATOM     13  C   UNL     1      45.177   3.929   8.180  0.00  0.00    +0.000 C 
ATOM     14  C   UNL     1      46.513   3.742   7.474  0.00  0.00    +0.000 C 
ATOM     15  N   UNL     1      46.513   2.314   7.159  0.00  0.00    +0.000 NA
ATOM     16  C   UNL     1      47.836   1.828   6.790  0.00  0.00    +0.000 C 
ATOM     17  C   UNL     1      46.026   1.662   8.377  0.00  0.00    +0.000 C 
ENDBRANCH  11  12
ENDBRANCH   9  11
ENDBRANCH   8   9
ENDBRANCH   5   8
ENDBRANCH   1   2
BRANCH   1  18
ATOM     18  N   UNL     1      49.136   6.429  13.454  0.00  0.00    +0.000 NA
ATOM     19  H   UNL     1      49.980   6.187  12.927  0.00  0.00    +0.000 HD
BRANCH  18  21
ATOM     20  C   UNL     1      48.500   8.539  14.670  0.00  0.00    +0.000 C 
ATOM     21  C   UNL     1      49.519   7.394  14.499  0.00  0.00    +0.000 C 
BRANCH  21  22
ATOM     22  C   UNL     1      49.670   6.650  15.814  0.00  0.00    +0.000 A 
ATOM     23  C   UNL     1      48.622   6.078  16.523  0.00  0.00    +0.000 A 
ATOM     24  S   UNL     1      49.078   5.505  18.065  0.00  0.00    +0.000 S 
ATOM     25  C   UNL     1      50.688   6.015  17.844  0.00  0.00    +0.000 A 
ATOM     26  N   UNL     1      51.609   5.924  18.847  0.00  0.00    +0.000 NA
ATOM     27  C   UNL     1      52.773   6.385  18.536  0.00  0.00    +0.000 A 
ATOM     28  N   UNL     1      53.119   6.887  17.307  0.00  0.00    +0.000 N 
ATOM     29  C   UNL     1      52.249   6.919  16.240  0.00  0.00    +0.000 A 
ATOM     30  O   UNL     1      52.627   7.233  15.117  0.00  0.00    +0.000 OA
ATOM     31  C   UNL     1      50.893   6.526  16.574  0.00  0.00    +0.000 A 
ATOM     32  H   UNL     1      54.067   7.171  17.115  0.00  0.00    +0.000 HD
ENDBRANCH  21  22
ENDBRANCH  18  21
ENDBRANCH   1  18
TORSDOF 8
ENDMDL
MODEL 9
REMARK VINA RESULT:    -6.407      1.909      2.522
REMARK INTER + INTRA:         -10.602
REMARK INTER:                  -9.660
REMARK INTRA:                  -0.942
REMARK UNBOUND:                -1.198
REMARK  Name = 
REMARK  10 active torsions:
REMARK  status: ('A' for Active; 'I' for Inactive)
REMARK    1  A    between atoms: C_1  and  C_2
REMARK    2  A    between atoms: C_2  and  N_3
REMARK    3  A    between atoms: C_2  and  C_20
REMARK    4  A    between atoms: N_3  and  C_4
REMARK    5  A    between atoms: C_4  and  C_5
REMARK    6  A    between atoms: C_8  and  C_9
REMARK    7  A    between atoms: C_9  and  N_10
REMARK    8  A    between atoms: N_10  and  C_11
REMARK    9  A    between atoms: C_11  and  C_12
REMARK   10  A    between atoms: N_15  and  C_16
REMARK                            x       y       z     vdW  Elec       q    Type
REMARK                         _______ _______ _______ _____ _____    ______ ____
ROOT
ATOM      1  C   UNL     1      48.732   7.588  13.829  0.00  0.00    +0.000 C 
ENDROOT
BRANCH   1   2
ATOM      2  C   UNL     1      47.471   7.032  13.223  0.00  0.00    +0.000 A 
ATOM      3  C   UNL     1      46.674   7.817  12.383  0.00  0.00    +0.000 A 
ATOM      4  C   UNL     1      45.552   7.269  11.759  0.00  0.00    +0.000 A 
ATOM      5  C   UNL     1      45.209   5.923  11.961  0.00  0.00    +0.000 A 
ATOM      6  C   UNL     1      46.006   5.139  12.802  0.00  0.00    +0.000 A 
ATOM      7  C   UNL     1      47.125   5.686  13.428  0.00  0.00    +0.000 A 
BRANCH   5   8
ATOM      8  C   UNL     1      44.009   5.322  11.272  0.00  0.00    +0.000 C 
BRANCH   8   9
ATOM      9  N   UNL     1      44.409   4.699  10.019  0.00  0.00    +0.000 NA
ATOM     10  H   UNL     1      45.361   4.986   9.795  0.00  0.00    +0.000 HD
BRANCH   9  11
ATOM     11  C   UNL     1      44.320   3.245  10.070  0.00  0.00    +0.000 C 
BRANCH  11  12
ATOM     12  C   UNL     1      44.557   2.690   8.664  0.00  0.00    +0.000 C 
ATOM     13  C   UNL     1      44.846   3.777   7.625  0.00  0.00    +0.000 C 
ATOM     14  C   UNL     1      46.253   3.479   7.128  0.00  0.00    +0.000 C 
ATOM     15  N   UNL     1      46.353   2.030   7.293  0.00  0.00    +0.000 NA
ATOM     16  C   UNL     1      47.728   1.555   7.210  0.00  0.00    +0.000 C 
ATOM     17  C   UNL     1      45.776   1.763   8.613  0.00  0.00    +0.000 C 
ENDBRANCH  11  12
ENDBRANCH   9  11
ENDBRANCH   8   9
ENDBRANCH   5   8
ENDBRANCH   1   2
BRANCH   1  18
ATOM     18  N   UNL     1      49.489   6.593  14.589  0.00  0.00    +0.000 NA
ATOM     19  H   UNL     1      50.429   6.532  14.190  0.00  0.00    +0.000 HD
BRANCH  18  21
ATOM     20  C   UNL     1      48.855   8.278  16.349  0.00  0.00    +0.000 C 
ATOM     21  C   UNL     1      49.624   6.986  16.003  0.00  0.00    +0.000 C 
BRANCH  21  22
ATOM     22  C   UNL     1      49.119   5.849  16.873  0.00  0.00    +0.000 A 
ATOM     23  C   UNL     1      48.161   4.921  16.484  0.00  0.00    +0.000 A 
ATOM     24  S   UNL     1      47.648   3.903  17.755  0.00  0.00    +0.000 S 
ATOM     25  C   UNL     1      48.678   4.675  18.869  0.00  0.00    +0.000 A 
ATOM     26  N   UNL     1      48.657   4.358  20.197  0.00  0.00    +0.000 NA
ATOM     27  C   UNL     1      49.467   5.057  20.917  0.00  0.00    +0.000 A 
ATOM     28  N   UNL     1      50.329   6.008  20.435  0.00  0.00    +0.000 N 
ATOM     29  C   UNL     1      50.447   6.301  19.095  0.00  0.00    +0.000 A 
ATOM     30  O   UNL     1      51.328   7.046  18.678  0.00  0.00    +0.000 OA
ATOM     31  C   UNL     1      49.470   5.631  18.257  0.00  0.00    +0.000 A 
ATOM     32  H   UNL     1      50.982   6.471  21.049  0.00  0.00    +0.000 HD
ENDBRANCH  21  22
ENDBRANCH  18  21
ENDBRANCH   1  18
TORSDOF 8
ENDMDL
