MODEL 1
REMARK VINA RESULT:    -7.219      0.000      0.000
REMARK INTER + INTRA:         -11.597
REMARK INTER:                 -10.173
REMARK INTRA:                  -1.424
REMARK UNBOUND:                -1.424
REMARK  Name = 
REMARK  9 active torsions:
REMARK  status: ('A' for Active; 'I' for Inactive)
REMARK    1  A    between atoms: C_1  and  O_2
REMARK    2  A    between atoms: O_2  and  C_3
REMARK    3  A    between atoms: C_10  and  C_11
REMARK    4  A    between atoms: N_13  and  C_14
REMARK    5  A    between atoms: C_14  and  C_15
REMARK    6  A    between atoms: C_18  and  C_19
REMARK    7  A    between atoms: C_19  and  N_20
REMARK    8  A    between atoms: N_20  and  C_21
REMARK    9  A    between atoms: C_26  and  C_27
REMARK                            x       y       z     vdW  Elec       q    Type
REMARK                         _______ _______ _______ _____ _____    ______ ____
ROOT
ATOM      1  C   UNL     1      46.682   7.744  12.828  0.00  0.00    +0.000 A 
ATOM      2  C   UNL     1      47.202   6.580  12.247  0.00  0.00    +0.000 A 
ATOM      3  C   UNL     1      46.438   5.832  11.345  0.00  0.00    +0.000 A 
ATOM      4  C   UNL     1      45.148   6.248  10.989  0.00  0.00    +0.000 A 
ATOM      5  C   UNL     1      44.641   7.428  11.550  0.00  0.00    +0.000 A 
ATOM      6  C   UNL     1      45.403   8.172  12.454  0.00  0.00    +0.000 A 
ENDROOT
BRANCH   1   7
ATOM      7  C   UNL     1      47.483   8.527  13.833  0.00  0.00    +0.000 C 
BRANCH   7  10
ATOM      8  C   UNL     1      49.241   7.341  15.063  0.00  0.00    +0.000 C 
ATOM      9  O   UNL     1      50.085   7.702  14.246  0.00  0.00    +0.000 OA
ATOM     10  N   UNL     1      47.927   7.695  14.925  0.00  0.00    +0.000 N 
ATOM     11  H   UNL     1      47.232   7.365  15.579  0.00  0.00    +0.000 HD
BRANCH   8  19
ATOM     12  C   UNL     1      47.902   4.513  16.519  0.00  0.00    +0.000 A 
ATOM     13  N   UNL     1      47.559   3.485  17.324  0.00  0.00    +0.000 NA
ATOM     14  C   UNL     1      48.302   3.259  18.410  0.00  0.00    +0.000 A 
ATOM     15  N   UNL     1      49.377   3.939  18.800  0.00  0.00    +0.000 NA
ATOM     16  C   UNL     1      49.678   4.959  17.980  0.00  0.00    +0.000 A 
ATOM     17  S   UNL     1      51.029   5.930  18.321  0.00  0.00    +0.000 S 
ATOM     18  C   UNL     1      50.726   6.908  16.963  0.00  0.00    +0.000 A 
ATOM     19  C   UNL     1      49.612   6.527  16.233  0.00  0.00    +0.000 A 
ATOM     20  C   UNL     1      48.997   5.341  16.827  0.00  0.00    +0.000 A 
BRANCH  12  22
ATOM     21  C   UNL     1      47.193   3.637  14.453  0.00  0.00    +0.000 C 
ATOM     22  O   UNL     1      47.161   4.725  15.374  0.00  0.00    +0.000 OA
ENDBRANCH  12  22
ENDBRANCH   8  19
ENDBRANCH   7  10
ENDBRANCH   1   7
BRANCH   4  23
ATOM     23  C   UNL     1      44.297   5.426  10.048  0.00  0.00    +0.000 C 
BRANCH  23  24
ATOM     24  N   UNL     1      45.069   4.945   8.913  0.00  0.00    +0.000 NA
ATOM     25  H   UNL     1      46.066   5.059   9.054  0.00  0.00    +0.000 HD
BRANCH  24  26
ATOM     26  C   UNL     1      44.753   3.594   8.519  0.00  0.00    +0.000 C 
ATOM     27  C   UNL     1      44.254   2.734   9.689  0.00  0.00    +0.000 C 
ATOM     28  C   UNL     1      44.495   1.316   9.203  0.00  0.00    +0.000 C 
ATOM     29  C   UNL     1      45.757   1.435   8.362  0.00  0.00    +0.000 C 
ATOM     30  N   UNL     1      45.925   2.855   8.070  0.00  0.00    +0.000 N 
ATOM     31  C   UNL     1      46.868   3.345   7.181  0.00  0.00    +0.000 C 
ATOM     32  C   UNL     1      47.932   2.385   6.693  0.00  0.00    +0.000 C 
ATOM     33  O   UNL     1      46.920   4.514   6.802  0.00  0.00    +0.000 OA
ENDBRANCH  24  26
ENDBRANCH  23  24
ENDBRANCH   4  23
TORSDOF 7
ENDMDL
MODEL 2
REMARK VINA RESULT:    -7.101      1.500      1.934
REMARK INTER + INTRA:         -11.432
REMARK INTER:                  -9.916
REMARK INTRA:                  -1.516
REMARK UNBOUND:                -1.424
REMARK  Name = 
REMARK  9 active torsions:
REMARK  status: ('A' for Active; 'I' for Inactive)
REMARK    1  A    between atoms: C_1  and  O_2
REMARK    2  A    between atoms: O_2  and  C_3
REMARK    3  A    between atoms: C_10  and  C_11
REMARK    4  A    between atoms: N_13  and  C_14
REMARK    5  A    between atoms: C_14  and  C_15
REMARK    6  A    between atoms: C_18  and  C_19
REMARK    7  A    between atoms: C_19  and  N_20
REMARK    8  A    between atoms: N_20  and  C_21
REMARK    9  A    between atoms: C_26  and  C_27
REMARK                            x       y       z     vdW  Elec       q    Type
REMARK                         _______ _______ _______ _____ _____    ______ ____
ROOT
ATOM      1  C   UNL     1      47.968   8.123  13.349  0.00  0.00    +0.000 A 
ATOM      2  C   UNL     1      47.973   6.999  12.512  0.00  0.00    +0.000 A 
ATOM      3  C   UNL     1      46.805   6.597  11.853  0.00  0.00    +0.000 A 
ATOM      4  C   UNL     1      45.617   7.324  12.001  0.00  0.00    +0.000 A 
ATOM      5  C   UNL     1      45.622   8.465  12.817  0.00  0.00    +0.000 A 
ATOM      6  C   UNL     1      46.787   8.863  13.477  0.00  0.00    +0.000 A 
ENDROOT
BRANCH   1   7
ATOM      7  C   UNL     1      49.208   8.534  14.094  0.00  0.00    +0.000 C 
BRANCH   7  10
ATOM      8  C   UNL     1      48.846   8.178  16.493  0.00  0.00    +0.000 C 
ATOM      9  O   UNL     1      48.219   9.231  16.577  0.00  0.00    +0.000 OA
ATOM     10  N   UNL     1      49.381   7.766  15.303  0.00  0.00    +0.000 N 
ATOM     11  H   UNL     1      49.927   6.917  15.248  0.00  0.00    +0.000 HD
BRANCH   8  19
ATOM     12  C   UNL     1      48.532   4.780  17.014  0.00  0.00    +0.000 A 
ATOM     13  N   UNL     1      48.416   3.532  17.514  0.00  0.00    +0.000 NA
ATOM     14  C   UNL     1      48.652   3.349  18.816  0.00  0.00    +0.000 A 
ATOM     15  N   UNL     1      49.007   4.274  19.702  0.00  0.00    +0.000 NA
ATOM     16  C   UNL     1      49.101   5.503  19.169  0.00  0.00    +0.000 A 
ATOM     17  S   UNL     1      49.554   6.807  20.157  0.00  0.00    +0.000 S 
ATOM     18  C   UNL     1      49.420   7.898  18.859  0.00  0.00    +0.000 A 
ATOM     19  C   UNL     1      49.034   7.307  17.666  0.00  0.00    +0.000 A 
ATOM     20  C   UNL     1      48.867   5.865  17.844  0.00  0.00    +0.000 A 
BRANCH  12  22
ATOM     21  C   UNL     1      47.111   4.407  15.176  0.00  0.00    +0.000 C 
ATOM     22  O   UNL     1      48.329   4.966  15.662  0.00  0.00    +0.000 OA
ENDBRANCH  12  22
ENDBRANCH   8  19
ENDBRANCH   7  10
ENDBRANCH   1   7
BRANCH   4  23
ATOM     23  C   UNL     1      44.341   6.875  11.328  0.00  0.00    +0.000 C 
BRANCH  23  24
ATOM     24  N   UNL     1      44.605   5.918  10.265  0.00  0.00    +0.000 NA
ATOM     25  H   UNL     1      45.596   5.733  10.158  0.00  0.00    +0.000 HD
BRANCH  24  26
ATOM     26  C   UNL     1      43.857   4.692  10.381  0.00  0.00    +0.000 C 
ATOM     27  C   UNL     1      43.579   4.298  11.839  0.00  0.00    +0.000 C 
ATOM     28  C   UNL     1      43.290   2.811  11.746  0.00  0.00    +0.000 C 
ATOM     29  C   UNL     1      44.191   2.340  10.614  0.00  0.00    +0.000 C 
ATOM     30  N   UNL     1      44.595   3.538   9.885  0.00  0.00    +0.000 N 
ATOM     31  C   UNL     1      45.280   3.504   8.681  0.00  0.00    +0.000 C 
ATOM     32  C   UNL     1      45.853   2.173   8.242  0.00  0.00    +0.000 C 
ATOM     33  O   UNL     1      45.488   4.490   7.974  0.00  0.00    +0.000 OA
ENDBRANCH  24  26
ENDBRANCH  23  24
ENDBRANCH   4  23
TORSDOF 7
ENDMDL
MODEL 3
REMARK VINA RESULT:    -7.035      2.579      3.304
REMARK INTER + INTRA:         -11.338
REMARK INTER:                 -10.115
REMARK INTRA:                  -1.223
REMARK UNBOUND:                -1.424
REMARK  Name = 
REMARK  9 active torsions:
REMARK  status: ('A' for Active; 'I' for Inactive)
REMARK    1  A    between atoms: C_1  and  O_2
REMARK    2  A    between atoms: O_2  and  C_3
REMARK    3  A    between atoms: C_10  and  C_11
REMARK    4  A    between atoms: N_13  and  C_14
REMARK    5  A    between atoms: C_14  and  C_15
REMARK    6  A    between atoms: C_18  and  C_19
REMARK    7  A    between atoms: C_19  and  N_20
REMARK    8  A    between atoms: N_20  and  C_21
REMARK    9  A    between atoms: C_26  and  C_27
REMARK                            x       y       z     vdW  Elec       q    Type
REMARK                         _______ _______ _______ _____ _____    ______ ____
ROOT
ATOM      1  C   UNL     1      47.714   6.400  13.425  0.00  0.00    +0.000 A 
ATOM      2  C   UNL     1      47.616   7.015  12.170  0.00  0.00    +0.000 A 
ATOM      3  C   UNL     1      46.600   6.654  11.277  0.00  0.00    +0.000 A 
ATOM      4  C   UNL     1      45.652   5.686  11.632  0.00  0.00    +0.000 A 
ATOM      5  C   UNL     1      45.735   5.092  12.899  0.00  0.00    +0.000 A 
ATOM      6  C   UNL     1      46.752   5.451  13.788  0.00  0.00    +0.000 A 
ENDROOT
BRANCH   1   7
ATOM      7  C   UNL     1      48.830   6.752  14.370  0.00  0.00    +0.000 C 
BRANCH   7  10
ATOM      8  C   UNL     1      48.973   6.284  16.773  0.00  0.00    +0.000 C 
ATOM      9  O   UNL     1      49.944   5.553  16.594  0.00  0.00    +0.000 OA
ATOM     10  N   UNL     1      48.353   6.905  15.723  0.00  0.00    +0.000 N 
ATOM     11  H   UNL     1      47.532   7.475  15.872  0.00  0.00    +0.000 HD
BRANCH   8  19
ATOM     12  C   UNL     1      47.811   9.100  18.395  0.00  0.00    +0.000 A 
ATOM     13  N   UNL     1      47.387  10.027  19.280  0.00  0.00    +0.000 NA
ATOM     14  C   UNL     1      47.112   9.631  20.525  0.00  0.00    +0.000 A 
ATOM     15  N   UNL     1      47.196   8.395  21.009  0.00  0.00    +0.000 NA
ATOM     16  C   UNL     1      47.631   7.506  20.102  0.00  0.00    +0.000 A 
ATOM     17  S   UNL     1      47.789   5.875  20.546  0.00  0.00    +0.000 S 
ATOM     18  C   UNL     1      48.362   5.461  18.999  0.00  0.00    +0.000 A 
ATOM     19  C   UNL     1      48.444   6.534  18.125  0.00  0.00    +0.000 A 
ATOM     20  C   UNL     1      47.981   7.757  18.778  0.00  0.00    +0.000 A 
BRANCH  12  22
ATOM     21  C   UNL     1      48.640  10.795  16.989  0.00  0.00    +0.000 C 
ATOM     22  O   UNL     1      48.058   9.498  17.097  0.00  0.00    +0.000 OA
ENDBRANCH  12  22
ENDBRANCH   8  19
ENDBRANCH   7  10
ENDBRANCH   1   7
BRANCH   4  23
ATOM     23  C   UNL     1      44.576   5.258  10.660  0.00  0.00    +0.000 C 
BRANCH  23  24
ATOM     24  N   UNL     1      45.128   4.963   9.347  0.00  0.00    +0.000 NA
ATOM     25  H   UNL     1      46.136   5.068   9.326  0.00  0.00    +0.000 HD
BRANCH  24  26
ATOM     26  C   UNL     1      44.728   3.684   8.816  0.00  0.00    +0.000 C 
ATOM     27  C   UNL     1      44.210   2.725   9.898  0.00  0.00    +0.000 C 
ATOM     28  C   UNL     1      44.360   1.360   9.250  0.00  0.00    +0.000 C 
ATOM     29  C   UNL     1      45.606   1.506   8.390  0.00  0.00    +0.000 C 
ATOM     30  N   UNL     1      45.846   2.939   8.253  0.00  0.00    +0.000 N 
ATOM     31  C   UNL     1      46.793   3.475   7.396  0.00  0.00    +0.000 C 
ATOM     32  C   UNL     1      47.790   2.522   6.772  0.00  0.00    +0.000 C 
ATOM     33  O   UNL     1      46.901   4.676   7.147  0.00  0.00    +0.000 OA
ENDBRANCH  24  26
ENDBRANCH  23  24
ENDBRANCH   4  23
TORSDOF 7
ENDMDL
MODEL 4
REMARK VINA RESULT:    -6.720      2.443      3.441
REMARK INTER + INTRA:         -10.894
REMARK INTER:                  -9.682
REMARK INTRA:                  -1.212
REMARK UNBOUND:                -1.424
REMARK  Name = 
REMARK  9 active torsions:
REMARK  status: ('A' for Active; 'I' for Inactive)
REMARK    1  A    between atoms: C_1  and  O_2
REMARK    2  A    between atoms: O_2  and  C_3
REMARK    3  A    between atoms: C_10  and  C_11
REMARK    4  A    between atoms: N_13  and  C_14
REMARK    5  A    between atoms: C_14  and  C_15
REMARK    6  A    between atoms: C_18  and  C_19
REMARK    7  A    between atoms: C_19  and  N_20
REMARK    8  A    between atoms: N_20  and  C_21
REMARK    9  A    between atoms: C_26  and  C_27
REMARK                            x       y       z     vdW  Elec       q    Type
REMARK                         _______ _______ _______ _____ _____    ______ ____
ROOT
ATOM      1  C   UNL     1      48.885   7.835  15.443  0.00  0.00    +0.000 A 
ATOM      2  C   UNL     1      48.567   6.551  14.982  0.00  0.00    +0.000 A 
ATOM      3  C   UNL     1      47.753   6.380  13.857  0.00  0.00    +0.000 A 
ATOM      4  C   UNL     1      47.259   7.490  13.160  0.00  0.00    +0.000 A 
ATOM      5  C   UNL     1      47.602   8.774  13.607  0.00  0.00    +0.000 A 
ATOM      6  C   UNL     1      48.412   8.943  14.732  0.00  0.00    +0.000 A 
ENDROOT
BRANCH   1   7
ATOM      7  C   UNL     1      49.724   8.024  16.678  0.00  0.00    +0.000 C 
BRANCH   7  10
ATOM      8  C   UNL     1      50.660   6.269  18.112  0.00  0.00    +0.000 C 
ATOM      9  O   UNL     1      49.978   6.650  19.060  0.00  0.00    +0.000 OA
ATOM     10  N   UNL     1      50.604   6.903  16.900  0.00  0.00    +0.000 N 
ATOM     11  H   UNL     1      51.194   6.608  16.135  0.00  0.00    +0.000 HD
BRANCH   8  19
ATOM     12  C   UNL     1      50.374   2.942  17.236  0.00  0.00    +0.000 A 
ATOM     13  N   UNL     1      50.507   1.609  17.077  0.00  0.00    +0.000 NA
ATOM     14  C   UNL     1      51.628   1.029  17.512  0.00  0.00    +0.000 A 
ATOM     15  N   UNL     1      52.666   1.628  18.090  0.00  0.00    +0.000 NA
ATOM     16  C   UNL     1      52.491   2.951  18.241  0.00  0.00    +0.000 A 
ATOM     17  S   UNL     1      53.722   3.877  18.954  0.00  0.00    +0.000 S 
ATOM     18  C   UNL     1      52.797   5.298  18.815  0.00  0.00    +0.000 A 
ATOM     19  C   UNL     1      51.554   5.104  18.234  0.00  0.00    +0.000 A 
ATOM     20  C   UNL     1      51.378   3.700  17.866  0.00  0.00    +0.000 A 
BRANCH  12  22
ATOM     21  C   UNL     1      48.024   2.901  17.132  0.00  0.00    +0.000 C 
ATOM     22  O   UNL     1      49.234   3.551  16.752  0.00  0.00    +0.000 OA
ENDBRANCH  12  22
ENDBRANCH   8  19
ENDBRANCH   7  10
ENDBRANCH   1   7
BRANCH   4  23
ATOM     23  C   UNL     1      46.345   7.319  11.969  0.00  0.00    +0.000 C 
BRANCH  23  24
ATOM     24  N   UNL     1      46.288   5.931  11.534  0.00  0.00    +0.000 NA
ATOM     25  H   UNL     1      46.898   5.336  12.082  0.00  0.00    +0.000 HD
BRANCH  24  26
ATOM     26  C   UNL     1      44.953   5.390  11.473  0.00  0.00    +0.000 C 
ATOM     27  C   UNL     1      44.540   4.674  12.767  0.00  0.00    +0.000 C 
ATOM     28  C   UNL     1      43.406   3.771  12.315  0.00  0.00    +0.000 C 
ATOM     29  C   UNL     1      43.800   3.381  10.898  0.00  0.00    +0.000 C 
ATOM     30  N   UNL     1      44.825   4.333  10.480  0.00  0.00    +0.000 N 
ATOM     31  C   UNL     1      45.309   4.411   9.184  0.00  0.00    +0.000 C 
ATOM     32  C   UNL     1      44.943   3.291   8.233  0.00  0.00    +0.000 C 
ATOM     33  O   UNL     1      46.050   5.305   8.775  0.00  0.00    +0.000 OA
ENDBRANCH  24  26
ENDBRANCH  23  24
ENDBRANCH   4  23
TORSDOF 7
ENDMDL
MODEL 5
REMARK VINA RESULT:    -6.418      2.302      3.536
REMARK INTER + INTRA:         -10.469
REMARK INTER:                  -9.334
REMARK INTRA:                  -1.135
REMARK UNBOUND:                -1.424
REMARK  Name = 
REMARK  9 active torsions:
REMARK  status: ('A' for Active; 'I' for Inactive)
REMARK    1  A    between atoms: C_1  and  O_2
REMARK    2  A    between atoms: O_2  and  C_3
REMARK    3  A    between atoms: C_10  and  C_11
REMARK    4  A    between atoms: N_13  and  C_14
REMARK    5  A    between atoms: C_14  and  C_15
REMARK    6  A    between atoms: C_18  and  C_19
REMARK    7  A    between atoms: C_19  and  N_20
REMARK    8  A    between atoms: N_20  and  C_21
REMARK    9  A    between atoms: C_26  and  C_27
REMARK                            x       y       z     vdW  Elec       q    Type
REMARK                         _______ _______ _______ _____ _____    ______ ____
ROOT
ATOM      1  C   UNL     1      48.531   8.034  13.599  0.00  0.00    +0.000 A 
ATOM      2  C   UNL     1      48.438   7.061  12.595  0.00  0.00    +0.000 A 
ATOM      3  C   UNL     1      47.252   6.894  11.873  0.00  0.00    +0.000 A 
ATOM      4  C   UNL     1      46.143   7.711  12.126  0.00  0.00    +0.000 A 
ATOM      5  C   UNL     1      46.246   8.703  13.112  0.00  0.00    +0.000 A 
ATOM      6  C   UNL     1      47.430   8.866  13.835  0.00  0.00    +0.000 A 
ENDROOT
BRANCH   1   7
ATOM      7  C   UNL     1      49.789   8.188  14.409  0.00  0.00    +0.000 C 
BRANCH   7  10
ATOM      8  C   UNL     1      49.801   6.730  16.379  0.00  0.00    +0.000 C 
ATOM      9  O   UNL     1      49.195   7.574  17.035  0.00  0.00    +0.000 OA
ATOM     10  N   UNL     1      50.147   6.960  15.076  0.00  0.00    +0.000 N 
ATOM     11  H   UNL     1      50.677   6.278  14.554  0.00  0.00    +0.000 HD
BRANCH   8  19
ATOM     12  C   UNL     1      52.796   5.309  17.344  0.00  0.00    +0.000 A 
ATOM     13  N   UNL     1      53.802   4.494  17.725  0.00  0.00    +0.000 NA
ATOM     14  C   UNL     1      53.496   3.255  18.120  0.00  0.00    +0.000 A 
ATOM     15  N   UNL     1      52.283   2.716  18.196  0.00  0.00    +0.000 NA
ATOM     16  C   UNL     1      51.311   3.554  17.799  0.00  0.00    +0.000 A 
ATOM     17  S   UNL     1      49.695   3.033  17.840  0.00  0.00    +0.000 S 
ATOM     18  C   UNL     1      49.152   4.519  17.215  0.00  0.00    +0.000 A 
ATOM     19  C   UNL     1      50.168   5.429  16.965  0.00  0.00    +0.000 A 
ATOM     20  C   UNL     1      51.462   4.860  17.339  0.00  0.00    +0.000 A 
BRANCH  12  22
ATOM     21  C   UNL     1      53.714   6.707  15.690  0.00  0.00    +0.000 C 
ATOM     22  O   UNL     1      53.103   6.602  16.973  0.00  0.00    +0.000 OA
ENDBRANCH  12  22
ENDBRANCH   8  19
ENDBRANCH   7  10
ENDBRANCH   1   7
BRANCH   4  23
ATOM     23  C   UNL     1      44.842   7.512  11.382  0.00  0.00    +0.000 C 
BRANCH  23  24
ATOM     24  N   UNL     1      44.868   6.301  10.576  0.00  0.00    +0.000 NA
ATOM     25  H   UNL     1      45.805   5.928  10.480  0.00  0.00    +0.000 HD
BRANCH  24  26
ATOM     26  C   UNL     1      43.948   5.283  11.019  0.00  0.00    +0.000 C 
ATOM     27  C   UNL     1      43.922   5.126  12.546  0.00  0.00    +0.000 C 
ATOM     28  C   UNL     1      43.350   3.733  12.741  0.00  0.00    +0.000 C 
ATOM     29  C   UNL     1      43.883   2.956  11.546  0.00  0.00    +0.000 C 
ATOM     30  N   UNL     1      44.335   3.950  10.578  0.00  0.00    +0.000 N 
ATOM     31  C   UNL     1      44.726   3.634   9.287  0.00  0.00    +0.000 C 
ATOM     32  C   UNL     1      44.934   2.171   8.958  0.00  0.00    +0.000 C 
ATOM     33  O   UNL     1      44.956   4.467   8.410  0.00  0.00    +0.000 OA
ENDBRANCH  24  26
ENDBRANCH  23  24
ENDBRANCH   4  23
TORSDOF 7
ENDMDL
MODEL 6
REMARK VINA RESULT:    -6.290      3.472      8.086
REMARK INTER + INTRA:         -10.288
REMARK INTER:                  -8.594
REMARK INTRA:                  -1.694
REMARK UNBOUND:                -1.424
REMARK  Name = 
REMARK  9 active torsions:
REMARK  status: ('A' for Active; 'I' for Inactive)
REMARK    1  A    between atoms: C_1  and  O_2
REMARK    2  A    between atoms: O_2  and  C_3
REMARK    3  A    between atoms: C_10  and  C_11
REMARK    4  A    between atoms: N_13  and  C_14
REMARK    5  A    between atoms: C_14  and  C_15
REMARK    6  A    between atoms: C_18  and  C_19
REMARK    7  A    between atoms: C_19  and  N_20
REMARK    8  A    between atoms: N_20  and  C_21
REMARK    9  A    between atoms: C_26  and  C_27
REMARK                            x       y       z     vdW  Elec       q    Type
REMARK                         _______ _______ _______ _____ _____    ______ ____
ROOT
ATOM      1  C   UNL     1      48.649   8.550  14.792  0.00  0.00    +0.000 A 
ATOM      2  C   UNL     1      48.284   9.143  16.008  0.00  0.00    +0.000 A 
ATOM      3  C   UNL     1      48.800   8.664  17.217  0.00  0.00    +0.000 A 
ATOM      4  C   UNL     1      49.707   7.597  17.230  0.00  0.00    +0.000 A 
ATOM      5  C   UNL     1      50.093   7.023  16.011  0.00  0.00    +0.000 A 
ATOM      6  C   UNL     1      49.574   7.500  14.804  0.00  0.00    +0.000 A 
ENDROOT
BRANCH   1   7
ATOM      7  C   UNL     1      48.062   9.032  13.493  0.00  0.00    +0.000 C 
BRANCH   7  10
ATOM      8  C   UNL     1      46.777   7.382  12.214  0.00  0.00    +0.000 C 
ATOM      9  O   UNL     1      47.774   7.079  11.563  0.00  0.00    +0.000 OA
ATOM     10  N   UNL     1      46.830   8.350  13.179  0.00  0.00    +0.000 N 
ATOM     11  H   UNL     1      46.000   8.621  13.685  0.00  0.00    +0.000 HD
BRANCH   8  19
ATOM     12  C   UNL     1      45.643   4.170  12.769  0.00  0.00    +0.000 A 
ATOM     13  N   UNL     1      44.968   3.001  12.804  0.00  0.00    +0.000 NA
ATOM     14  C   UNL     1      43.720   2.978  12.329  0.00  0.00    +0.000 A 
ATOM     15  N   UNL     1      43.038   4.001  11.822  0.00  0.00    +0.000 NA
ATOM     16  C   UNL     1      43.747   5.141  11.795  0.00  0.00    +0.000 A 
ATOM     17  S   UNL     1      43.027   6.554  11.186  0.00  0.00    +0.000 S 
ATOM     18  C   UNL     1      44.450   7.447  11.447  0.00  0.00    +0.000 A 
ATOM     19  C   UNL     1      45.487   6.706  11.992  0.00  0.00    +0.000 A 
ATOM     20  C   UNL     1      45.058   5.328  12.226  0.00  0.00    +0.000 A 
BRANCH  12  22
ATOM     21  C   UNL     1      46.967   4.587  14.669  0.00  0.00    +0.000 C 
ATOM     22  O   UNL     1      46.918   4.207  13.295  0.00  0.00    +0.000 OA
ENDBRANCH  12  22
ENDBRANCH   8  19
ENDBRANCH   7  10
ENDBRANCH   1   7
BRANCH   4  23
ATOM     23  C   UNL     1      50.239   7.043  18.533  0.00  0.00    +0.000 C 
BRANCH  23  24
ATOM     24  N   UNL     1      49.551   5.819  18.913  0.00  0.00    +0.000 NA
ATOM     25  H   UNL     1      48.761   5.624  18.310  0.00  0.00    +0.000 HD
BRANCH  24  26
ATOM     26  C   UNL     1      50.416   4.671  19.024  0.00  0.00    +0.000 C 
ATOM     27  C   UNL     1      51.900   5.022  18.839  0.00  0.00    +0.000 C 
ATOM     28  C   UNL     1      52.526   3.690  18.467  0.00  0.00    +0.000 C 
ATOM     29  C   UNL     1      51.435   2.990  17.671  0.00  0.00    +0.000 C 
ATOM     30  N   UNL     1      50.193   3.700  17.962  0.00  0.00    +0.000 N 
ATOM     31  C   UNL     1      48.946   3.252  17.558  0.00  0.00    +0.000 C 
ATOM     32  C   UNL     1      48.902   2.119  16.555  0.00  0.00    +0.000 C 
ATOM     33  O   UNL     1      47.881   3.745  17.927  0.00  0.00    +0.000 OA
ENDBRANCH  24  26
ENDBRANCH  23  24
ENDBRANCH   4  23
TORSDOF 7
ENDMDL
MODEL 7
REMARK VINA RESULT:    -6.187      2.019      2.915
REMARK INTER + INTRA:         -10.143
REMARK INTER:                  -9.068
REMARK INTRA:                  -1.075
REMARK UNBOUND:                -1.424
REMARK  Name = 
REMARK  9 active torsions:
REMARK  status: ('A' for Active; 'I' for Inactive)
REMARK    1  A    between atoms: C_1  and  O_2
REMARK    2  A    between atoms: O_2  and  C_3
REMARK    3  A    between atoms: C_10  and  C_11
REMARK    4  A    between atoms: N_13  and  C_14
REMARK    5  A    between atoms: C_14  and  C_15
REMARK    6  A    between atoms: C_18  and  C_19
REMARK    7  A    between atoms: C_19  and  N_20
REMARK    8  A    between atoms: N_20  and  C_21
REMARK    9  A    between atoms: C_26  and  C_27
REMARK                            x       y       z     vdW  Elec       q    Type
REMARK                         _______ _______ _______ _____ _____    ______ ____
ROOT
ATOM      1  C   UNL     1      47.320   6.827  13.590  0.00  0.00    +0.000 A 
ATOM      2  C   UNL     1      46.893   5.493  13.600  0.00  0.00    +0.000 A 
ATOM      3  C   UNL     1      45.985   5.029  12.642  0.00  0.00    +0.000 A 
ATOM      4  C   UNL     1      45.505   5.884  11.642  0.00  0.00    +0.000 A 
ATOM      5  C   UNL     1      45.956   7.212  11.616  0.00  0.00    +0.000 A 
ATOM      6  C   UNL     1      46.860   7.675  12.576  0.00  0.00    +0.000 A 
ENDROOT
BRANCH   1   7
ATOM      7  C   UNL     1      48.261   7.343  14.644  0.00  0.00    +0.000 C 
BRANCH   7  10
ATOM      8  C   UNL     1      49.060   6.041  16.561  0.00  0.00    +0.000 C 
ATOM      9  O   UNL     1      48.407   6.738  17.334  0.00  0.00    +0.000 OA
ATOM     10  N   UNL     1      49.054   6.282  15.215  0.00  0.00    +0.000 N 
ATOM     11  H   UNL     1      49.622   5.729  14.589  0.00  0.00    +0.000 HD
BRANCH   8  19
ATOM     12  C   UNL     1      52.398   5.649  17.347  0.00  0.00    +0.000 A 
ATOM     13  N   UNL     1      53.634   5.196  17.646  0.00  0.00    +0.000 NA
ATOM     14  C   UNL     1      53.774   3.908  17.968  0.00  0.00    +0.000 A 
ATOM     15  N   UNL     1      52.812   2.992  18.043  0.00  0.00    +0.000 NA
ATOM     16  C   UNL     1      51.600   3.479  17.728  0.00  0.00    +0.000 A 
ATOM     17  S   UNL     1      50.251   2.449  17.780  0.00  0.00    +0.000 S 
ATOM     18  C   UNL     1      49.219   3.700  17.269  0.00  0.00    +0.000 A 
ATOM     19  C   UNL     1      49.863   4.907  17.051  0.00  0.00    +0.000 A 
ATOM     20  C   UNL     1      51.289   4.783  17.351  0.00  0.00    +0.000 A 
BRANCH  12  22
ATOM     21  C   UNL     1      52.709   7.354  15.757  0.00  0.00    +0.000 C 
ATOM     22  O   UNL     1      52.243   6.988  17.053  0.00  0.00    +0.000 OA
ENDBRANCH  12  22
ENDBRANCH   8  19
ENDBRANCH   7  10
ENDBRANCH   1   7
BRANCH   4  23
ATOM     23  C   UNL     1      44.493   5.406  10.627  0.00  0.00    +0.000 C 
BRANCH  23  24
ATOM     24  N   UNL     1      45.129   5.033   9.373  0.00  0.00    +0.000 NA
ATOM     25  H   UNL     1      46.139   5.099   9.424  0.00  0.00    +0.000 HD
BRANCH  24  26
ATOM     26  C   UNL     1      44.718   3.748   8.866  0.00  0.00    +0.000 C 
ATOM     27  C   UNL     1      44.216   2.805   9.969  0.00  0.00    +0.000 C 
ATOM     28  C   UNL     1      44.353   1.431   9.338  0.00  0.00    +0.000 C 
ATOM     29  C   UNL     1      45.585   1.562   8.455  0.00  0.00    +0.000 C 
ATOM     30  N   UNL     1      45.825   2.993   8.294  0.00  0.00    +0.000 N 
ATOM     31  C   UNL     1      46.758   3.516   7.414  0.00  0.00    +0.000 C 
ATOM     32  C   UNL     1      47.743   2.552   6.787  0.00  0.00    +0.000 C 
ATOM     33  O   UNL     1      46.864   4.713   7.147  0.00  0.00    +0.000 OA
ENDBRANCH  24  26
ENDBRANCH  23  24
ENDBRANCH   4  23
TORSDOF 7
ENDMDL
MODEL 8
REMARK VINA RESULT:    -6.137      2.023      2.888
REMARK INTER + INTRA:         -10.073
REMARK INTER:                  -8.941
REMARK INTRA:                  -1.132
REMARK UNBOUND:                -1.424
REMARK  Name = 
REMARK  9 active torsions:
REMARK  status: ('A' for Active; 'I' for Inactive)
REMARK    1  A    between atoms: C_1  and  O_2
REMARK    2  A    between atoms: O_2  and  C_3
REMARK    3  A    between atoms: C_10  and  C_11
REMARK    4  A    between atoms: N_13  and  C_14
REMARK    5  A    between atoms: C_14  and  C_15
REMARK    6  A    between atoms: C_18  and  C_19
REMARK    7  A    between atoms: C_19  and  N_20
REMARK    8  A    between atoms: N_20  and  C_21
REMARK    9  A    between atoms: C_26  and  C_27
REMARK                            x       y       z     vdW  Elec       q    Type
REMARK                         _______ _______ _______ _____ _____    ______ ____
ROOT
ATOM      1  C   UNL     1      49.071   8.398  12.892  0.00  0.00    +0.000 A 
ATOM      2  C   UNL     1      47.955   8.714  13.678  0.00  0.00    +0.000 A 
ATOM      3  C   UNL     1      46.680   8.267  13.316  0.00  0.00    +0.000 A 
ATOM      4  C   UNL     1      46.500   7.478  12.173  0.00  0.00    +0.000 A 
ATOM      5  C   UNL     1      47.622   7.140  11.403  0.00  0.00    +0.000 A 
ATOM      6  C   UNL     1      48.894   7.589  11.764  0.00  0.00    +0.000 A 
ENDROOT
BRANCH   1   7
ATOM      7  C   UNL     1      50.438   8.913  13.252  0.00  0.00    +0.000 C 
BRANCH   7  10
ATOM      8  C   UNL     1      51.363   8.040  15.348  0.00  0.00    +0.000 C 
ATOM      9  O   UNL     1      50.892   8.986  15.975  0.00  0.00    +0.000 OA
ATOM     10  N   UNL     1      51.197   7.936  13.994  0.00  0.00    +0.000 N 
ATOM     11  H   UNL     1      51.618   7.176  13.479  0.00  0.00    +0.000 HD
BRANCH   8  19
ATOM     12  C   UNL     1      50.488   5.577  17.602  0.00  0.00    +0.000 A 
ATOM     13  N   UNL     1      50.449   4.591  18.523  0.00  0.00    +0.000 NA
ATOM     14  C   UNL     1      51.590   3.970  18.832  0.00  0.00    +0.000 A 
ATOM     15  N   UNL     1      52.794   4.206  18.317  0.00  0.00    +0.000 NA
ATOM     16  C   UNL     1      52.792   5.199  17.414  0.00  0.00    +0.000 A 
ATOM     17  S   UNL     1      54.245   5.629  16.647  0.00  0.00    +0.000 S 
ATOM     18  C   UNL     1      53.470   6.860  15.766  0.00  0.00    +0.000 A 
ATOM     19  C   UNL     1      52.114   6.972  16.030  0.00  0.00    +0.000 A 
ATOM     20  C   UNL     1      51.700   5.958  16.999  0.00  0.00    +0.000 A 
BRANCH  12  22
ATOM     21  C   UNL     1      48.449   5.389  16.442  0.00  0.00    +0.000 C 
ATOM     22  O   UNL     1      49.304   6.194  17.251  0.00  0.00    +0.000 OA
ENDBRANCH  12  22
ENDBRANCH   8  19
ENDBRANCH   7  10
ENDBRANCH   1   7
BRANCH   4  23
ATOM     23  C   UNL     1      45.122   7.024  11.749  0.00  0.00    +0.000 C 
BRANCH  23  24
ATOM     24  N   UNL     1      45.180   6.162  10.579  0.00  0.00    +0.000 NA
ATOM     25  H   UNL     1      46.114   5.807  10.414  0.00  0.00    +0.000 HD
BRANCH  24  26
ATOM     26  C   UNL     1      44.213   5.092  10.591  0.00  0.00    +0.000 C 
ATOM     27  C   UNL     1      43.881   4.604  12.009  0.00  0.00    +0.000 C 
ATOM     28  C   UNL     1      43.314   3.216  11.772  0.00  0.00    +0.000 C 
ATOM     29  C   UNL     1      44.098   2.708  10.571  0.00  0.00    +0.000 C 
ATOM     30  N   UNL     1      44.714   3.880   9.957  0.00  0.00    +0.000 N 
ATOM     31  C   UNL     1      45.366   3.847   8.735  0.00  0.00    +0.000 C 
ATOM     32  C   UNL     1      45.672   2.486   8.144  0.00  0.00    +0.000 C 
ATOM     33  O   UNL     1      45.750   4.846   8.128  0.00  0.00    +0.000 OA
ENDBRANCH  24  26
ENDBRANCH  23  24
ENDBRANCH   4  23
TORSDOF 7
ENDMDL
MODEL 9
REMARK VINA RESULT:    -6.069      2.193      3.867
REMARK INTER + INTRA:          -9.977
REMARK INTER:                  -9.126
REMARK INTRA:                  -0.851
REMARK UNBOUND:                -1.424
REMARK  Name = 
REMARK  9 active torsions:
REMARK  status: ('A' for Active; 'I' for Inactive)
REMARK    1  A    between atoms: C_1  and  O_2
REMARK    2  A    between atoms: O_2  and  C_3
REMARK    3  A    between atoms: C_10  and  C_11
REMARK    4  A    between atoms: N_13  and  C_14
REMARK    5  A    between atoms: C_14  and  C_15
REMARK    6  A    between atoms: C_18  and  C_19
REMARK    7  A    between atoms: C_19  and  N_20
REMARK    8  A    between atoms: N_20  and  C_21
REMARK    9  A    between atoms: C_26  and  C_27
REMARK                            x       y       z     vdW  Elec       q    Type
REMARK                         _______ _______ _______ _____ _____    ______ ____
ROOT
ATOM      1  C   UNL     1      46.963   5.271  13.779  0.00  0.00    +0.000 A 
ATOM      2  C   UNL     1      46.076   4.228  13.481  0.00  0.00    +0.000 A 
ATOM      3  C   UNL     1      45.296   4.267  12.321  0.00  0.00    +0.000 A 
ATOM      4  C   UNL     1      45.404   5.338  11.425  0.00  0.00    +0.000 A 
ATOM      5  C   UNL     1      46.313   6.367  11.710  0.00  0.00    +0.000 A 
ATOM      6  C   UNL     1      47.089   6.329  12.871  0.00  0.00    +0.000 A 
ENDROOT
BRANCH   1   7
ATOM      7  C   UNL     1      47.772   5.257  15.047  0.00  0.00    +0.000 C 
BRANCH   7  10
ATOM      8  C   UNL     1      49.480   6.690  16.066  0.00  0.00    +0.000 C 
ATOM      9  O   UNL     1      50.063   5.708  16.520  0.00  0.00    +0.000 OA
ATOM     10  N   UNL     1      48.330   6.555  15.337  0.00  0.00    +0.000 N 
ATOM     11  H   UNL     1      47.835   7.367  14.998  0.00  0.00    +0.000 HD
BRANCH   8  19
ATOM     12  C   UNL     1      50.290   9.283  13.937  0.00  0.00    +0.000 A 
ATOM     13  N   UNL     1      50.749  10.410  13.353  0.00  0.00    +0.000 NA
ATOM     14  C   UNL     1      51.244  11.371  14.136  0.00  0.00    +0.000 A 
ATOM     15  N   UNL     1      51.331  11.356  15.463  0.00  0.00    +0.000 NA
ATOM     16  C   UNL     1      50.875  10.216  16.005  0.00  0.00    +0.000 A 
ATOM     17  S   UNL     1      50.902  10.028  17.693  0.00  0.00    +0.000 S 
ATOM     18  C   UNL     1      50.251   8.460  17.575  0.00  0.00    +0.000 A 
ATOM     19  C   UNL     1      50.003   8.051  16.274  0.00  0.00    +0.000 A 
ATOM     20  C   UNL     1      50.353   9.114  15.332  0.00  0.00    +0.000 A 
BRANCH  12  22
ATOM     21  C   UNL     1      50.430   8.114  11.900  0.00  0.00    +0.000 C 
ATOM     22  O   UNL     1      49.742   8.304  13.134  0.00  0.00    +0.000 OA
ENDBRANCH  12  22
ENDBRANCH   8  19
ENDBRANCH   7  10
ENDBRANCH   1   7
BRANCH   4  23
ATOM     23  C   UNL     1      44.536   5.411  10.189  0.00  0.00    +0.000 C 
BRANCH  23  24
ATOM     24  N   UNL     1      45.251   4.956   9.007  0.00  0.00    +0.000 NA
ATOM     25  H   UNL     1      46.256   5.012   9.124  0.00  0.00    +0.000 HD
BRANCH  24  26
ATOM     26  C   UNL     1      44.854   3.647   8.549  0.00  0.00    +0.000 C 
ATOM     27  C   UNL     1      44.286   2.770   9.674  0.00  0.00    +0.000 C 
ATOM     28  C   UNL     1      44.442   1.362   9.126  0.00  0.00    +0.000 C 
ATOM     29  C   UNL     1      45.720   1.437   8.304  0.00  0.00    +0.000 C 
ATOM     30  N   UNL     1      45.982   2.855   8.079  0.00  0.00    +0.000 N 
ATOM     31  C   UNL     1      46.965   3.322   7.222  0.00  0.00    +0.000 C 
ATOM     32  C   UNL     1      47.972   2.318   6.701  0.00  0.00    +0.000 C 
ATOM     33  O   UNL     1      47.097   4.502   6.897  0.00  0.00    +0.000 OA
ENDBRANCH  24  26
ENDBRANCH  23  24
ENDBRANCH   4  23
TORSDOF 7
ENDMDL
