MODEL 1
REMARK VINA RESULT:    -7.947      0.000      0.000
REMARK INTER + INTRA:         -11.123
REMARK INTER:                 -10.503
REMARK INTRA:                  -0.621
REMARK UNBOUND:                -0.621
REMARK  Name = 
REMARK  6 active torsions:
REMARK  status: ('A' for Active; 'I' for Inactive)
REMARK    1  A    between atoms: N_1  and  C_2
REMARK    2  A    between atoms: C_2  and  C_3
REMARK    3  A    between atoms: C_6  and  O_7
REMARK    4  A    between atoms: O_7  and  C_8
REMARK    5  A    between atoms: C_8  and  C_9
REMARK    6  A    between atoms: C_12  and  C_13
REMARK                            x       y       z     vdW  Elec       q    Type
REMARK                         _______ _______ _______ _____ _____    ______ ____
ROOT
ATOM      1  O   UNL     1      44.567   5.819  10.867  0.00  0.00    +0.000 OA
ENDROOT
BRANCH   1   5
ATOM      2  C   UNL     1      46.688   4.768  14.242  0.00  0.00    +0.000 A 
ATOM      3  C   UNL     1      47.284   5.683  13.378  0.00  0.00    +0.000 A 
ATOM      4  C   UNL     1      46.607   6.082  12.224  0.00  0.00    +0.000 A 
ATOM      5  C   UNL     1      45.349   5.552  11.953  0.00  0.00    +0.000 A 
ATOM      6  C   UNL     1      44.826   4.654  12.876  0.00  0.00    +0.000 A 
ATOM      7  N   UNL     1      45.456   4.253  14.008  0.00  0.00    +0.000 NA
BRANCH   2   8
ATOM      8  C   UNL     1      47.420   4.294  15.480  0.00  0.00    +0.000 C 
BRANCH   8   9
ATOM      9  N   UNL     1      47.854   2.895  15.391  0.00  0.00    +0.000 NA
ATOM     10  H   UNL     1      48.479   2.804  14.593  0.00  0.00    +0.000 HD
ATOM     11  H   UNL     1      47.034   2.329  15.165  0.00  0.00    +0.000 HD
ENDBRANCH   8   9
ENDBRANCH   2   8
ENDBRANCH   1   5
BRANCH   1  12
ATOM     12  C   UNL     1      43.766   4.749  10.374  0.00  0.00    +0.000 C 
BRANCH  12  13
ATOM     13  C   UNL     1      44.617   3.901   9.461  0.00  0.00    +0.000 A 
ATOM     14  C   UNL     1      45.370   4.494   8.439  0.00  0.00    +0.000 A 
ATOM     15  C   UNL     1      46.171   3.713   7.602  0.00  0.00    +0.000 A 
ATOM     16  C   UNL     1      46.227   2.321   7.765  0.00  0.00    +0.000 A 
ATOM     17  C   UNL     1      45.449   1.725   8.769  0.00  0.00    +0.000 A 
ATOM     18  C   UNL     1      44.647   2.507   9.606  0.00  0.00    +0.000 A 
BRANCH  16  19
ATOM     19  C   UNL     1      47.110   1.469   6.886  0.00  0.00    +0.000 C 
ATOM     20  F   UNL     1      46.762   0.152   6.877  0.00  0.00    +0.000 F 
ATOM     21  F   UNL     1      47.083   1.868   5.584  0.00  0.00    +0.000 F 
ATOM     22  F   UNL     1      48.418   1.506   7.262  0.00  0.00    +0.000 F 
ENDBRANCH  16  19
ENDBRANCH  12  13
ENDBRANCH   1  12
TORSDOF 6
ENDMDL
MODEL 2
REMARK VINA RESULT:    -7.663      1.511      1.919
REMARK INTER + INTRA:         -10.748
REMARK INTER:                 -10.043
REMARK INTRA:                  -0.705
REMARK UNBOUND:                -0.621
REMARK  Name = 
REMARK  6 active torsions:
REMARK  status: ('A' for Active; 'I' for Inactive)
REMARK    1  A    between atoms: N_1  and  C_2
REMARK    2  A    between atoms: C_2  and  C_3
REMARK    3  A    between atoms: C_6  and  O_7
REMARK    4  A    between atoms: O_7  and  C_8
REMARK    5  A    between atoms: C_8  and  C_9
REMARK    6  A    between atoms: C_12  and  C_13
REMARK                            x       y       z     vdW  Elec       q    Type
REMARK                         _______ _______ _______ _____ _____    ______ ____
ROOT
ATOM      1  O   UNL     1      44.366   3.890  12.027  0.00  0.00    +0.000 OA
ENDROOT
BRANCH   1   5
ATOM      2  C   UNL     1      47.456   6.142  13.567  0.00  0.00    +0.000 A 
ATOM      3  C   UNL     1      46.502   6.812  12.804  0.00  0.00    +0.000 A 
ATOM      4  C   UNL     1      45.429   6.100  12.265  0.00  0.00    +0.000 A 
ATOM      5  C   UNL     1      45.333   4.731  12.494  0.00  0.00    +0.000 A 
ATOM      6  C   UNL     1      46.324   4.148  13.276  0.00  0.00    +0.000 A 
ATOM      7  N   UNL     1      47.374   4.812  13.818  0.00  0.00    +0.000 NA
BRANCH   2   8
ATOM      8  C   UNL     1      48.648   6.888  14.129  0.00  0.00    +0.000 C 
BRANCH   8   9
ATOM      9  N   UNL     1      49.766   6.980  13.185  0.00  0.00    +0.000 NA
ATOM     10  H   UNL     1      50.285   6.104  13.216  0.00  0.00    +0.000 HD
ATOM     11  H   UNL     1      50.409   7.693  13.531  0.00  0.00    +0.000 HD
ENDBRANCH   8   9
ENDBRANCH   2   8
ENDBRANCH   1   5
BRANCH   1  12
ATOM     12  C   UNL     1      43.775   4.223  10.774  0.00  0.00    +0.000 C 
BRANCH  12  13
ATOM     13  C   UNL     1      44.653   3.679   9.674  0.00  0.00    +0.000 A 
ATOM     14  C   UNL     1      45.299   4.549   8.786  0.00  0.00    +0.000 A 
ATOM     15  C   UNL     1      46.125   4.049   7.777  0.00  0.00    +0.000 A 
ATOM     16  C   UNL     1      46.315   2.667   7.630  0.00  0.00    +0.000 A 
ATOM     17  C   UNL     1      45.644   1.796   8.502  0.00  0.00    +0.000 A 
ATOM     18  C   UNL     1      44.816   2.297   9.511  0.00  0.00    +0.000 A 
BRANCH  16  19
ATOM     19  C   UNL     1      47.227   2.115   6.562  0.00  0.00    +0.000 C 
ATOM     20  F   UNL     1      48.543   2.403   6.767  0.00  0.00    +0.000 F 
ATOM     21  F   UNL     1      47.155   0.758   6.470  0.00  0.00    +0.000 F 
ATOM     22  F   UNL     1      46.931   2.591   5.321  0.00  0.00    +0.000 F 
ENDBRANCH  16  19
ENDBRANCH  12  13
ENDBRANCH   1  12
TORSDOF 6
ENDMDL
MODEL 3
REMARK VINA RESULT:    -7.286      4.214      6.567
REMARK INTER + INTRA:         -10.250
REMARK INTER:                  -9.585
REMARK INTRA:                  -0.665
REMARK UNBOUND:                -0.621
REMARK  Name = 
REMARK  6 active torsions:
REMARK  status: ('A' for Active; 'I' for Inactive)
REMARK    1  A    between atoms: N_1  and  C_2
REMARK    2  A    between atoms: C_2  and  C_3
REMARK    3  A    between atoms: C_6  and  O_7
REMARK    4  A    between atoms: O_7  and  C_8
REMARK    5  A    between atoms: C_8  and  C_9
REMARK    6  A    between atoms: C_12  and  C_13
REMARK                            x       y       z     vdW  Elec       q    Type
REMARK                         _______ _______ _______ _____ _____    ______ ____
ROOT
ATOM      1  O   UNL     1      43.687   4.451   9.795  0.00  0.00    +0.000 OA
ENDROOT
BRANCH   1   5
ATOM      2  C   UNL     1      46.429   2.058   7.859  0.00  0.00    +0.000 A 
ATOM      3  C   UNL     1      46.450   3.418   7.557  0.00  0.00    +0.000 A 
ATOM      4  C   UNL     1      45.549   4.276   8.190  0.00  0.00    +0.000 A 
ATOM      5  C   UNL     1      44.640   3.758   9.108  0.00  0.00    +0.000 A 
ATOM      6  C   UNL     1      44.699   2.391   9.356  0.00  0.00    +0.000 A 
ATOM      7  N   UNL     1      45.565   1.534   8.763  0.00  0.00    +0.000 NA
BRANCH   2   8
ATOM      8  C   UNL     1      47.372   1.103   7.157  0.00  0.00    +0.000 C 
BRANCH   8   9
ATOM      9  N   UNL     1      48.279   1.776   6.221  0.00  0.00    +0.000 NA
ATOM     10  H   UNL     1      49.176   1.295   6.243  0.00  0.00    +0.000 HD
ATOM     11  H   UNL     1      48.460   2.714   6.582  0.00  0.00    +0.000 HD
ENDBRANCH   8   9
ENDBRANCH   2   8
ENDBRANCH   1   5
BRANCH   1  12
ATOM     12  C   UNL     1      43.583   4.188  11.191  0.00  0.00    +0.000 C 
BRANCH  12  13
ATOM     13  C   UNL     1      44.745   4.851  11.889  0.00  0.00    +0.000 A 
ATOM     14  C   UNL     1      45.559   4.118  12.764  0.00  0.00    +0.000 A 
ATOM     15  C   UNL     1      46.644   4.725  13.399  0.00  0.00    +0.000 A 
ATOM     16  C   UNL     1      46.934   6.080  13.179  0.00  0.00    +0.000 A 
ATOM     17  C   UNL     1      46.100   6.819  12.325  0.00  0.00    +0.000 A 
ATOM     18  C   UNL     1      45.013   6.212  11.691  0.00  0.00    +0.000 A 
BRANCH  16  19
ATOM     19  C   UNL     1      48.121   6.739  13.836  0.00  0.00    +0.000 C 
ATOM     20  F   UNL     1      49.245   6.733  13.066  0.00  0.00    +0.000 F 
ATOM     21  F   UNL     1      47.886   8.047  14.136  0.00  0.00    +0.000 F 
ATOM     22  F   UNL     1      48.470   6.143  15.010  0.00  0.00    +0.000 F 
ENDBRANCH  16  19
ENDBRANCH  12  13
ENDBRANCH   1  12
TORSDOF 6
ENDMDL
MODEL 4
REMARK VINA RESULT:    -6.754      2.165      3.054
REMARK INTER + INTRA:          -9.546
REMARK INTER:                  -8.908
REMARK INTRA:                  -0.638
REMARK UNBOUND:                -0.621
REMARK  Name = 
REMARK  6 active torsions:
REMARK  status: ('A' for Active; 'I' for Inactive)
REMARK    1  A    between atoms: N_1  and  C_2
REMARK    2  A    between atoms: C_2  and  C_3
REMARK    3  A    between atoms: C_6  and  O_7
REMARK    4  A    between atoms: O_7  and  C_8
REMARK    5  A    between atoms: C_8  and  C_9
REMARK    6  A    between atoms: C_12  and  C_13
REMARK                            x       y       z     vdW  Elec       q    Type
REMARK                         _______ _______ _______ _____ _____    ______ ____
ROOT
ATOM      1  O   UNL     1      44.611   4.778  12.205  0.00  0.00    +0.000 OA
ENDROOT
BRANCH   1   5
ATOM      2  C   UNL     1      46.796   8.199  12.925  0.00  0.00    +0.000 A 
ATOM      3  C   UNL     1      47.500   6.997  12.868  0.00  0.00    +0.000 A 
ATOM      4  C   UNL     1      46.811   5.809  12.618  0.00  0.00    +0.000 A 
ATOM      5  C   UNL     1      45.432   5.843  12.437  0.00  0.00    +0.000 A 
ATOM      6  C   UNL     1      44.814   7.087  12.500  0.00  0.00    +0.000 A 
ATOM      7  N   UNL     1      45.456   8.258  12.734  0.00  0.00    +0.000 NA
BRANCH   2   8
ATOM      8  C   UNL     1      47.518   9.494  13.232  0.00  0.00    +0.000 C 
BRANCH   8   9
ATOM      9  N   UNL     1      46.809  10.678  12.734  0.00  0.00    +0.000 NA
ATOM     10  H   UNL     1      47.431  11.184  12.107  0.00  0.00    +0.000 HD
ATOM     11  H   UNL     1      46.650  11.302  13.527  0.00  0.00    +0.000 HD
ENDBRANCH   8   9
ENDBRANCH   2   8
ENDBRANCH   1   5
BRANCH   1  12
ATOM     12  C   UNL     1      43.862   4.797  10.993  0.00  0.00    +0.000 C 
BRANCH  12  13
ATOM     13  C   UNL     1      44.665   4.094   9.926  0.00  0.00    +0.000 A 
ATOM     14  C   UNL     1      44.612   2.700   9.802  0.00  0.00    +0.000 A 
ATOM     15  C   UNL     1      45.342   2.048   8.805  0.00  0.00    +0.000 A 
ATOM     16  C   UNL     1      46.146   2.777   7.918  0.00  0.00    +0.000 A 
ATOM     17  C   UNL     1      46.221   4.171   8.062  0.00  0.00    +0.000 A 
ATOM     18  C   UNL     1      45.492   4.823   9.061  0.00  0.00    +0.000 A 
BRANCH  16  19
ATOM     19  C   UNL     1      46.917   2.088   6.819  0.00  0.00    +0.000 C 
ATOM     20  F   UNL     1      48.252   2.364   6.832  0.00  0.00    +0.000 F 
ATOM     21  F   UNL     1      46.820   0.731   6.891  0.00  0.00    +0.000 F 
ATOM     22  F   UNL     1      46.478   2.429   5.576  0.00  0.00    +0.000 F 
ENDBRANCH  16  19
ENDBRANCH  12  13
ENDBRANCH   1  12
TORSDOF 6
ENDMDL
MODEL 5
REMARK VINA RESULT:    -6.635      4.631      6.892
REMARK INTER + INTRA:          -9.390
REMARK INTER:                  -8.778
REMARK INTRA:                  -0.612
REMARK UNBOUND:                -0.621
REMARK  Name = 
REMARK  6 active torsions:
REMARK  status: ('A' for Active; 'I' for Inactive)
REMARK    1  A    between atoms: N_1  and  C_2
REMARK    2  A    between atoms: C_2  and  C_3
REMARK    3  A    between atoms: C_6  and  O_7
REMARK    4  A    between atoms: O_7  and  C_8
REMARK    5  A    between atoms: C_8  and  C_9
REMARK    6  A    between atoms: C_12  and  C_13
REMARK                            x       y       z     vdW  Elec       q    Type
REMARK                         _______ _______ _______ _____ _____    ______ ____
ROOT
ATOM      1  O   UNL     1      43.723   4.413   9.593  0.00  0.00    +0.000 OA
ENDROOT
BRANCH   1   5
ATOM      2  C   UNL     1      46.577   2.231   7.571  0.00  0.00    +0.000 A 
ATOM      3  C   UNL     1      45.777   1.541   8.479  0.00  0.00    +0.000 A 
ATOM      4  C   UNL     1      44.788   2.230   9.185  0.00  0.00    +0.000 A 
ATOM      5  C   UNL     1      44.623   3.595   8.975  0.00  0.00    +0.000 A 
ATOM      6  C   UNL     1      45.458   4.199   8.042  0.00  0.00    +0.000 A 
ATOM      7  N   UNL     1      46.422   3.558   7.337  0.00  0.00    +0.000 NA
BRANCH   2   8
ATOM      8  C   UNL     1      47.680   1.513   6.823  0.00  0.00    +0.000 C 
BRANCH   8   9
ATOM      9  N   UNL     1      48.684   2.425   6.263  0.00  0.00    +0.000 NA
ATOM     10  H   UNL     1      48.198   3.175   5.775  0.00  0.00    +0.000 HD
ATOM     11  H   UNL     1      49.200   1.917   5.543  0.00  0.00    +0.000 HD
ENDBRANCH   8   9
ENDBRANCH   2   8
ENDBRANCH   1   5
BRANCH   1  12
ATOM     12  C   UNL     1      43.778   4.471  11.016  0.00  0.00    +0.000 C 
BRANCH  12  13
ATOM     13  C   UNL     1      44.674   5.619  11.411  0.00  0.00    +0.000 A 
ATOM     14  C   UNL     1      44.177   6.929  11.438  0.00  0.00    +0.000 A 
ATOM     15  C   UNL     1      44.999   7.991  11.819  0.00  0.00    +0.000 A 
ATOM     16  C   UNL     1      46.338   7.767  12.173  0.00  0.00    +0.000 A 
ATOM     17  C   UNL     1      46.841   6.458  12.117  0.00  0.00    +0.000 A 
ATOM     18  C   UNL     1      46.019   5.395  11.735  0.00  0.00    +0.000 A 
BRANCH  16  19
ATOM     19  C   UNL     1      47.228   8.903  12.614  0.00  0.00    +0.000 C 
ATOM     20  F   UNL     1      46.962  10.081  11.983  0.00  0.00    +0.000 F 
ATOM     21  F   UNL     1      47.114   9.163  13.946  0.00  0.00    +0.000 F 
ATOM     22  F   UNL     1      48.548   8.652  12.394  0.00  0.00    +0.000 F 
ENDBRANCH  16  19
ENDBRANCH  12  13
ENDBRANCH   1  12
TORSDOF 6
ENDMDL
MODEL 6
REMARK VINA RESULT:    -5.952      2.240      3.346
REMARK INTER + INTRA:          -8.486
REMARK INTER:                  -7.940
REMARK INTRA:                  -0.546
REMARK UNBOUND:                -0.621
REMARK  Name = 
REMARK  6 active torsions:
REMARK  status: ('A' for Active; 'I' for Inactive)
REMARK    1  A    between atoms: N_1  and  C_2
REMARK    2  A    between atoms: C_2  and  C_3
REMARK    3  A    between atoms: C_6  and  O_7
REMARK    4  A    between atoms: O_7  and  C_8
REMARK    5  A    between atoms: C_8  and  C_9
REMARK    6  A    between atoms: C_12  and  C_13
REMARK                            x       y       z     vdW  Elec       q    Type
REMARK                         _______ _______ _______ _____ _____    ______ ____
ROOT
ATOM      1  O   UNL     1      47.059   6.157  13.520  0.00  0.00    +0.000 OA
ENDROOT
BRANCH   1   5
ATOM      2  C   UNL     1      48.675   4.472  16.917  0.00  0.00    +0.000 A 
ATOM      3  C   UNL     1      47.673   3.754  16.268  0.00  0.00    +0.000 A 
ATOM      4  C   UNL     1      47.097   4.274  15.107  0.00  0.00    +0.000 A 
ATOM      5  C   UNL     1      47.528   5.504  14.622  0.00  0.00    +0.000 A 
ATOM      6  C   UNL     1      48.540   6.145  15.328  0.00  0.00    +0.000 A 
ATOM      7  N   UNL     1      49.123   5.664  16.453  0.00  0.00    +0.000 NA
BRANCH   2   8
ATOM      8  C   UNL     1      49.287   3.945  18.198  0.00  0.00    +0.000 C 
BRANCH   8   9
ATOM      9  N   UNL     1      48.297   3.369  19.115  0.00  0.00    +0.000 NA
ATOM     10  H   UNL     1      48.511   3.686  20.058  0.00  0.00    +0.000 HD
ATOM     11  H   UNL     1      48.435   2.358  19.125  0.00  0.00    +0.000 HD
ENDBRANCH   8   9
ENDBRANCH   2   8
ENDBRANCH   1   5
BRANCH   1  12
ATOM     12  C   UNL     1      45.666   6.038  13.247  0.00  0.00    +0.000 C 
BRANCH  12  13
ATOM     13  C   UNL     1      45.495   5.198  12.005  0.00  0.00    +0.000 A 
ATOM     14  C   UNL     1      45.665   5.767  10.735  0.00  0.00    +0.000 A 
ATOM     15  C   UNL     1      45.523   4.989   9.584  0.00  0.00    +0.000 A 
ATOM     16  C   UNL     1      45.199   3.628   9.679  0.00  0.00    +0.000 A 
ATOM     17  C   UNL     1      44.999   3.067  10.950  0.00  0.00    +0.000 A 
ATOM     18  C   UNL     1      45.140   3.846  12.101  0.00  0.00    +0.000 A 
BRANCH  16  19
ATOM     19  C   UNL     1      45.070   2.770   8.444  0.00  0.00    +0.000 C 
ATOM     20  F   UNL     1      44.290   1.667   8.624  0.00  0.00    +0.000 F 
ATOM     21  F   UNL     1      44.518   3.446   7.398  0.00  0.00    +0.000 F 
ATOM     22  F   UNL     1      46.271   2.308   7.998  0.00  0.00    +0.000 F 
ENDBRANCH  16  19
ENDBRANCH  12  13
ENDBRANCH   1  12
TORSDOF 6
ENDMDL
MODEL 7
REMARK VINA RESULT:    -5.939      3.557      5.491
REMARK INTER + INTRA:          -8.469
REMARK INTER:                  -7.995
REMARK INTRA:                  -0.474
REMARK UNBOUND:                -0.621
REMARK  Name = 
REMARK  6 active torsions:
REMARK  status: ('A' for Active; 'I' for Inactive)
REMARK    1  A    between atoms: N_1  and  C_2
REMARK    2  A    between atoms: C_2  and  C_3
REMARK    3  A    between atoms: C_6  and  O_7
REMARK    4  A    between atoms: O_7  and  C_8
REMARK    5  A    between atoms: C_8  and  C_9
REMARK    6  A    between atoms: C_12  and  C_13
REMARK                            x       y       z     vdW  Elec       q    Type
REMARK                         _______ _______ _______ _____ _____    ______ ____
ROOT
ATOM      1  O   UNL     1      47.319   4.407  15.994  0.00  0.00    +0.000 OA
ENDROOT
BRANCH   1   5
ATOM      2  C   UNL     1      50.684   2.403  17.278  0.00  0.00    +0.000 A 
ATOM      3  C   UNL     1      50.563   3.740  17.649  0.00  0.00    +0.000 A 
ATOM      4  C   UNL     1      49.439   4.465  17.248  0.00  0.00    +0.000 A 
ATOM      5  C   UNL     1      48.461   3.841  16.480  0.00  0.00    +0.000 A 
ATOM      6  C   UNL     1      48.660   2.501  16.167  0.00  0.00    +0.000 A 
ATOM      7  N   UNL     1      49.736   1.769  16.545  0.00  0.00    +0.000 NA
BRANCH   2   8
ATOM      8  C   UNL     1      51.913   1.608  17.670  0.00  0.00    +0.000 C 
BRANCH   8   9
ATOM      9  N   UNL     1      51.598   0.247  18.118  0.00  0.00    +0.000 NA
ATOM     10  H   UNL     1      50.871   0.303  18.827  0.00  0.00    +0.000 HD
ATOM     11  H   UNL     1      52.422  -0.121  18.596  0.00  0.00    +0.000 HD
ENDBRANCH   8   9
ENDBRANCH   2   8
ENDBRANCH   1   5
BRANCH   1  12
ATOM     12  C   UNL     1      47.477   5.439  15.023  0.00  0.00    +0.000 C 
BRANCH  12  13
ATOM     13  C   UNL     1      46.673   5.069  13.801  0.00  0.00    +0.000 A 
ATOM     14  C   UNL     1      46.333   3.732  13.553  0.00  0.00    +0.000 A 
ATOM     15  C   UNL     1      45.577   3.389  12.431  0.00  0.00    +0.000 A 
ATOM     16  C   UNL     1      45.151   4.374  11.528  0.00  0.00    +0.000 A 
ATOM     17  C   UNL     1      45.518   5.708  11.762  0.00  0.00    +0.000 A 
ATOM     18  C   UNL     1      46.276   6.052  12.884  0.00  0.00    +0.000 A 
BRANCH  16  19
ATOM     19  C   UNL     1      44.309   4.019  10.328  0.00  0.00    +0.000 C 
ATOM     20  F   UNL     1      45.016   3.957   9.164  0.00  0.00    +0.000 F 
ATOM     21  F   UNL     1      43.707   2.804  10.459  0.00  0.00    +0.000 F 
ATOM     22  F   UNL     1      43.306   4.912  10.107  0.00  0.00    +0.000 F 
ENDBRANCH  16  19
ENDBRANCH  12  13
ENDBRANCH   1  12
TORSDOF 6
ENDMDL
MODEL 8
REMARK VINA RESULT:    -5.687      3.475      5.205
REMARK INTER + INTRA:          -8.136
REMARK INTER:                  -7.710
REMARK INTRA:                  -0.426
REMARK UNBOUND:                -0.621
REMARK  Name = 
REMARK  6 active torsions:
REMARK  status: ('A' for Active; 'I' for Inactive)
REMARK    1  A    between atoms: N_1  and  C_2
REMARK    2  A    between atoms: C_2  and  C_3
REMARK    3  A    between atoms: C_6  and  O_7
REMARK    4  A    between atoms: O_7  and  C_8
REMARK    5  A    between atoms: C_8  and  C_9
REMARK    6  A    between atoms: C_12  and  C_13
REMARK                            x       y       z     vdW  Elec       q    Type
REMARK                         _______ _______ _______ _____ _____    ______ ____
ROOT
ATOM      1  O   UNL     1      48.582   5.787  14.714  0.00  0.00    +0.000 OA
ENDROOT
BRANCH   1   5
ATOM      2  C   UNL     1      48.360   5.488  18.819  0.00  0.00    +0.000 A 
ATOM      3  C   UNL     1      48.900   6.662  18.297  0.00  0.00    +0.000 A 
ATOM      4  C   UNL     1      48.991   6.820  16.913  0.00  0.00    +0.000 A 
ATOM      5  C   UNL     1      48.547   5.800  16.077  0.00  0.00    +0.000 A 
ATOM      6  C   UNL     1      48.012   4.670  16.685  0.00  0.00    +0.000 A 
ATOM      7  N   UNL     1      47.905   4.489  18.024  0.00  0.00    +0.000 NA
BRANCH   2   8
ATOM      8  C   UNL     1      48.286   5.279  20.317  0.00  0.00    +0.000 C 
BRANCH   8   9
ATOM      9  N   UNL     1      48.384   3.869  20.707  0.00  0.00    +0.000 NA
ATOM     10  H   UNL     1      49.359   3.584  20.636  0.00  0.00    +0.000 HD
ATOM     11  H   UNL     1      47.885   3.317  20.008  0.00  0.00    +0.000 HD
ENDBRANCH   8   9
ENDBRANCH   2   8
ENDBRANCH   1   5
BRANCH   1  12
ATOM     12  C   UNL     1      47.703   6.685  14.041  0.00  0.00    +0.000 C 
BRANCH  12  13
ATOM     13  C   UNL     1      46.811   5.881  13.127  0.00  0.00    +0.000 A 
ATOM     14  C   UNL     1      46.361   4.611  13.512  0.00  0.00    +0.000 A 
ATOM     15  C   UNL     1      45.522   3.871  12.675  0.00  0.00    +0.000 A 
ATOM     16  C   UNL     1      45.124   4.383  11.431  0.00  0.00    +0.000 A 
ATOM     17  C   UNL     1      45.599   5.642  11.034  0.00  0.00    +0.000 A 
ATOM     18  C   UNL     1      46.439   6.382  11.872  0.00  0.00    +0.000 A 
BRANCH  16  19
ATOM     19  C   UNL     1      44.195   3.606  10.531  0.00  0.00    +0.000 C 
ATOM     20  F   UNL     1      43.745   4.323   9.463  0.00  0.00    +0.000 F 
ATOM     21  F   UNL     1      44.789   2.497  10.008  0.00  0.00    +0.000 F 
ATOM     22  F   UNL     1      43.082   3.164  11.179  0.00  0.00    +0.000 F 
ENDBRANCH  16  19
ENDBRANCH  12  13
ENDBRANCH   1  12
TORSDOF 6
ENDMDL
MODEL 9
REMARK VINA RESULT:    -5.509      5.944      8.721
REMARK INTER + INTRA:          -7.901
REMARK INTER:                  -7.450
REMARK INTRA:                  -0.452
REMARK UNBOUND:                -0.621
REMARK  Name = 
REMARK  6 active torsions:
REMARK  status: ('A' for Active; 'I' for Inactive)
REMARK    1  A    between atoms: N_1  and  C_2
REMARK    2  A    between atoms: C_2  and  C_3
REMARK    3  A    between atoms: C_6  and  O_7
REMARK    4  A    between atoms: O_7  and  C_8
REMARK    5  A    between atoms: C_8  and  C_9
REMARK    6  A    between atoms: C_12  and  C_13
REMARK                            x       y       z     vdW  Elec       q    Type
REMARK                         _______ _______ _______ _____ _____    ______ ____
ROOT
ATOM      1  O   UNL     1      47.469   3.169  14.813  0.00  0.00    +0.000 OA
ENDROOT
BRANCH   1   5
ATOM      2  C   UNL     1      45.691   5.824  12.208  0.00  0.00    +0.000 A 
ATOM      3  C   UNL     1      45.375   4.476  12.054  0.00  0.00    +0.000 A 
ATOM      4  C   UNL     1      45.942   3.534  12.915  0.00  0.00    +0.000 A 
ATOM      5  C   UNL     1      46.819   3.956  13.908  0.00  0.00    +0.000 A 
ATOM      6  C   UNL     1      47.068   5.322  13.996  0.00  0.00    +0.000 A 
ATOM      7  N   UNL     1      46.529   6.261  13.180  0.00  0.00    +0.000 NA
BRANCH   2   8
ATOM      8  C   UNL     1      45.117   6.858  11.263  0.00  0.00    +0.000 C 
BRANCH   8   9
ATOM      9  N   UNL     1      43.657   6.966  11.346  0.00  0.00    +0.000 NA
ATOM     10  H   UNL     1      43.427   7.698  12.015  0.00  0.00    +0.000 HD
ATOM     11  H   UNL     1      43.303   6.099  11.753  0.00  0.00    +0.000 HD
ENDBRANCH   8   9
ENDBRANCH   2   8
ENDBRANCH   1   5
BRANCH   1  12
ATOM     12  C   UNL     1      47.485   3.623  16.164  0.00  0.00    +0.000 C 
BRANCH  12  13
ATOM     13  C   UNL     1      48.869   3.401  16.724  0.00  0.00    +0.000 A 
ATOM     14  C   UNL     1      49.577   4.460  17.306  0.00  0.00    +0.000 A 
ATOM     15  C   UNL     1      50.851   4.254  17.839  0.00  0.00    +0.000 A 
ATOM     16  C   UNL     1      51.447   2.986  17.793  0.00  0.00    +0.000 A 
ATOM     17  C   UNL     1      50.749   1.932  17.184  0.00  0.00    +0.000 A 
ATOM     18  C   UNL     1      49.474   2.139  16.650  0.00  0.00    +0.000 A 
BRANCH  16  19
ATOM     19  C   UNL     1      52.811   2.744  18.392  0.00  0.00    +0.000 C 
ATOM     20  F   UNL     1      53.832   3.262  17.651  0.00  0.00    +0.000 F 
ATOM     21  F   UNL     1      52.938   3.294  19.631  0.00  0.00    +0.000 F 
ATOM     22  F   UNL     1      53.093   1.420  18.539  0.00  0.00    +0.000 F 
ENDBRANCH  16  19
ENDBRANCH  12  13
ENDBRANCH   1  12
TORSDOF 6
ENDMDL
