MODEL 1
REMARK VINA RESULT:    -8.674      0.000      0.000
REMARK INTER + INTRA:         -11.852
REMARK INTER:                 -11.209
REMARK INTRA:                  -0.643
REMARK UNBOUND:                -0.643
REMARK  Name = 
REMARK  5 active torsions:
REMARK  status: ('A' for Active; 'I' for Inactive)
REMARK    1  A    between atoms: C_2  and  C_4
REMARK    2  A    between atoms: C_7  and  O_8
REMARK    3  A    between atoms: O_8  and  C_9
REMARK    4  A    between atoms: C_9  and  C_10
REMARK    5  A    between atoms: C_14  and  N_15
REMARK                            x       y       z     vdW  Elec       q    Type
REMARK                         _______ _______ _______ _____ _____    ______ ____
ROOT
ATOM      1  C   UNL     1      43.588   4.231  11.200  0.00  0.00    +0.000 C 
ENDROOT
BRANCH   1   2
ATOM      2  C   UNL     1      44.843   4.487  11.988  0.00  0.00    +0.000 A 
ATOM      3  C   UNL     1      45.399   3.478  12.761  0.00  0.00    +0.000 A 
ATOM      4  N   UNL     1      46.481   3.642  13.547  0.00  0.00    +0.000 NA
ATOM      5  C   UNL     1      47.023   4.886  13.570  0.00  0.00    +0.000 A 
ATOM      6  C   UNL     1      46.561   5.998  12.860  0.00  0.00    +0.000 A 
ATOM      7  C   UNL     1      45.435   5.755  12.064  0.00  0.00    +0.000 A 
BRANCH   6   8
ATOM      8  N   UNL     1      47.137   7.251  12.941  0.00  0.00    +0.000 N 
ATOM      9  C   UNL     1      46.352   8.449  13.237  0.00  0.00    +0.000 C 
ATOM     10  C   UNL     1      46.595   9.491  12.141  0.00  0.00    +0.000 C 
ATOM     11  C   UNL     1      48.085   9.750  11.918  0.00  0.00    +0.000 C 
ATOM     12  C   UNL     1      48.843   8.446  11.676  0.00  0.00    +0.000 C 
ATOM     13  C   UNL     1      48.580   7.450  12.802  0.00  0.00    +0.000 C 
ENDBRANCH   6   8
ENDBRANCH   1   2
BRANCH   1  14
ATOM     14  O   UNL     1      43.721   4.713   9.857  0.00  0.00    +0.000 OA
BRANCH  14  18
ATOM     15  C   UNL     1      46.415   2.460   7.708  0.00  0.00    +0.000 A 
ATOM     16  C   UNL     1      45.555   1.832   8.610  0.00  0.00    +0.000 A 
ATOM     17  C   UNL     1      44.649   2.606   9.338  0.00  0.00    +0.000 A 
ATOM     18  C   UNL     1      44.637   3.978   9.132  0.00  0.00    +0.000 A 
ATOM     19  N   UNL     1      45.464   4.612   8.272  0.00  0.00    +0.000 NA
ATOM     20  C   UNL     1      46.342   3.840   7.588  0.00  0.00    +0.000 A 
BRANCH  15  22
ATOM     21  N   UNL     1      48.476   2.454   6.418  0.00  0.00    +0.000 N 
ATOM     22  C   UNL     1      47.411   1.740   6.889  0.00  0.00    +0.000 C 
ATOM     23  O   UNL     1      47.310   0.539   6.674  0.00  0.00    +0.000 OA
ATOM     24  H   UNL     1      49.205   1.915   5.965  0.00  0.00    +0.000 HD
ATOM     25  H   UNL     1      48.728   3.363   6.781  0.00  0.00    +0.000 HD
ENDBRANCH  15  22
ENDBRANCH  14  18
ENDBRANCH   1  14
TORSDOF 5
ENDMDL
MODEL 2
REMARK VINA RESULT:    -8.024      1.502      2.070
REMARK INTER + INTRA:         -11.012
REMARK INTER:                 -10.295
REMARK INTRA:                  -0.718
REMARK UNBOUND:                -0.643
REMARK  Name = 
REMARK  5 active torsions:
REMARK  status: ('A' for Active; 'I' for Inactive)
REMARK    1  A    between atoms: C_2  and  C_4
REMARK    2  A    between atoms: C_7  and  O_8
REMARK    3  A    between atoms: O_8  and  C_9
REMARK    4  A    between atoms: C_9  and  C_10
REMARK    5  A    between atoms: C_14  and  N_15
REMARK                            x       y       z     vdW  Elec       q    Type
REMARK                         _______ _______ _______ _____ _____    ______ ____
ROOT
ATOM      1  C   UNL     1      44.393   3.293  11.451  0.00  0.00    +0.000 C 
ENDROOT
BRANCH   1   2
ATOM      2  C   UNL     1      44.457   4.789  11.596  0.00  0.00    +0.000 A 
ATOM      3  C   UNL     1      43.375   5.574  11.223  0.00  0.00    +0.000 A 
ATOM      4  N   UNL     1      43.374   6.921  11.259  0.00  0.00    +0.000 NA
ATOM      5  C   UNL     1      44.523   7.510  11.676  0.00  0.00    +0.000 A 
ATOM      6  C   UNL     1      45.693   6.850  12.065  0.00  0.00    +0.000 A 
ATOM      7  C   UNL     1      45.622   5.453  12.004  0.00  0.00    +0.000 A 
BRANCH   6   8
ATOM      8  N   UNL     1      46.845   7.503  12.457  0.00  0.00    +0.000 N 
ATOM      9  C   UNL     1      46.849   8.921  12.817  0.00  0.00    +0.000 C 
ATOM     10  C   UNL     1      47.901   9.648  11.976  0.00  0.00    +0.000 C 
ATOM     11  C   UNL     1      49.269   8.971  12.057  0.00  0.00    +0.000 C 
ATOM     12  C   UNL     1      49.169   7.482  11.725  0.00  0.00    +0.000 C 
ATOM     13  C   UNL     1      48.121   6.802  12.601  0.00  0.00    +0.000 C 
ENDBRANCH   6   8
ENDBRANCH   1   2
BRANCH   1  14
ATOM     14  O   UNL     1      43.794   2.927  10.202  0.00  0.00    +0.000 OA
BRANCH  14  18
ATOM     15  C   UNL     1      46.600   2.537   7.215  0.00  0.00    +0.000 A 
ATOM     16  C   UNL     1      45.923   3.748   7.372  0.00  0.00    +0.000 A 
ATOM     17  C   UNL     1      44.969   3.867   8.385  0.00  0.00    +0.000 A 
ATOM     18  C   UNL     1      44.732   2.772   9.203  0.00  0.00    +0.000 A 
ATOM     19  N   UNL     1      45.366   1.587   9.067  0.00  0.00    +0.000 NA
ATOM     20  C   UNL     1      46.278   1.493   8.069  0.00  0.00    +0.000 A 
BRANCH  15  22
ATOM     21  N   UNL     1      47.638   3.139   5.100  0.00  0.00    +0.000 N 
ATOM     22  C   UNL     1      47.625   2.301   6.179  0.00  0.00    +0.000 C 
ATOM     23  O   UNL     1      48.459   1.413   6.300  0.00  0.00    +0.000 OA
ATOM     24  H   UNL     1      48.421   3.033   4.467  0.00  0.00    +0.000 HD
ATOM     25  H   UNL     1      47.147   4.022   5.088  0.00  0.00    +0.000 HD
ENDBRANCH  15  22
ENDBRANCH  14  18
ENDBRANCH   1  14
TORSDOF 5
ENDMDL
MODEL 3
REMARK VINA RESULT:    -7.595      4.023      8.096
REMARK INTER + INTRA:         -10.458
REMARK INTER:                  -9.837
REMARK INTRA:                  -0.622
REMARK UNBOUND:                -0.643
REMARK  Name = 
REMARK  5 active torsions:
REMARK  status: ('A' for Active; 'I' for Inactive)
REMARK    1  A    between atoms: C_2  and  C_4
REMARK    2  A    between atoms: C_7  and  O_8
REMARK    3  A    between atoms: O_8  and  C_9
REMARK    4  A    between atoms: C_9  and  C_10
REMARK    5  A    between atoms: C_14  and  N_15
REMARK                            x       y       z     vdW  Elec       q    Type
REMARK                         _______ _______ _______ _____ _____    ______ ____
ROOT
ATOM      1  C   UNL     1      46.632   4.377  13.627  0.00  0.00    +0.000 C 
ENDROOT
BRANCH   1   2
ATOM      2  C   UNL     1      45.522   4.055  12.664  0.00  0.00    +0.000 A 
ATOM      3  C   UNL     1      44.206   4.012  13.104  0.00  0.00    +0.000 A 
ATOM      4  N   UNL     1      43.163   3.667  12.324  0.00  0.00    +0.000 NA
ATOM      5  C   UNL     1      43.457   3.336  11.041  0.00  0.00    +0.000 A 
ATOM      6  C   UNL     1      44.732   3.319  10.467  0.00  0.00    +0.000 A 
ATOM      7  C   UNL     1      45.767   3.688  11.334  0.00  0.00    +0.000 A 
BRANCH   6   8
ATOM      8  N   UNL     1      44.976   2.947   9.159  0.00  0.00    +0.000 N 
ATOM      9  C   UNL     1      45.098   1.545   8.761  0.00  0.00    +0.000 C 
ATOM     10  C   UNL     1      46.428   1.346   8.028  0.00  0.00    +0.000 C 
ATOM     11  C   UNL     1      46.608   2.347   6.886  0.00  0.00    +0.000 C 
ATOM     12  C   UNL     1      46.407   3.782   7.371  0.00  0.00    +0.000 C 
ATOM     13  C   UNL     1      45.062   3.929   8.078  0.00  0.00    +0.000 C 
ENDBRANCH   6   8
ENDBRANCH   1   2
BRANCH   1  14
ATOM     14  O   UNL     1      47.158   3.183  14.218  0.00  0.00    +0.000 OA
BRANCH  14  18
ATOM     15  C   UNL     1      48.605   3.896  18.006  0.00  0.00    +0.000 A 
ATOM     16  C   UNL     1      47.589   4.704  17.491  0.00  0.00    +0.000 A 
ATOM     17  C   UNL     1      47.110   4.456  16.203  0.00  0.00    +0.000 A 
ATOM     18  C   UNL     1      47.662   3.409  15.481  0.00  0.00    +0.000 A 
ATOM     19  N   UNL     1      48.652   2.617  15.951  0.00  0.00    +0.000 NA
ATOM     20  C   UNL     1      49.108   2.886  17.198  0.00  0.00    +0.000 A 
BRANCH  15  22
ATOM     21  N   UNL     1      48.412   3.726  20.423  0.00  0.00    +0.000 N 
ATOM     22  C   UNL     1      49.187   4.068  19.352  0.00  0.00    +0.000 C 
ATOM     23  O   UNL     1      50.336   4.463  19.503  0.00  0.00    +0.000 OA
ATOM     24  H   UNL     1      48.873   3.738  21.325  0.00  0.00    +0.000 HD
ATOM     25  H   UNL     1      47.576   3.165  20.336  0.00  0.00    +0.000 HD
ENDBRANCH  15  22
ENDBRANCH  14  18
ENDBRANCH   1  14
TORSDOF 5
ENDMDL
MODEL 4
REMARK VINA RESULT:    -6.691      2.625      6.852
REMARK INTER + INTRA:          -9.290
REMARK INTER:                  -8.521
REMARK INTRA:                  -0.769
REMARK UNBOUND:                -0.643
REMARK  Name = 
REMARK  5 active torsions:
REMARK  status: ('A' for Active; 'I' for Inactive)
REMARK    1  A    between atoms: C_2  and  C_4
REMARK    2  A    between atoms: C_7  and  O_8
REMARK    3  A    between atoms: O_8  and  C_9
REMARK    4  A    between atoms: C_9  and  C_10
REMARK    5  A    between atoms: C_14  and  N_15
REMARK                            x       y       z     vdW  Elec       q    Type
REMARK                         _______ _______ _______ _____ _____    ______ ____
ROOT
ATOM      1  C   UNL     1      45.959   5.536  13.332  0.00  0.00    +0.000 C 
ENDROOT
BRANCH   1   2
ATOM      2  C   UNL     1      45.134   4.552  12.549  0.00  0.00    +0.000 A 
ATOM      3  C   UNL     1      44.127   3.831  13.174  0.00  0.00    +0.000 A 
ATOM      4  N   UNL     1      43.387   2.885  12.562  0.00  0.00    +0.000 NA
ATOM      5  C   UNL     1      43.683   2.642  11.260  0.00  0.00    +0.000 A 
ATOM      6  C   UNL     1      44.677   3.276  10.510  0.00  0.00    +0.000 A 
ATOM      7  C   UNL     1      45.406   4.246  11.208  0.00  0.00    +0.000 A 
BRANCH   6   8
ATOM      8  N   UNL     1      44.953   2.968   9.192  0.00  0.00    +0.000 N 
ATOM      9  C   UNL     1      45.104   1.588   8.732  0.00  0.00    +0.000 C 
ATOM     10  C   UNL     1      46.451   1.441   8.018  0.00  0.00    +0.000 C 
ATOM     11  C   UNL     1      46.639   2.496   6.928  0.00  0.00    +0.000 C 
ATOM     12  C   UNL     1      46.407   3.904   7.474  0.00  0.00    +0.000 C 
ATOM     13  C   UNL     1      45.047   4.001   8.159  0.00  0.00    +0.000 C 
ENDBRANCH   6   8
ENDBRANCH   1   2
BRANCH   1  14
ATOM     14  O   UNL     1      45.583   6.882  13.020  0.00  0.00    +0.000 OA
BRANCH  14  18
ATOM     15  C   UNL     1      48.870   9.189  12.112  0.00  0.00    +0.000 A 
ATOM     16  C   UNL     1      48.884   7.822  11.823  0.00  0.00    +0.000 A 
ATOM     17  C   UNL     1      47.766   7.049  12.140  0.00  0.00    +0.000 A 
ATOM     18  C   UNL     1      46.676   7.672  12.731  0.00  0.00    +0.000 A 
ATOM     19  N   UNL     1      46.640   8.989  13.029  0.00  0.00    +0.000 NA
ATOM     20  C   UNL     1      47.742   9.716  12.723  0.00  0.00    +0.000 A 
BRANCH  15  22
ATOM     21  N   UNL     1      50.666  10.634  12.884  0.00  0.00    +0.000 N 
ATOM     22  C   UNL     1      49.996  10.099  11.822  0.00  0.00    +0.000 C 
ATOM     23  O   UNL     1      50.344  10.333  10.671  0.00  0.00    +0.000 OA
ATOM     24  H   UNL     1      51.505  11.155  12.662  0.00  0.00    +0.000 HD
ATOM     25  H   UNL     1      50.580  10.272  13.824  0.00  0.00    +0.000 HD
ENDBRANCH  15  22
ENDBRANCH  14  18
ENDBRANCH   1  14
TORSDOF 5
ENDMDL
MODEL 5
REMARK VINA RESULT:    -6.671      4.880      7.869
REMARK INTER + INTRA:          -9.264
REMARK INTER:                  -8.591
REMARK INTRA:                  -0.673
REMARK UNBOUND:                -0.643
REMARK  Name = 
REMARK  5 active torsions:
REMARK  status: ('A' for Active; 'I' for Inactive)
REMARK    1  A    between atoms: C_2  and  C_4
REMARK    2  A    between atoms: C_7  and  O_8
REMARK    3  A    between atoms: O_8  and  C_9
REMARK    4  A    between atoms: C_9  and  C_10
REMARK    5  A    between atoms: C_14  and  N_15
REMARK                            x       y       z     vdW  Elec       q    Type
REMARK                         _______ _______ _______ _____ _____    ______ ____
ROOT
ATOM      1  C   UNL     1      47.122   4.143  15.720  0.00  0.00    +0.000 C 
ENDROOT
BRANCH   1   2
ATOM      2  C   UNL     1      47.051   4.868  14.405  0.00  0.00    +0.000 A 
ATOM      3  C   UNL     1      47.751   6.052  14.221  0.00  0.00    +0.000 A 
ATOM      4  N   UNL     1      47.688   6.797  13.100  0.00  0.00    +0.000 NA
ATOM      5  C   UNL     1      46.871   6.337  12.118  0.00  0.00    +0.000 A 
ATOM      6  C   UNL     1      46.096   5.175  12.171  0.00  0.00    +0.000 A 
ATOM      7  C   UNL     1      46.210   4.451  13.364  0.00  0.00    +0.000 A 
BRANCH   6   8
ATOM      8  N   UNL     1      45.259   4.767  11.151  0.00  0.00    +0.000 N 
ATOM      9  C   UNL     1      44.273   3.702  11.334  0.00  0.00    +0.000 C 
ATOM     10  C   UNL     1      44.484   2.633  10.258  0.00  0.00    +0.000 C 
ATOM     11  C   UNL     1      44.513   3.233   8.852  0.00  0.00    +0.000 C 
ATOM     12  C   UNL     1      45.524   4.375   8.760  0.00  0.00    +0.000 C 
ATOM     13  C   UNL     1      45.260   5.419   9.841  0.00  0.00    +0.000 C 
ENDBRANCH   6   8
ENDBRANCH   1   2
BRANCH   1  14
ATOM     14  O   UNL     1      48.052   4.780  16.605  0.00  0.00    +0.000 OA
BRANCH  14  18
ATOM     15  C   UNL     1      51.214   2.290  17.473  0.00  0.00    +0.000 A 
ATOM     16  C   UNL     1      50.000   1.743  17.050  0.00  0.00    +0.000 A 
ATOM     17  C   UNL     1      48.933   2.597  16.764  0.00  0.00    +0.000 A 
ATOM     18  C   UNL     1      49.122   3.964  16.908  0.00  0.00    +0.000 A 
ATOM     19  N   UNL     1      50.282   4.518  17.323  0.00  0.00    +0.000 NA
ATOM     20  C   UNL     1      51.298   3.668  17.607  0.00  0.00    +0.000 A 
BRANCH  15  22
ATOM     21  N   UNL     1      52.200   0.203  18.237  0.00  0.00    +0.000 N 
ATOM     22  C   UNL     1      52.404   1.482  17.803  0.00  0.00    +0.000 C 
ATOM     23  O   UNL     1      53.536   1.926  17.654  0.00  0.00    +0.000 OA
ATOM     24  H   UNL     1      53.030  -0.368  18.340  0.00  0.00    +0.000 HD
ATOM     25  H   UNL     1      51.317  -0.276  18.128  0.00  0.00    +0.000 HD
ENDBRANCH  15  22
ENDBRANCH  14  18
ENDBRANCH   1  14
TORSDOF 5
ENDMDL
MODEL 6
REMARK VINA RESULT:    -6.458      4.750      7.764
REMARK INTER + INTRA:          -8.989
REMARK INTER:                  -8.217
REMARK INTRA:                  -0.772
REMARK UNBOUND:                -0.643
REMARK  Name = 
REMARK  5 active torsions:
REMARK  status: ('A' for Active; 'I' for Inactive)
REMARK    1  A    between atoms: C_2  and  C_4
REMARK    2  A    between atoms: C_7  and  O_8
REMARK    3  A    between atoms: O_8  and  C_9
REMARK    4  A    between atoms: C_9  and  C_10
REMARK    5  A    between atoms: C_14  and  N_15
REMARK                            x       y       z     vdW  Elec       q    Type
REMARK                         _______ _______ _______ _____ _____    ______ ____
ROOT
ATOM      1  C   UNL     1      48.656   6.460  15.909  0.00  0.00    +0.000 C 
ENDROOT
BRANCH   1   2
ATOM      2  C   UNL     1      48.244   6.535  14.464  0.00  0.00    +0.000 A 
ATOM      3  C   UNL     1      48.882   7.416  13.601  0.00  0.00    +0.000 A 
ATOM      4  N   UNL     1      48.531   7.593  12.313  0.00  0.00    +0.000 NA
ATOM      5  C   UNL     1      47.478   6.859  11.871  0.00  0.00    +0.000 A 
ATOM      6  C   UNL     1      46.733   5.950  12.628  0.00  0.00    +0.000 A 
ATOM      7  C   UNL     1      47.153   5.816  13.957  0.00  0.00    +0.000 A 
BRANCH   6   8
ATOM      8  N   UNL     1      45.652   5.248  12.133  0.00  0.00    +0.000 N 
ATOM      9  C   UNL     1      45.045   5.566  10.841  0.00  0.00    +0.000 C 
ATOM     10  C   UNL     1      43.546   5.806  11.036  0.00  0.00    +0.000 C 
ATOM     11  C   UNL     1      42.874   4.654  11.784  0.00  0.00    +0.000 C 
ATOM     12  C   UNL     1      43.601   4.345  13.092  0.00  0.00    +0.000 C 
ATOM     13  C   UNL     1      45.086   4.099  12.840  0.00  0.00    +0.000 C 
ENDBRANCH   6   8
ENDBRANCH   1   2
BRANCH   1  14
ATOM     14  O   UNL     1      48.087   5.307  16.542  0.00  0.00    +0.000 OA
BRANCH  14  18
ATOM     15  C   UNL     1      50.890   2.405  17.364  0.00  0.00    +0.000 A 
ATOM     16  C   UNL     1      49.599   2.031  16.985  0.00  0.00    +0.000 A 
ATOM     17  C   UNL     1      48.655   3.023  16.714  0.00  0.00    +0.000 A 
ATOM     18  C   UNL     1      49.039   4.351  16.829  0.00  0.00    +0.000 A 
ATOM     19  N   UNL     1      50.278   4.741  17.203  0.00  0.00    +0.000 NA
ATOM     20  C   UNL     1      51.172   3.759  17.473  0.00  0.00    +0.000 A 
BRANCH  15  22
ATOM     21  N   UNL     1      51.594   0.211  18.137  0.00  0.00    +0.000 N 
ATOM     22  C   UNL     1      51.964   1.442  17.675  0.00  0.00    +0.000 C 
ATOM     23  O   UNL     1      53.142   1.719  17.487  0.00  0.00    +0.000 OA
ATOM     24  H   UNL     1      52.338  -0.471  18.227  0.00  0.00    +0.000 HD
ATOM     25  H   UNL     1      50.650  -0.141  18.061  0.00  0.00    +0.000 HD
ENDBRANCH  15  22
ENDBRANCH  14  18
ENDBRANCH   1  14
TORSDOF 5
ENDMDL
MODEL 7
REMARK VINA RESULT:    -6.322      3.225      5.803
REMARK INTER + INTRA:          -8.812
REMARK INTER:                  -8.068
REMARK INTRA:                  -0.744
REMARK UNBOUND:                -0.643
REMARK  Name = 
REMARK  5 active torsions:
REMARK  status: ('A' for Active; 'I' for Inactive)
REMARK    1  A    between atoms: C_2  and  C_4
REMARK    2  A    between atoms: C_7  and  O_8
REMARK    3  A    between atoms: O_8  and  C_9
REMARK    4  A    between atoms: C_9  and  C_10
REMARK    5  A    between atoms: C_14  and  N_15
REMARK                            x       y       z     vdW  Elec       q    Type
REMARK                         _______ _______ _______ _____ _____    ______ ____
ROOT
ATOM      1  C   UNL     1      47.989   7.426  12.521  0.00  0.00    +0.000 C 
ENDROOT
BRANCH   1   2
ATOM      2  C   UNL     1      48.826   7.307  13.765  0.00  0.00    +0.000 A 
ATOM      3  C   UNL     1      50.015   8.014  13.877  0.00  0.00    +0.000 A 
ATOM      4  N   UNL     1      50.855   7.913  14.926  0.00  0.00    +0.000 NA
ATOM      5  C   UNL     1      50.489   7.048  15.906  0.00  0.00    +0.000 A 
ATOM      6  C   UNL     1      49.334   6.261  15.920  0.00  0.00    +0.000 A 
ATOM      7  C   UNL     1      48.508   6.416  14.800  0.00  0.00    +0.000 A 
BRANCH   6   8
ATOM      8  N   UNL     1      49.024   5.376  16.934  0.00  0.00    +0.000 N 
ATOM      9  C   UNL     1      50.058   4.681  17.700  0.00  0.00    +0.000 C 
ATOM     10  C   UNL     1      49.796   3.173  17.643  0.00  0.00    +0.000 C 
ATOM     11  C   UNL     1      48.364   2.824  18.050  0.00  0.00    +0.000 C 
ATOM     12  C   UNL     1      47.348   3.634  17.247  0.00  0.00    +0.000 C 
ATOM     13  C   UNL     1      47.643   5.128  17.351  0.00  0.00    +0.000 C 
ENDBRANCH   6   8
ENDBRANCH   1   2
BRANCH   1  14
ATOM     14  O   UNL     1      46.594   7.467  12.846  0.00  0.00    +0.000 OA
BRANCH  14  18
ATOM     15  C   UNL     1      44.621   4.149  11.415  0.00  0.00    +0.000 A 
ATOM     16  C   UNL     1      45.173   5.065  10.517  0.00  0.00    +0.000 A 
ATOM     17  C   UNL     1      45.835   6.189  11.014  0.00  0.00    +0.000 A 
ATOM     18  C   UNL     1      45.922   6.353  12.388  0.00  0.00    +0.000 A 
ATOM     19  N   UNL     1      45.390   5.487  13.279  0.00  0.00    +0.000 NA
ATOM     20  C   UNL     1      44.741   4.411  12.772  0.00  0.00    +0.000 A 
BRANCH  15  22
ATOM     21  N   UNL     1      44.423   2.206   9.967  0.00  0.00    +0.000 N 
ATOM     22  C   UNL     1      43.899   2.929  11.001  0.00  0.00    +0.000 C 
ATOM     23  O   UNL     1      42.892   2.555  11.588  0.00  0.00    +0.000 OA
ATOM     24  H   UNL     1      43.981   1.314   9.782  0.00  0.00    +0.000 HD
ATOM     25  H   UNL     1      45.368   2.333   9.635  0.00  0.00    +0.000 HD
ENDBRANCH  15  22
ENDBRANCH  14  18
ENDBRANCH   1  14
TORSDOF 5
ENDMDL
MODEL 8
REMARK VINA RESULT:    -6.137      4.724      6.583
REMARK INTER + INTRA:          -8.574
REMARK INTER:                  -7.837
REMARK INTRA:                  -0.738
REMARK UNBOUND:                -0.643
REMARK  Name = 
REMARK  5 active torsions:
REMARK  status: ('A' for Active; 'I' for Inactive)
REMARK    1  A    between atoms: C_2  and  C_4
REMARK    2  A    between atoms: C_7  and  O_8
REMARK    3  A    between atoms: O_8  and  C_9
REMARK    4  A    between atoms: C_9  and  C_10
REMARK    5  A    between atoms: C_14  and  N_15
REMARK                            x       y       z     vdW  Elec       q    Type
REMARK                         _______ _______ _______ _____ _____    ______ ____
ROOT
ATOM      1  C   UNL     1      47.374   3.375  16.082  0.00  0.00    +0.000 C 
ENDROOT
BRANCH   1   2
ATOM      2  C   UNL     1      48.408   3.990  16.985  0.00  0.00    +0.000 A 
ATOM      3  C   UNL     1      49.579   3.304  17.274  0.00  0.00    +0.000 A 
ATOM      4  N   UNL     1      50.524   3.753  18.123  0.00  0.00    +0.000 NA
ATOM      5  C   UNL     1      50.274   4.945  18.723  0.00  0.00    +0.000 A 
ATOM      6  C   UNL     1      49.135   5.734  18.542  0.00  0.00    +0.000 A 
ATOM      7  C   UNL     1      48.197   5.208  17.647  0.00  0.00    +0.000 A 
BRANCH   6   8
ATOM      8  N   UNL     1      48.920   6.929  19.200  0.00  0.00    +0.000 N 
ATOM      9  C   UNL     1      48.896   7.017  20.660  0.00  0.00    +0.000 C 
ATOM     10  C   UNL     1      47.585   7.675  21.101  0.00  0.00    +0.000 C 
ATOM     11  C   UNL     1      47.340   9.002  20.383  0.00  0.00    +0.000 C 
ATOM     12  C   UNL     1      47.441   8.837  18.867  0.00  0.00    +0.000 C 
ATOM     13  C   UNL     1      48.770   8.194  18.481  0.00  0.00    +0.000 C 
ENDBRANCH   6   8
ENDBRANCH   1   2
BRANCH   1  14
ATOM     14  O   UNL     1      47.811   3.394  14.718  0.00  0.00    +0.000 OA
BRANCH  14  18
ATOM     15  C   UNL     1      45.033   5.128  12.221  0.00  0.00    +0.000 A 
ATOM     16  C   UNL     1      45.850   5.938  13.014  0.00  0.00    +0.000 A 
ATOM     17  C   UNL     1      46.784   5.338  13.861  0.00  0.00    +0.000 A 
ATOM     18  C   UNL     1      46.869   3.954  13.880  0.00  0.00    +0.000 A 
ATOM     19  N   UNL     1      46.086   3.148  13.130  0.00  0.00    +0.000 NA
ATOM     20  C   UNL     1      45.179   3.752  12.326  0.00  0.00    +0.000 A 
BRANCH  15  22
ATOM     21  N   UNL     1      43.812   7.004  11.274  0.00  0.00    +0.000 N 
ATOM     22  C   UNL     1      44.013   5.653  11.293  0.00  0.00    +0.000 C 
ATOM     23  O   UNL     1      43.398   4.912  10.538  0.00  0.00    +0.000 OA
ATOM     24  H   UNL     1      43.198   7.350  10.547  0.00  0.00    +0.000 HD
ATOM     25  H   UNL     1      44.464   7.659  11.682  0.00  0.00    +0.000 HD
ENDBRANCH  15  22
ENDBRANCH  14  18
ENDBRANCH   1  14
TORSDOF 5
ENDMDL
MODEL 9
REMARK VINA RESULT:    -5.930      4.188      6.812
REMARK INTER + INTRA:          -8.306
REMARK INTER:                  -7.476
REMARK INTRA:                  -0.829
REMARK UNBOUND:                -0.643
REMARK  Name = 
REMARK  5 active torsions:
REMARK  status: ('A' for Active; 'I' for Inactive)
REMARK    1  A    between atoms: C_2  and  C_4
REMARK    2  A    between atoms: C_7  and  O_8
REMARK    3  A    between atoms: O_8  and  C_9
REMARK    4  A    between atoms: C_9  and  C_10
REMARK    5  A    between atoms: C_14  and  N_15
REMARK                            x       y       z     vdW  Elec       q    Type
REMARK                         _______ _______ _______ _____ _____    ______ ____
ROOT
ATOM      1  C   UNL     1      48.971   7.157  13.524  0.00  0.00    +0.000 C 
ENDROOT
BRANCH   1   2
ATOM      2  C   UNL     1      48.746   7.642  14.930  0.00  0.00    +0.000 A 
ATOM      3  C   UNL     1      48.349   8.951  15.162  0.00  0.00    +0.000 A 
ATOM      4  N   UNL     1      48.190   9.483  16.390  0.00  0.00    +0.000 NA
ATOM      5  C   UNL     1      48.456   8.663  17.438  0.00  0.00    +0.000 A 
ATOM      6  C   UNL     1      48.878   7.333  17.355  0.00  0.00    +0.000 A 
ATOM      7  C   UNL     1      49.022   6.846  16.051  0.00  0.00    +0.000 A 
BRANCH   6   8
ATOM      8  N   UNL     1      49.161   6.550  18.458  0.00  0.00    +0.000 N 
ATOM      9  C   UNL     1      49.946   5.320  18.356  0.00  0.00    +0.000 C 
ATOM     10  C   UNL     1      49.151   4.166  18.972  0.00  0.00    +0.000 C 
ATOM     11  C   UNL     1      48.666   4.492  20.385  0.00  0.00    +0.000 C 
ATOM     12  C   UNL     1      47.908   5.819  20.416  0.00  0.00    +0.000 C 
ATOM     13  C   UNL     1      48.749   6.937  19.808  0.00  0.00    +0.000 C 
ENDBRANCH   6   8
ENDBRANCH   1   2
BRANCH   1  14
ATOM     14  O   UNL     1      48.441   5.837  13.348  0.00  0.00    +0.000 OA
BRANCH  14  18
ATOM     15  C   UNL     1      44.567   5.930  11.956  0.00  0.00    +0.000 A 
ATOM     16  C   UNL     1      45.540   6.725  11.346  0.00  0.00    +0.000 A 
ATOM     17  C   UNL     1      46.849   6.690  11.830  0.00  0.00    +0.000 A 
ATOM     18  C   UNL     1      47.136   5.859  12.902  0.00  0.00    +0.000 A 
ATOM     19  N   UNL     1      46.213   5.086  13.517  0.00  0.00    +0.000 NA
ATOM     20  C   UNL     1      44.948   5.148  13.037  0.00  0.00    +0.000 A 
BRANCH  15  22
ATOM     21  N   UNL     1      42.589   7.060  11.108  0.00  0.00    +0.000 N 
ATOM     22  C   UNL     1      43.155   5.890  11.528  0.00  0.00    +0.000 C 
ATOM     23  O   UNL     1      42.525   4.841  11.511  0.00  0.00    +0.000 OA
ATOM     24  H   UNL     1      41.662   6.985  10.707  0.00  0.00    +0.000 HD
ATOM     25  H   UNL     1      43.135   7.875  10.866  0.00  0.00    +0.000 HD
ENDBRANCH  15  22
ENDBRANCH  14  18
ENDBRANCH   1  14
TORSDOF 5
ENDMDL
