MODEL 1
REMARK VINA RESULT:    -9.002      0.000      0.000
REMARK INTER + INTRA:         -13.416
REMARK INTER:                 -12.685
REMARK INTRA:                  -0.731
REMARK UNBOUND:                -0.731
REMARK  Name = 
REMARK  8 active torsions:
REMARK  status: ('A' for Active; 'I' for Inactive)
REMARK    1  A    between atoms: C_1  and  C_2
REMARK    2  A    between atoms: C_5  and  O_6
REMARK    3  A    between atoms: O_6  and  C_7
REMARK    4  A    between atoms: C_9  and  C_10
REMARK    5  A    between atoms: C_10  and  C_11
REMARK    6  A    between atoms: C_11  and  N_12
REMARK    7  A    between atoms: C_16  and  C_17
REMARK    8  A    between atoms: C_24  and  C_25
REMARK                            x       y       z     vdW  Elec       q    Type
REMARK                         _______ _______ _______ _____ _____    ______ ____
ROOT
ATOM      1  C   UNL     1      46.432   5.072  14.034  0.00  0.00    +0.000 A 
ATOM      2  C   UNL     1      45.126   4.791  13.581  0.00  0.00    +0.000 A 
ATOM      3  C   UNL     1      44.440   5.666  12.720  0.00  0.00    +0.000 A 
ATOM      4  C   UNL     1      45.087   6.831  12.297  0.00  0.00    +0.000 A 
ATOM      5  C   UNL     1      46.387   7.108  12.721  0.00  0.00    +0.000 A 
ATOM      6  C   UNL     1      47.072   6.235  13.581  0.00  0.00    +0.000 A 
ENDROOT
BRANCH   6   7
ATOM      7  C   UNL     1      48.422   6.598  13.898  0.00  0.00    +0.000 C 
ATOM      8  N   UNL     1      49.525   6.856  14.156  0.00  0.00    +0.000 NA
ENDBRANCH   6   7
BRANCH   1   9
ATOM      9  O   UNL     1      46.954   4.099  14.866  0.00  0.00    +0.000 OA
BRANCH   9  14
ATOM     10  C   UNL     1      48.878   5.187  17.987  0.00  0.00    +0.000 C 
ATOM     11  C   UNL     1      48.540   4.227  16.850  0.00  0.00    +0.000 C 
ATOM     12  C   UNL     1      48.117   2.803  17.252  0.00  0.00    +0.000 C 
ATOM     13  N   UNL     1      46.702   3.206  17.126  0.00  0.00    +0.000 NA
ATOM     14  C   UNL     1      47.106   4.352  16.282  0.00  0.00    +0.000 C 
ATOM     15  H   UNL     1      46.291   3.503  18.010  0.00  0.00    +0.000 HD
ENDBRANCH   9  14
ENDBRANCH   1   9
BRANCH   3  16
ATOM     16  C   UNL     1      43.042   5.364  12.215  0.00  0.00    +0.000 C 
BRANCH  16  17
ATOM     17  C   UNL     1      43.063   4.465  10.972  0.00  0.00    +0.000 C 
BRANCH  17  18
ATOM     18  N   UNL     1      43.934   5.014   9.920  0.00  0.00    +0.000 N 
ATOM     19  C   UNL     1      44.703   4.021   9.277  0.00  0.00    +0.000 A 
ATOM     20  C   UNL     1      45.578   4.390   8.258  0.00  0.00    +0.000 A 
ATOM     21  C   UNL     1      46.347   3.411   7.619  0.00  0.00    +0.000 A 
ATOM     22  C   UNL     1      46.228   2.075   8.006  0.00  0.00    +0.000 A 
ATOM     23  C   UNL     1      45.323   1.798   9.013  0.00  0.00    +0.000 A 
ATOM     24  N   UNL     1      44.568   2.731   9.643  0.00  0.00    +0.000 NA
ATOM     25  H   UNL     1      44.569   5.727  10.273  0.00  0.00    +0.000 HD
BRANCH  22  26
ATOM     26  C   UNL     1      47.056   1.036   7.345  0.00  0.00    +0.000 C 
ATOM     27  N   UNL     1      46.820  -0.283   7.624  0.00  0.00    +0.000 N 
ATOM     28  O   UNL     1      47.952   1.345   6.563  0.00  0.00    +0.000 OA
ATOM     29  H   UNL     1      46.120  -0.646   8.251  0.00  0.00    +0.000 HD
ATOM     30  H   UNL     1      47.416  -0.957   7.160  0.00  0.00    +0.000 HD
ENDBRANCH  22  26
ENDBRANCH  17  18
ENDBRANCH  16  17
ENDBRANCH   3  16
TORSDOF 7
ENDMDL
MODEL 2
REMARK VINA RESULT:    -7.599      2.022      2.519
REMARK INTER + INTRA:         -11.439
REMARK INTER:                 -10.453
REMARK INTRA:                  -0.987
REMARK UNBOUND:                -0.731
REMARK  Name = 
REMARK  8 active torsions:
REMARK  status: ('A' for Active; 'I' for Inactive)
REMARK    1  A    between atoms: C_1  and  C_2
REMARK    2  A    between atoms: C_5  and  O_6
REMARK    3  A    between atoms: O_6  and  C_7
REMARK    4  A    between atoms: C_9  and  C_10
REMARK    5  A    between atoms: C_10  and  C_11
REMARK    6  A    between atoms: C_11  and  N_12
REMARK    7  A    between atoms: C_16  and  C_17
REMARK    8  A    between atoms: C_24  and  C_25
REMARK                            x       y       z     vdW  Elec       q    Type
REMARK                         _______ _______ _______ _____ _____    ______ ____
ROOT
ATOM      1  C   UNL     1      47.462   6.484  13.219  0.00  0.00    +0.000 A 
ATOM      2  C   UNL     1      46.407   5.548  13.271  0.00  0.00    +0.000 A 
ATOM      3  C   UNL     1      45.221   5.734  12.541  0.00  0.00    +0.000 A 
ATOM      4  C   UNL     1      45.104   6.869  11.733  0.00  0.00    +0.000 A 
ATOM      5  C   UNL     1      46.149   7.789  11.656  0.00  0.00    +0.000 A 
ATOM      6  C   UNL     1      47.335   7.605  12.385  0.00  0.00    +0.000 A 
ENDROOT
BRANCH   6   7
ATOM      7  C   UNL     1      48.358   8.586  12.178  0.00  0.00    +0.000 C 
ATOM      8  N   UNL     1      49.190   9.387  12.047  0.00  0.00    +0.000 NA
ENDBRANCH   6   7
BRANCH   1   9
ATOM      9  O   UNL     1      48.554   6.136  13.993  0.00  0.00    +0.000 OA
BRANCH   9  14
ATOM     10  C   UNL     1      48.830   8.625  16.883  0.00  0.00    +0.000 C 
ATOM     11  C   UNL     1      49.383   7.814  15.715  0.00  0.00    +0.000 C 
ATOM     12  C   UNL     1      50.567   6.880  16.023  0.00  0.00    +0.000 C 
ATOM     13  N   UNL     1      49.621   5.754  16.157  0.00  0.00    +0.000 NA
ATOM     14  C   UNL     1      48.611   6.513  15.388  0.00  0.00    +0.000 C 
ATOM     15  H   UNL     1      49.329   5.588  17.120  0.00  0.00    +0.000 HD
ENDBRANCH   9  14
ENDBRANCH   1   9
BRANCH   3  16
ATOM     16  C   UNL     1      44.088   4.725  12.579  0.00  0.00    +0.000 C 
BRANCH  16  17
ATOM     17  C   UNL     1      43.537   4.430  11.179  0.00  0.00    +0.000 C 
BRANCH  17  18
ATOM     18  N   UNL     1      43.825   3.048  10.762  0.00  0.00    +0.000 N 
ATOM     19  C   UNL     1      44.688   2.984   9.647  0.00  0.00    +0.000 A 
ATOM     20  C   UNL     1      45.050   1.740   9.136  0.00  0.00    +0.000 A 
ATOM     21  C   UNL     1      45.903   1.670   8.028  0.00  0.00    +0.000 A 
ATOM     22  C   UNL     1      46.383   2.846   7.447  0.00  0.00    +0.000 A 
ATOM     23  C   UNL     1      45.985   4.034   8.030  0.00  0.00    +0.000 A 
ATOM     24  N   UNL     1      45.163   4.124   9.105  0.00  0.00    +0.000 NA
ATOM     25  H   UNL     1      42.981   2.524  10.540  0.00  0.00    +0.000 HD
BRANCH  22  26
ATOM     26  C   UNL     1      47.270   2.777   6.260  0.00  0.00    +0.000 C 
ATOM     27  N   UNL     1      48.608   2.554   6.438  0.00  0.00    +0.000 N 
ATOM     28  O   UNL     1      46.820   2.927   5.126  0.00  0.00    +0.000 OA
ATOM     29  H   UNL     1      49.081   2.425   7.318  0.00  0.00    +0.000 HD
ATOM     30  H   UNL     1      49.177   2.527   5.601  0.00  0.00    +0.000 HD
ENDBRANCH  22  26
ENDBRANCH  17  18
ENDBRANCH  16  17
ENDBRANCH   3  16
TORSDOF 7
ENDMDL
MODEL 3
REMARK VINA RESULT:    -6.721      3.654      7.396
REMARK INTER + INTRA:         -10.203
REMARK INTER:                  -9.149
REMARK INTRA:                  -1.053
REMARK UNBOUND:                -0.731
REMARK  Name = 
REMARK  8 active torsions:
REMARK  status: ('A' for Active; 'I' for Inactive)
REMARK    1  A    between atoms: C_1  and  C_2
REMARK    2  A    between atoms: C_5  and  O_6
REMARK    3  A    between atoms: O_6  and  C_7
REMARK    4  A    between atoms: C_9  and  C_10
REMARK    5  A    between atoms: C_10  and  C_11
REMARK    6  A    between atoms: C_11  and  N_12
REMARK    7  A    between atoms: C_16  and  C_17
REMARK    8  A    between atoms: C_24  and  C_25
REMARK                            x       y       z     vdW  Elec       q    Type
REMARK                         _______ _______ _______ _____ _____    ______ ____
ROOT
ATOM      1  C   UNL     1      44.922   8.292  11.625  0.00  0.00    +0.000 A 
ATOM      2  C   UNL     1      46.241   8.171  12.112  0.00  0.00    +0.000 A 
ATOM      3  C   UNL     1      47.085   9.288  12.239  0.00  0.00    +0.000 A 
ATOM      4  C   UNL     1      46.587  10.545  11.886  0.00  0.00    +0.000 A 
ATOM      5  C   UNL     1      45.278  10.680  11.425  0.00  0.00    +0.000 A 
ATOM      6  C   UNL     1      44.434   9.565  11.298  0.00  0.00    +0.000 A 
ENDROOT
BRANCH   6   7
ATOM      7  C   UNL     1      43.094   9.838  10.870  0.00  0.00    +0.000 C 
ATOM      8  N   UNL     1      42.014  10.096  10.527  0.00  0.00    +0.000 NA
ENDBRANCH   6   7
BRANCH   1   9
ATOM      9  O   UNL     1      44.235   7.094  11.576  0.00  0.00    +0.000 OA
BRANCH   9  14
ATOM     10  C   UNL     1      45.661   3.719  12.673  0.00  0.00    +0.000 C 
ATOM     11  C   UNL     1      44.650   4.614  11.964  0.00  0.00    +0.000 C 
ATOM     12  C   UNL     1      43.176   4.454  12.378  0.00  0.00    +0.000 C 
ATOM     13  N   UNL     1      43.325   5.607  13.289  0.00  0.00    +0.000 NA
ATOM     14  C   UNL     1      44.519   6.047  12.534  0.00  0.00    +0.000 C 
ATOM     15  H   UNL     1      43.552   5.335  14.245  0.00  0.00    +0.000 HD
ENDBRANCH   9  14
ENDBRANCH   1   9
BRANCH   3  16
ATOM     16  C   UNL     1      48.499   9.168  12.776  0.00  0.00    +0.000 C 
BRANCH  16  17
ATOM     17  C   UNL     1      48.869   7.714  13.096  0.00  0.00    +0.000 C 
BRANCH  17  18
ATOM     18  N   UNL     1      49.589   7.606  14.375  0.00  0.00    +0.000 N 
ATOM     19  C   UNL     1      49.090   6.572  15.194  0.00  0.00    +0.000 A 
ATOM     20  C   UNL     1      49.671   6.348  16.440  0.00  0.00    +0.000 A 
ATOM     21  C   UNL     1      49.178   5.327  17.261  0.00  0.00    +0.000 A 
ATOM     22  C   UNL     1      48.111   4.540  16.822  0.00  0.00    +0.000 A 
ATOM     23  C   UNL     1      47.607   4.821  15.566  0.00  0.00    +0.000 A 
ATOM     24  N   UNL     1      48.072   5.804  14.755  0.00  0.00    +0.000 NA
ATOM     25  H   UNL     1      49.567   8.472  14.909  0.00  0.00    +0.000 HD
BRANCH  22  26
ATOM     26  C   UNL     1      47.571   3.470  17.696  0.00  0.00    +0.000 C 
ATOM     27  N   UNL     1      48.269   3.107  18.815  0.00  0.00    +0.000 N 
ATOM     28  O   UNL     1      46.516   2.903  17.422  0.00  0.00    +0.000 OA
ATOM     29  H   UNL     1      49.143   3.498  19.129  0.00  0.00    +0.000 HD
ATOM     30  H   UNL     1      47.870   2.364  19.376  0.00  0.00    +0.000 HD
ENDBRANCH  22  26
ENDBRANCH  17  18
ENDBRANCH  16  17
ENDBRANCH   3  16
TORSDOF 7
ENDMDL
MODEL 4
REMARK VINA RESULT:    -6.447      3.359      7.663
REMARK INTER + INTRA:          -9.816
REMARK INTER:                  -8.502
REMARK INTRA:                  -1.314
REMARK UNBOUND:                -0.731
REMARK  Name = 
REMARK  8 active torsions:
REMARK  status: ('A' for Active; 'I' for Inactive)
REMARK    1  A    between atoms: C_1  and  C_2
REMARK    2  A    between atoms: C_5  and  O_6
REMARK    3  A    between atoms: O_6  and  C_7
REMARK    4  A    between atoms: C_9  and  C_10
REMARK    5  A    between atoms: C_10  and  C_11
REMARK    6  A    between atoms: C_11  and  N_12
REMARK    7  A    between atoms: C_16  and  C_17
REMARK    8  A    between atoms: C_24  and  C_25
REMARK                            x       y       z     vdW  Elec       q    Type
REMARK                         _______ _______ _______ _____ _____    ______ ____
ROOT
ATOM      1  C   UNL     1      46.385   4.670  13.661  0.00  0.00    +0.000 A 
ATOM      2  C   UNL     1      47.335   5.710  13.591  0.00  0.00    +0.000 A 
ATOM      3  C   UNL     1      47.422   6.555  12.470  0.00  0.00    +0.000 A 
ATOM      4  C   UNL     1      46.527   6.358  11.414  0.00  0.00    +0.000 A 
ATOM      5  C   UNL     1      45.570   5.346  11.482  0.00  0.00    +0.000 A 
ATOM      6  C   UNL     1      45.482   4.502  12.601  0.00  0.00    +0.000 A 
ENDROOT
BRANCH   6   7
ATOM      7  C   UNL     1      44.420   3.540  12.580  0.00  0.00    +0.000 C 
ATOM      8  N   UNL     1      43.584   2.734  12.571  0.00  0.00    +0.000 NA
ENDBRANCH   6   7
BRANCH   1   9
ATOM      9  O   UNL     1      46.437   3.947  14.838  0.00  0.00    +0.000 OA
BRANCH   9  14
ATOM     10  C   UNL     1      49.365   2.528  16.849  0.00  0.00    +0.000 C 
ATOM     11  C   UNL     1      47.888   2.807  16.590  0.00  0.00    +0.000 C 
ATOM     12  C   UNL     1      47.127   3.574  17.686  0.00  0.00    +0.000 C 
ATOM     13  N   UNL     1      47.337   4.826  16.932  0.00  0.00    +0.000 NA
ATOM     14  C   UNL     1      47.592   4.042  15.704  0.00  0.00    +0.000 C 
ATOM     15  H   UNL     1      48.160   5.344  17.238  0.00  0.00    +0.000 HD
ENDBRANCH   9  14
ENDBRANCH   1   9
BRANCH   3  16
ATOM     16  C   UNL     1      48.430   7.686  12.394  0.00  0.00    +0.000 C 
BRANCH  16  17
ATOM     17  C   UNL     1      49.476   7.597  13.512  0.00  0.00    +0.000 C 
BRANCH  17  18
ATOM     18  N   UNL     1      49.029   8.290  14.731  0.00  0.00    +0.000 N 
ATOM     19  C   UNL     1      49.448   7.641  15.911  0.00  0.00    +0.000 A 
ATOM     20  C   UNL     1      49.097   8.180  17.147  0.00  0.00    +0.000 A 
ATOM     21  C   UNL     1      49.506   7.539  18.322  0.00  0.00    +0.000 A 
ATOM     22  C   UNL     1      50.263   6.367  18.245  0.00  0.00    +0.000 A 
ATOM     23  C   UNL     1      50.579   5.914  16.978  0.00  0.00    +0.000 A 
ATOM     24  N   UNL     1      50.195   6.521  15.828  0.00  0.00    +0.000 NA
ATOM     25  H   UNL     1      48.017   8.396  14.770  0.00  0.00    +0.000 HD
BRANCH  22  26
ATOM     26  C   UNL     1      50.681   5.672  19.487  0.00  0.00    +0.000 C 
ATOM     27  N   UNL     1      50.092   4.482  19.817  0.00  0.00    +0.000 N 
ATOM     28  O   UNL     1      51.538   6.155  20.223  0.00  0.00    +0.000 OA
ATOM     29  H   UNL     1      49.378   4.003  19.293  0.00  0.00    +0.000 HD
ATOM     30  H   UNL     1      50.399   4.050  20.679  0.00  0.00    +0.000 HD
ENDBRANCH  22  26
ENDBRANCH  17  18
ENDBRANCH  16  17
ENDBRANCH   3  16
TORSDOF 7
ENDMDL
MODEL 5
REMARK VINA RESULT:    -6.377      3.055      7.883
REMARK INTER + INTRA:          -9.717
REMARK INTER:                  -9.142
REMARK INTRA:                  -0.575
REMARK UNBOUND:                -0.731
REMARK  Name = 
REMARK  8 active torsions:
REMARK  status: ('A' for Active; 'I' for Inactive)
REMARK    1  A    between atoms: C_1  and  C_2
REMARK    2  A    between atoms: C_5  and  O_6
REMARK    3  A    between atoms: O_6  and  C_7
REMARK    4  A    between atoms: C_9  and  C_10
REMARK    5  A    between atoms: C_10  and  C_11
REMARK    6  A    between atoms: C_11  and  N_12
REMARK    7  A    between atoms: C_16  and  C_17
REMARK    8  A    between atoms: C_24  and  C_25
REMARK                            x       y       z     vdW  Elec       q    Type
REMARK                         _______ _______ _______ _____ _____    ______ ____
ROOT
ATOM      1  C   UNL     1      46.353   6.883  12.143  0.00  0.00    +0.000 A 
ATOM      2  C   UNL     1      47.422   6.518  12.988  0.00  0.00    +0.000 A 
ATOM      3  C   UNL     1      48.007   7.439  13.876  0.00  0.00    +0.000 A 
ATOM      4  C   UNL     1      47.494   8.738  13.925  0.00  0.00    +0.000 A 
ATOM      5  C   UNL     1      46.422   9.103  13.111  0.00  0.00    +0.000 A 
ATOM      6  C   UNL     1      45.838   8.185  12.223  0.00  0.00    +0.000 A 
ENDROOT
BRANCH   6   7
ATOM      7  C   UNL     1      44.706   8.660  11.483  0.00  0.00    +0.000 C 
ATOM      8  N   UNL     1      43.808   9.076  10.876  0.00  0.00    +0.000 NA
ENDBRANCH   6   7
BRANCH   1   9
ATOM      9  O   UNL     1      45.898   5.851  11.344  0.00  0.00    +0.000 OA
BRANCH   9  14
ATOM     10  C   UNL     1      43.576   2.893  12.043  0.00  0.00    +0.000 C 
ATOM     11  C   UNL     1      44.461   3.761  11.153  0.00  0.00    +0.000 C 
ATOM     12  C   UNL     1      43.804   4.353   9.894  0.00  0.00    +0.000 C 
ATOM     13  N   UNL     1      43.574   5.613  10.629  0.00  0.00    +0.000 NA
ATOM     14  C   UNL     1      44.617   5.232  11.606  0.00  0.00    +0.000 C 
ATOM     15  H   UNL     1      42.648   5.666  11.053  0.00  0.00    +0.000 HD
ENDBRANCH   9  14
ENDBRANCH   1   9
BRANCH   3  16
ATOM     16  C   UNL     1      49.147   7.051  14.799  0.00  0.00    +0.000 C 
BRANCH  16  17
ATOM     17  C   UNL     1      48.665   6.812  16.235  0.00  0.00    +0.000 C 
BRANCH  17  18
ATOM     18  N   UNL     1      48.106   5.461  16.403  0.00  0.00    +0.000 N 
ATOM     19  C   UNL     1      49.077   4.515  16.796  0.00  0.00    +0.000 A 
ATOM     20  C   UNL     1      48.697   3.190  16.992  0.00  0.00    +0.000 A 
ATOM     21  C   UNL     1      49.656   2.246  17.379  0.00  0.00    +0.000 A 
ATOM     22  C   UNL     1      50.982   2.641  17.565  0.00  0.00    +0.000 A 
ATOM     23  C   UNL     1      51.265   3.980  17.364  0.00  0.00    +0.000 A 
ATOM     24  N   UNL     1      50.351   4.910  16.993  0.00  0.00    +0.000 NA
ATOM     25  H   UNL     1      47.655   5.118  15.558  0.00  0.00    +0.000 HD
BRANCH  22  26
ATOM     26  C   UNL     1      52.006   1.641  17.954  0.00  0.00    +0.000 C 
ATOM     27  N   UNL     1      51.645   0.326  18.067  0.00  0.00    +0.000 N 
ATOM     28  O   UNL     1      53.165   1.979  18.184  0.00  0.00    +0.000 OA
ATOM     29  H   UNL     1      50.727  -0.059  17.909  0.00  0.00    +0.000 HD
ATOM     30  H   UNL     1      52.374  -0.320  18.346  0.00  0.00    +0.000 HD
ENDBRANCH  22  26
ENDBRANCH  17  18
ENDBRANCH  16  17
ENDBRANCH   3  16
TORSDOF 7
ENDMDL
MODEL 6
REMARK VINA RESULT:    -6.193      3.919      7.639
REMARK INTER + INTRA:          -9.458
REMARK INTER:                  -8.062
REMARK INTRA:                  -1.396
REMARK UNBOUND:                -0.731
REMARK  Name = 
REMARK  8 active torsions:
REMARK  status: ('A' for Active; 'I' for Inactive)
REMARK    1  A    between atoms: C_1  and  C_2
REMARK    2  A    between atoms: C_5  and  O_6
REMARK    3  A    between atoms: O_6  and  C_7
REMARK    4  A    between atoms: C_9  and  C_10
REMARK    5  A    between atoms: C_10  and  C_11
REMARK    6  A    between atoms: C_11  and  N_12
REMARK    7  A    between atoms: C_16  and  C_17
REMARK    8  A    between atoms: C_24  and  C_25
REMARK                            x       y       z     vdW  Elec       q    Type
REMARK                         _______ _______ _______ _____ _____    ______ ____
ROOT
ATOM      1  C   UNL     1      48.190   8.356  13.596  0.00  0.00    +0.000 A 
ATOM      2  C   UNL     1      47.750   8.734  14.881  0.00  0.00    +0.000 A 
ATOM      3  C   UNL     1      48.643   8.857  15.960  0.00  0.00    +0.000 A 
ATOM      4  C   UNL     1      50.000   8.611  15.735  0.00  0.00    +0.000 A 
ATOM      5  C   UNL     1      50.451   8.257  14.463  0.00  0.00    +0.000 A 
ATOM      6  C   UNL     1      49.560   8.135  13.385  0.00  0.00    +0.000 A 
ENDROOT
BRANCH   6   7
ATOM      7  C   UNL     1      50.148   7.825  12.116  0.00  0.00    +0.000 C 
ATOM      8  N   UNL     1      50.619   7.538  11.094  0.00  0.00    +0.000 NA
ENDBRANCH   6   7
BRANCH   1   9
ATOM      9  O   UNL     1      47.178   8.294  12.656  0.00  0.00    +0.000 OA
BRANCH   9  14
ATOM     10  C   UNL     1      45.736   4.854  13.495  0.00  0.00    +0.000 C 
ATOM     11  C   UNL     1      46.518   5.838  12.632  0.00  0.00    +0.000 C 
ATOM     12  C   UNL     1      46.050   6.001  11.175  0.00  0.00    +0.000 C 
ATOM     13  N   UNL     1      45.283   7.198  11.572  0.00  0.00    +0.000 NA
ATOM     14  C   UNL     1      46.114   7.324  12.790  0.00  0.00    +0.000 C 
ATOM     15  H   UNL     1      44.308   6.994  11.790  0.00  0.00    +0.000 HD
ENDBRANCH   9  14
ENDBRANCH   1   9
BRANCH   3  16
ATOM     16  C   UNL     1      48.180   9.279  17.342  0.00  0.00    +0.000 C 
BRANCH  16  17
ATOM     17  C   UNL     1      48.435   8.187  18.389  0.00  0.00    +0.000 C 
BRANCH  17  18
ATOM     18  N   UNL     1      47.480   7.075  18.258  0.00  0.00    +0.000 N 
ATOM     19  C   UNL     1      48.109   5.852  17.942  0.00  0.00    +0.000 A 
ATOM     20  C   UNL     1      47.333   4.707  17.783  0.00  0.00    +0.000 A 
ATOM     21  C   UNL     1      47.949   3.491  17.466  0.00  0.00    +0.000 A 
ATOM     22  C   UNL     1      49.337   3.437  17.313  0.00  0.00    +0.000 A 
ATOM     23  C   UNL     1      50.029   4.618  17.505  0.00  0.00    +0.000 A 
ATOM     24  N   UNL     1      49.451   5.805  17.815  0.00  0.00    +0.000 NA
ATOM     25  H   UNL     1      46.767   7.255  17.555  0.00  0.00    +0.000 HD
BRANCH  22  26
ATOM     26  C   UNL     1      49.993   2.156  16.956  0.00  0.00    +0.000 C 
ATOM     27  N   UNL     1      50.942   1.636  17.793  0.00  0.00    +0.000 N 
ATOM     28  O   UNL     1      49.704   1.565  15.918  0.00  0.00    +0.000 OA
ATOM     29  H   UNL     1      51.259   2.038  18.661  0.00  0.00    +0.000 HD
ATOM     30  H   UNL     1      51.372   0.766  17.504  0.00  0.00    +0.000 HD
ENDBRANCH  22  26
ENDBRANCH  17  18
ENDBRANCH  16  17
ENDBRANCH   3  16
TORSDOF 7
ENDMDL
MODEL 7
REMARK VINA RESULT:    -6.122      3.671      5.479
REMARK INTER + INTRA:          -9.359
REMARK INTER:                  -8.280
REMARK INTRA:                  -1.079
REMARK UNBOUND:                -0.731
REMARK  Name = 
REMARK  8 active torsions:
REMARK  status: ('A' for Active; 'I' for Inactive)
REMARK    1  A    between atoms: C_1  and  C_2
REMARK    2  A    between atoms: C_5  and  O_6
REMARK    3  A    between atoms: O_6  and  C_7
REMARK    4  A    between atoms: C_9  and  C_10
REMARK    5  A    between atoms: C_10  and  C_11
REMARK    6  A    between atoms: C_11  and  N_12
REMARK    7  A    between atoms: C_16  and  C_17
REMARK    8  A    between atoms: C_24  and  C_25
REMARK                            x       y       z     vdW  Elec       q    Type
REMARK                         _______ _______ _______ _____ _____    ______ ____
ROOT
ATOM      1  C   UNL     1      49.586   6.657  17.137  0.00  0.00    +0.000 A 
ATOM      2  C   UNL     1      49.203   7.159  15.875  0.00  0.00    +0.000 A 
ATOM      3  C   UNL     1      50.151   7.635  14.952  0.00  0.00    +0.000 A 
ATOM      4  C   UNL     1      51.504   7.589  15.301  0.00  0.00    +0.000 A 
ATOM      5  C   UNL     1      51.896   7.074  16.537  0.00  0.00    +0.000 A 
ATOM      6  C   UNL     1      50.950   6.598  17.458  0.00  0.00    +0.000 A 
ENDROOT
BRANCH   6   7
ATOM      7  C   UNL     1      51.477   6.039  18.668  0.00  0.00    +0.000 C 
ATOM      8  N   UNL     1      51.934   5.572  19.629  0.00  0.00    +0.000 NA
ENDBRANCH   6   7
BRANCH   1   9
ATOM      9  O   UNL     1      48.524   6.224  17.909  0.00  0.00    +0.000 OA
BRANCH   9  14
ATOM     10  C   UNL     1      49.198   2.499  17.369  0.00  0.00    +0.000 C 
ATOM     11  C   UNL     1      48.615   3.855  16.987  0.00  0.00    +0.000 C 
ATOM     12  C   UNL     1      47.095   3.912  16.752  0.00  0.00    +0.000 C 
ATOM     13  N   UNL     1      46.916   4.398  18.135  0.00  0.00    +0.000 NA
ATOM     14  C   UNL     1      48.336   4.814  18.170  0.00  0.00    +0.000 C 
ATOM     15  H   UNL     1      46.716   3.651  18.799  0.00  0.00    +0.000 HD
ENDBRANCH   9  14
ENDBRANCH   1   9
BRANCH   3  16
ATOM     16  C   UNL     1      49.750   8.162  13.588  0.00  0.00    +0.000 C 
BRANCH  16  17
ATOM     17  C   UNL     1      49.324   7.033  12.641  0.00  0.00    +0.000 C 
BRANCH  17  18
ATOM     18  N   UNL     1      48.139   7.404  11.851  0.00  0.00    +0.000 N 
ATOM     19  C   UNL     1      47.025   6.583  12.123  0.00  0.00    +0.000 A 
ATOM     20  C   UNL     1      45.828   6.813  11.449  0.00  0.00    +0.000 A 
ATOM     21  C   UNL     1      44.719   5.999  11.711  0.00  0.00    +0.000 A 
ATOM     22  C   UNL     1      44.822   4.968  12.647  0.00  0.00    +0.000 A 
ATOM     23  C   UNL     1      46.043   4.824  13.280  0.00  0.00    +0.000 A 
ATOM     24  N   UNL     1      47.127   5.602  13.043  0.00  0.00    +0.000 NA
ATOM     25  H   UNL     1      48.315   7.377  10.849  0.00  0.00    +0.000 HD
BRANCH  22  26
ATOM     26  C   UNL     1      43.657   4.090  12.913  0.00  0.00    +0.000 C 
ATOM     27  N   UNL     1      43.763   2.747  12.670  0.00  0.00    +0.000 N 
ATOM     28  O   UNL     1      42.601   4.553  13.337  0.00  0.00    +0.000 OA
ATOM     29  H   UNL     1      44.574   2.265  12.318  0.00  0.00    +0.000 HD
ATOM     30  H   UNL     1      42.939   2.188  12.855  0.00  0.00    +0.000 HD
ENDBRANCH  22  26
ENDBRANCH  17  18
ENDBRANCH  16  17
ENDBRANCH   3  16
TORSDOF 7
ENDMDL
MODEL 8
REMARK VINA RESULT:    -6.009      2.724      4.556
REMARK INTER + INTRA:          -9.199
REMARK INTER:                  -8.143
REMARK INTRA:                  -1.056
REMARK UNBOUND:                -0.731
REMARK  Name = 
REMARK  8 active torsions:
REMARK  status: ('A' for Active; 'I' for Inactive)
REMARK    1  A    between atoms: C_1  and  C_2
REMARK    2  A    between atoms: C_5  and  O_6
REMARK    3  A    between atoms: O_6  and  C_7
REMARK    4  A    between atoms: C_9  and  C_10
REMARK    5  A    between atoms: C_10  and  C_11
REMARK    6  A    between atoms: C_11  and  N_12
REMARK    7  A    between atoms: C_16  and  C_17
REMARK    8  A    between atoms: C_24  and  C_25
REMARK                            x       y       z     vdW  Elec       q    Type
REMARK                         _______ _______ _______ _____ _____    ______ ____
ROOT
ATOM      1  C   UNL     1      49.523   6.920  17.002  0.00  0.00    +0.000 A 
ATOM      2  C   UNL     1      49.322   7.021  15.609  0.00  0.00    +0.000 A 
ATOM      3  C   UNL     1      48.646   8.114  15.039  0.00  0.00    +0.000 A 
ATOM      4  C   UNL     1      48.182   9.126  15.884  0.00  0.00    +0.000 A 
ATOM      5  C   UNL     1      48.394   9.048  17.260  0.00  0.00    +0.000 A 
ATOM      6  C   UNL     1      49.070   7.957  17.830  0.00  0.00    +0.000 A 
ENDROOT
BRANCH   6   7
ATOM      7  C   UNL     1      49.279   8.019  19.246  0.00  0.00    +0.000 C 
ATOM      8  N   UNL     1      49.414   8.057  20.399  0.00  0.00    +0.000 NA
ENDBRANCH   6   7
BRANCH   1   9
ATOM      9  O   UNL     1      50.214   5.785  17.384  0.00  0.00    +0.000 OA
BRANCH   9  14
ATOM     10  C   UNL     1      47.181   3.461  17.226  0.00  0.00    +0.000 C 
ATOM     11  C   UNL     1      48.098   4.474  17.905  0.00  0.00    +0.000 C 
ATOM     12  C   UNL     1      48.716   4.052  19.250  0.00  0.00    +0.000 C 
ATOM     13  N   UNL     1      49.945   3.649  18.539  0.00  0.00    +0.000 NA
ATOM     14  C   UNL     1      49.557   4.496  17.390  0.00  0.00    +0.000 C 
ATOM     15  H   UNL     1      49.962   2.658  18.299  0.00  0.00    +0.000 HD
ENDBRANCH   9  14
ENDBRANCH   1   9
BRANCH   3  16
ATOM     16  C   UNL     1      48.439   8.237  13.542  0.00  0.00    +0.000 C 
BRANCH  16  17
ATOM     17  C   UNL     1      46.963   8.080  13.153  0.00  0.00    +0.000 C 
BRANCH  17  18
ATOM     18  N   UNL     1      46.400   6.817  13.655  0.00  0.00    +0.000 N 
ATOM     19  C   UNL     1      45.962   5.966  12.618  0.00  0.00    +0.000 A 
ATOM     20  C   UNL     1      45.403   4.731  12.940  0.00  0.00    +0.000 A 
ATOM     21  C   UNL     1      44.963   3.884  11.916  0.00  0.00    +0.000 A 
ATOM     22  C   UNL     1      45.090   4.282  10.584  0.00  0.00    +0.000 A 
ATOM     23  C   UNL     1      45.672   5.516  10.357  0.00  0.00    +0.000 A 
ATOM     24  N   UNL     1      46.107   6.349  11.333  0.00  0.00    +0.000 NA
ATOM     25  H   UNL     1      45.622   6.964  14.294  0.00  0.00    +0.000 HD
BRANCH  22  26
ATOM     26  C   UNL     1      44.607   3.397   9.497  0.00  0.00    +0.000 C 
ATOM     27  N   UNL     1      44.408   2.068   9.756  0.00  0.00    +0.000 N 
ATOM     28  O   UNL     1      44.393   3.838   8.370  0.00  0.00    +0.000 OA
ATOM     29  H   UNL     1      44.558   1.601  10.636  0.00  0.00    +0.000 HD
ATOM     30  H   UNL     1      44.089   1.499   8.982  0.00  0.00    +0.000 HD
ENDBRANCH  22  26
ENDBRANCH  17  18
ENDBRANCH  16  17
ENDBRANCH   3  16
TORSDOF 7
ENDMDL
