MODEL 1
REMARK VINA RESULT:    -7.662      0.000      0.000
REMARK INTER + INTRA:          -9.530
REMARK INTER:                  -9.230
REMARK INTRA:                  -0.300
REMARK UNBOUND:                -0.300
REMARK  Name = 
REMARK  4 active torsions:
REMARK  status: ('A' for Active; 'I' for Inactive)
REMARK    1  A    between atoms: N_1  and  C_2
REMARK    2  A    between atoms: C_2  and  C_3
REMARK    3  A    between atoms: C_7  and  C_8
REMARK    4  A    between atoms: C_8  and  N_9
REMARK                            x       y       z     vdW  Elec       q    Type
REMARK                         _______ _______ _______ _____ _____    ______ ____
ROOT
ATOM      1  C   UNL     1      46.539   2.592   6.700  0.00  0.00    +0.000 A 
ATOM      2  C   UNL     1      46.694   1.344   7.319  0.00  0.00    +0.000 A 
ATOM      3  C   UNL     1      45.955   1.017   8.454  0.00  0.00    +0.000 A 
ATOM      4  C   UNL     1      45.073   1.946   9.008  0.00  0.00    +0.000 A 
ATOM      5  C   UNL     1      44.931   3.217   8.434  0.00  0.00    +0.000 A 
ATOM      6  C   UNL     1      45.659   3.523   7.271  0.00  0.00    +0.000 A 
ENDROOT
BRANCH   1   7
ATOM      7  C   UNL     1      47.341   2.945   5.472  0.00  0.00    +0.000 C 
BRANCH   7   8
ATOM      8  N   UNL     1      48.458   2.026   5.271  0.00  0.00    +0.000 NA
ATOM      9  H   UNL     1      49.323   2.560   5.229  0.00  0.00    +0.000 HD
ATOM     10  H   UNL     1      48.348   1.579   4.361  0.00  0.00    +0.000 HD
ENDBRANCH   7   8
ENDBRANCH   1   7
BRANCH   5  11
ATOM     11  C   UNL     1      44.061   4.269   9.083  0.00  0.00    +0.000 C 
BRANCH  11  12
ATOM     12  N   UNL     1      44.193   4.245  10.534  0.00  0.00    +0.000 N 
ATOM     13  C   UNL     1      43.413   3.494  11.386  0.00  0.00    +0.000 A 
ATOM     14  C   UNL     1      43.847   3.728  12.675  0.00  0.00    +0.000 A 
ATOM     15  C   UNL     1      44.914   4.661  12.607  0.00  0.00    +0.000 A 
ATOM     16  C   UNL     1      45.762   5.274  13.544  0.00  0.00    +0.000 A 
ATOM     17  C   UNL     1      46.721   6.165  13.064  0.00  0.00    +0.000 A 
ATOM     18  C   UNL     1      46.779   6.416  11.700  0.00  0.00    +0.000 A 
ATOM     19  N   UNL     1      45.987   5.860  10.755  0.00  0.00    +0.000 NA
ATOM     20  C   UNL     1      45.089   4.987  11.262  0.00  0.00    +0.000 A 
ENDBRANCH  11  12
ENDBRANCH   5  11
TORSDOF 4
ENDMDL
MODEL 2
REMARK VINA RESULT:    -7.651      1.835      6.103
REMARK INTER + INTRA:          -9.516
REMARK INTER:                  -9.145
REMARK INTRA:                  -0.370
REMARK UNBOUND:                -0.300
REMARK  Name = 
REMARK  4 active torsions:
REMARK  status: ('A' for Active; 'I' for Inactive)
REMARK    1  A    between atoms: N_1  and  C_2
REMARK    2  A    between atoms: C_2  and  C_3
REMARK    3  A    between atoms: C_7  and  C_8
REMARK    4  A    between atoms: C_8  and  N_9
REMARK                            x       y       z     vdW  Elec       q    Type
REMARK                         _______ _______ _______ _____ _____    ______ ____
ROOT
ATOM      1  C   UNL     1      45.292   4.582  13.160  0.00  0.00    +0.000 A 
ATOM      2  C   UNL     1      44.203   5.452  13.305  0.00  0.00    +0.000 A 
ATOM      3  C   UNL     1      43.098   5.354  12.461  0.00  0.00    +0.000 A 
ATOM      4  C   UNL     1      43.078   4.406  11.439  0.00  0.00    +0.000 A 
ATOM      5  C   UNL     1      44.173   3.552  11.243  0.00  0.00    +0.000 A 
ATOM      6  C   UNL     1      45.268   3.640  12.120  0.00  0.00    +0.000 A 
ENDROOT
BRANCH   1   7
ATOM      7  C   UNL     1      46.488   4.690  14.072  0.00  0.00    +0.000 C 
BRANCH   7   8
ATOM      8  N   UNL     1      47.246   3.443  14.122  0.00  0.00    +0.000 NA
ATOM      9  H   UNL     1      47.622   3.321  15.060  0.00  0.00    +0.000 HD
ATOM     10  H   UNL     1      48.047   3.527  13.497  0.00  0.00    +0.000 HD
ENDBRANCH   7   8
ENDBRANCH   1   7
BRANCH   5  11
ATOM     11  C   UNL     1      44.211   2.593  10.076  0.00  0.00    +0.000 C 
BRANCH  11  12
ATOM     12  N   UNL     1      45.108   3.067   9.029  0.00  0.00    +0.000 N 
ATOM     13  C   UNL     1      45.250   4.383   8.647  0.00  0.00    +0.000 A 
ATOM     14  C   UNL     1      46.194   4.434   7.642  0.00  0.00    +0.000 A 
ATOM     15  C   UNL     1      46.631   3.106   7.394  0.00  0.00    +0.000 A 
ATOM     16  C   UNL     1      47.562   2.508   6.530  0.00  0.00    +0.000 A 
ATOM     17  C   UNL     1      47.708   1.123   6.591  0.00  0.00    +0.000 A 
ATOM     18  C   UNL     1      46.920   0.406   7.482  0.00  0.00    +0.000 A 
ATOM     19  N   UNL     1      46.007   0.926   8.333  0.00  0.00    +0.000 NA
ATOM     20  C   UNL     1      45.915   2.273   8.255  0.00  0.00    +0.000 A 
ENDBRANCH  11  12
ENDBRANCH   5  11
TORSDOF 4
ENDMDL
MODEL 3
REMARK VINA RESULT:    -6.913      1.546      2.178
REMARK INTER + INTRA:          -8.628
REMARK INTER:                  -8.300
REMARK INTRA:                  -0.328
REMARK UNBOUND:                -0.300
REMARK  Name = 
REMARK  4 active torsions:
REMARK  status: ('A' for Active; 'I' for Inactive)
REMARK    1  A    between atoms: N_1  and  C_2
REMARK    2  A    between atoms: C_2  and  C_3
REMARK    3  A    between atoms: C_7  and  C_8
REMARK    4  A    between atoms: C_8  and  N_9
REMARK                            x       y       z     vdW  Elec       q    Type
REMARK                         _______ _______ _______ _____ _____    ______ ____
ROOT
ATOM      1  C   UNL     1      46.605   1.890   7.541  0.00  0.00    +0.000 A 
ATOM      2  C   UNL     1      46.870   3.055   6.809  0.00  0.00    +0.000 A 
ATOM      3  C   UNL     1      46.407   4.293   7.251  0.00  0.00    +0.000 A 
ATOM      4  C   UNL     1      45.644   4.381   8.415  0.00  0.00    +0.000 A 
ATOM      5  C   UNL     1      45.327   3.225   9.144  0.00  0.00    +0.000 A 
ATOM      6  C   UNL     1      45.826   1.987   8.704  0.00  0.00    +0.000 A 
ENDROOT
BRANCH   1   7
ATOM      7  C   UNL     1      47.105   0.550   7.061  0.00  0.00    +0.000 C 
BRANCH   7   8
ATOM      8  N   UNL     1      46.680  -0.535   7.940  0.00  0.00    +0.000 NA
ATOM      9  H   UNL     1      46.092  -0.153   8.677  0.00  0.00    +0.000 HD
ATOM     10  H   UNL     1      47.504  -0.921   8.398  0.00  0.00    +0.000 HD
ENDBRANCH   7   8
ENDBRANCH   1   7
BRANCH   5  11
ATOM     11  C   UNL     1      44.414   3.291  10.346  0.00  0.00    +0.000 C 
BRANCH  11  12
ATOM     12  N   UNL     1      45.098   3.858  11.501  0.00  0.00    +0.000 N 
ATOM     13  C   UNL     1      45.732   3.127  12.482  0.00  0.00    +0.000 A 
ATOM     14  C   UNL     1      46.267   4.014  13.394  0.00  0.00    +0.000 A 
ATOM     15  C   UNL     1      45.938   5.326  12.962  0.00  0.00    +0.000 A 
ATOM     16  C   UNL     1      46.197   6.623  13.432  0.00  0.00    +0.000 A 
ATOM     17  C   UNL     1      45.683   7.693  12.700  0.00  0.00    +0.000 A 
ATOM     18  C   UNL     1      44.932   7.426  11.563  0.00  0.00    +0.000 A 
ATOM     19  N   UNL     1      44.649   6.201  11.066  0.00  0.00    +0.000 NA
ATOM     20  C   UNL     1      45.185   5.196  11.795  0.00  0.00    +0.000 A 
ENDBRANCH  11  12
ENDBRANCH   5  11
TORSDOF 4
ENDMDL
MODEL 4
REMARK VINA RESULT:    -6.904      1.585      2.204
REMARK INTER + INTRA:          -8.616
REMARK INTER:                  -8.298
REMARK INTRA:                  -0.318
REMARK UNBOUND:                -0.300
REMARK  Name = 
REMARK  4 active torsions:
REMARK  status: ('A' for Active; 'I' for Inactive)
REMARK    1  A    between atoms: N_1  and  C_2
REMARK    2  A    between atoms: C_2  and  C_3
REMARK    3  A    between atoms: C_7  and  C_8
REMARK    4  A    between atoms: C_8  and  N_9
REMARK                            x       y       z     vdW  Elec       q    Type
REMARK                         _______ _______ _______ _____ _____    ______ ____
ROOT
ATOM      1  C   UNL     1      46.625   1.674   7.432  0.00  0.00    +0.000 A 
ATOM      2  C   UNL     1      46.943   2.890   6.813  0.00  0.00    +0.000 A 
ATOM      3  C   UNL     1      46.406   4.088   7.282  0.00  0.00    +0.000 A 
ATOM      4  C   UNL     1      45.518   4.084   8.357  0.00  0.00    +0.000 A 
ATOM      5  C   UNL     1      45.149   2.876   8.967  0.00  0.00    +0.000 A 
ATOM      6  C   UNL     1      45.721   1.679   8.504  0.00  0.00    +0.000 A 
ENDROOT
BRANCH   1   7
ATOM      7  C   UNL     1      47.204   0.378   6.921  0.00  0.00    +0.000 C 
BRANCH   7   8
ATOM      8  N   UNL     1      46.826  -0.754   7.763  0.00  0.00    +0.000 NA
ATOM      9  H   UNL     1      45.822  -0.725   7.925  0.00  0.00    +0.000 HD
ATOM     10  H   UNL     1      47.270  -0.642   8.673  0.00  0.00    +0.000 HD
ENDBRANCH   7   8
ENDBRANCH   1   7
BRANCH   5  11
ATOM     11  C   UNL     1      44.108   2.846  10.063  0.00  0.00    +0.000 C 
BRANCH  11  12
ATOM     12  N   UNL     1      44.182   4.038  10.898  0.00  0.00    +0.000 N 
ATOM     13  C   UNL     1      43.404   5.164  10.739  0.00  0.00    +0.000 A 
ATOM     14  C   UNL     1      43.757   6.066  11.722  0.00  0.00    +0.000 A 
ATOM     15  C   UNL     1      44.791   5.477  12.496  0.00  0.00    +0.000 A 
ATOM     16  C   UNL     1      45.542   5.867  13.616  0.00  0.00    +0.000 A 
ATOM     17  C   UNL     1      46.500   4.974  14.097  0.00  0.00    +0.000 A 
ATOM     18  C   UNL     1      46.676   3.764  13.441  0.00  0.00    +0.000 A 
ATOM     19  N   UNL     1      45.987   3.338  12.358  0.00  0.00    +0.000 NA
ATOM     20  C   UNL     1      45.055   4.224  11.940  0.00  0.00    +0.000 A 
ENDBRANCH  11  12
ENDBRANCH   5  11
TORSDOF 4
ENDMDL
MODEL 5
REMARK VINA RESULT:    -6.857      1.567      5.868
REMARK INTER + INTRA:          -8.559
REMARK INTER:                  -8.078
REMARK INTRA:                  -0.481
REMARK UNBOUND:                -0.300
REMARK  Name = 
REMARK  4 active torsions:
REMARK  status: ('A' for Active; 'I' for Inactive)
REMARK    1  A    between atoms: N_1  and  C_2
REMARK    2  A    between atoms: C_2  and  C_3
REMARK    3  A    between atoms: C_7  and  C_8
REMARK    4  A    between atoms: C_8  and  N_9
REMARK                            x       y       z     vdW  Elec       q    Type
REMARK                         _______ _______ _______ _____ _____    ______ ____
ROOT
ATOM      1  C   UNL     1      45.450   5.630  12.390  0.00  0.00    +0.000 A 
ATOM      2  C   UNL     1      44.259   5.640  13.128  0.00  0.00    +0.000 A 
ATOM      3  C   UNL     1      43.060   5.227  12.549  0.00  0.00    +0.000 A 
ATOM      4  C   UNL     1      43.029   4.829  11.212  0.00  0.00    +0.000 A 
ATOM      5  C   UNL     1      44.198   4.851  10.439  0.00  0.00    +0.000 A 
ATOM      6  C   UNL     1      45.406   5.240  11.043  0.00  0.00    +0.000 A 
ENDROOT
BRANCH   1   7
ATOM      7  C   UNL     1      46.746   6.080  13.018  0.00  0.00    +0.000 C 
BRANCH   7   8
ATOM      8  N   UNL     1      46.925   5.518  14.354  0.00  0.00    +0.000 NA
ATOM      9  H   UNL     1      46.011   5.339  14.763  0.00  0.00    +0.000 HD
ATOM     10  H   UNL     1      47.374   6.220  14.941  0.00  0.00    +0.000 HD
ENDBRANCH   7   8
ENDBRANCH   1   7
BRANCH   5  11
ATOM     11  C   UNL     1      44.159   4.525   8.963  0.00  0.00    +0.000 C 
BRANCH  11  12
ATOM     12  N   UNL     1      44.852   3.275   8.678  0.00  0.00    +0.000 N 
ATOM     13  C   UNL     1      44.607   2.074   9.307  0.00  0.00    +0.000 A 
ATOM     14  C   UNL     1      45.449   1.128   8.759  0.00  0.00    +0.000 A 
ATOM     15  C   UNL     1      46.242   1.776   7.776  0.00  0.00    +0.000 A 
ATOM     16  C   UNL     1      47.246   1.372   6.881  0.00  0.00    +0.000 A 
ATOM     17  C   UNL     1      47.799   2.342   6.046  0.00  0.00    +0.000 A 
ATOM     18  C   UNL     1      47.348   3.651   6.150  0.00  0.00    +0.000 A 
ATOM     19  N   UNL     1      46.390   4.097   6.994  0.00  0.00    +0.000 NA
ATOM     20  C   UNL     1      45.867   3.120   7.768  0.00  0.00    +0.000 A 
ENDBRANCH  11  12
ENDBRANCH   5  11
TORSDOF 4
ENDMDL
MODEL 6
REMARK VINA RESULT:    -6.825      1.731      5.848
REMARK INTER + INTRA:          -8.521
REMARK INTER:                  -8.110
REMARK INTRA:                  -0.412
REMARK UNBOUND:                -0.300
REMARK  Name = 
REMARK  4 active torsions:
REMARK  status: ('A' for Active; 'I' for Inactive)
REMARK    1  A    between atoms: N_1  and  C_2
REMARK    2  A    between atoms: C_2  and  C_3
REMARK    3  A    between atoms: C_7  and  C_8
REMARK    4  A    between atoms: C_8  and  N_9
REMARK                            x       y       z     vdW  Elec       q    Type
REMARK                         _______ _______ _______ _____ _____    ______ ____
ROOT
ATOM      1  C   UNL     1      47.151   5.506  13.940  0.00  0.00    +0.000 A 
ATOM      2  C   UNL     1      48.141   6.431  13.584  0.00  0.00    +0.000 A 
ATOM      3  C   UNL     1      47.967   7.270  12.484  0.00  0.00    +0.000 A 
ATOM      4  C   UNL     1      46.814   7.174  11.705  0.00  0.00    +0.000 A 
ATOM      5  C   UNL     1      45.827   6.227  12.014  0.00  0.00    +0.000 A 
ATOM      6  C   UNL     1      46.001   5.408  13.142  0.00  0.00    +0.000 A 
ENDROOT
BRANCH   1   7
ATOM      7  C   UNL     1      47.342   4.597  15.128  0.00  0.00    +0.000 C 
BRANCH   7   8
ATOM      8  N   UNL     1      47.472   3.199  14.726  0.00  0.00    +0.000 NA
ATOM      9  H   UNL     1      48.110   2.728  15.364  0.00  0.00    +0.000 HD
ATOM     10  H   UNL     1      47.908   3.167  13.805  0.00  0.00    +0.000 HD
ENDBRANCH   7   8
ENDBRANCH   1   7
BRANCH   5  11
ATOM     11  C   UNL     1      44.624   6.039  11.118  0.00  0.00    +0.000 C 
BRANCH  11  12
ATOM     12  N   UNL     1      44.578   4.690  10.569  0.00  0.00    +0.000 N 
ATOM     13  C   UNL     1      43.878   3.637  11.116  0.00  0.00    +0.000 A 
ATOM     14  C   UNL     1      44.068   2.535  10.309  0.00  0.00    +0.000 A 
ATOM     15  C   UNL     1      44.922   2.924   9.243  0.00  0.00    +0.000 A 
ATOM     16  C   UNL     1      45.463   2.285   8.116  0.00  0.00    +0.000 A 
ATOM     17  C   UNL     1      46.287   3.035   7.279  0.00  0.00    +0.000 A 
ATOM     18  C   UNL     1      46.546   4.360   7.605  0.00  0.00    +0.000 A 
ATOM     19  N   UNL     1      46.057   5.024   8.677  0.00  0.00    +0.000 NA
ATOM     20  C   UNL     1      45.247   4.265   9.448  0.00  0.00    +0.000 A 
ENDBRANCH  11  12
ENDBRANCH   5  11
TORSDOF 4
ENDMDL
MODEL 7
REMARK VINA RESULT:    -6.689      1.747      2.322
REMARK INTER + INTRA:          -8.357
REMARK INTER:                  -7.887
REMARK INTRA:                  -0.471
REMARK UNBOUND:                -0.300
REMARK  Name = 
REMARK  4 active torsions:
REMARK  status: ('A' for Active; 'I' for Inactive)
REMARK    1  A    between atoms: N_1  and  C_2
REMARK    2  A    between atoms: C_2  and  C_3
REMARK    3  A    between atoms: C_7  and  C_8
REMARK    4  A    between atoms: C_8  and  N_9
REMARK                            x       y       z     vdW  Elec       q    Type
REMARK                         _______ _______ _______ _____ _____    ______ ____
ROOT
ATOM      1  C   UNL     1      45.917   3.481   7.959  0.00  0.00    +0.000 A 
ATOM      2  C   UNL     1      45.718   2.114   8.193  0.00  0.00    +0.000 A 
ATOM      3  C   UNL     1      44.843   1.683   9.188  0.00  0.00    +0.000 A 
ATOM      4  C   UNL     1      44.178   2.613   9.987  0.00  0.00    +0.000 A 
ATOM      5  C   UNL     1      44.392   3.986   9.803  0.00  0.00    +0.000 A 
ATOM      6  C   UNL     1      45.253   4.408   8.776  0.00  0.00    +0.000 A 
ENDROOT
BRANCH   1   7
ATOM      7  C   UNL     1      46.866   3.946   6.883  0.00  0.00    +0.000 C 
BRANCH   7   8
ATOM      8  N   UNL     1      47.997   3.035   6.727  0.00  0.00    +0.000 NA
ATOM      9  H   UNL     1      47.647   2.084   6.639  0.00  0.00    +0.000 HD
ATOM     10  H   UNL     1      48.553   3.062   7.581  0.00  0.00    +0.000 HD
ENDBRANCH   7   8
ENDBRANCH   1   7
BRANCH   5  11
ATOM     11  C   UNL     1      43.762   5.001  10.729  0.00  0.00    +0.000 C 
BRANCH  11  12
ATOM     12  N   UNL     1      44.742   5.557  11.653  0.00  0.00    +0.000 N 
ATOM     13  C   UNL     1      45.556   4.817  12.482  0.00  0.00    +0.000 A 
ATOM     14  C   UNL     1      46.350   5.694  13.191  0.00  0.00    +0.000 A 
ATOM     15  C   UNL     1      46.000   7.011  12.792  0.00  0.00    +0.000 A 
ATOM     16  C   UNL     1      46.440   8.302  13.124  0.00  0.00    +0.000 A 
ATOM     17  C   UNL     1      45.823   9.380  12.491  0.00  0.00    +0.000 A 
ATOM     18  C   UNL     1      44.800   9.129  11.586  0.00  0.00    +0.000 A 
ATOM     19  N   UNL     1      44.333   7.910  11.232  0.00  0.00    +0.000 NA
ATOM     20  C   UNL     1      44.975   6.895  11.853  0.00  0.00    +0.000 A 
ENDBRANCH  11  12
ENDBRANCH   5  11
TORSDOF 4
ENDMDL
MODEL 8
REMARK VINA RESULT:    -5.971      1.796      6.111
REMARK INTER + INTRA:          -7.492
REMARK INTER:                  -7.058
REMARK INTRA:                  -0.434
REMARK UNBOUND:                -0.300
REMARK  Name = 
REMARK  4 active torsions:
REMARK  status: ('A' for Active; 'I' for Inactive)
REMARK    1  A    between atoms: N_1  and  C_2
REMARK    2  A    between atoms: C_2  and  C_3
REMARK    3  A    between atoms: C_7  and  C_8
REMARK    4  A    between atoms: C_8  and  N_9
REMARK                            x       y       z     vdW  Elec       q    Type
REMARK                         _______ _______ _______ _____ _____    ______ ____
ROOT
ATOM      1  C   UNL     1      45.556   6.105  12.655  0.00  0.00    +0.000 A 
ATOM      2  C   UNL     1      45.971   5.153  13.595  0.00  0.00    +0.000 A 
ATOM      3  C   UNL     1      45.958   3.794  13.285  0.00  0.00    +0.000 A 
ATOM      4  C   UNL     1      45.499   3.364  12.040  0.00  0.00    +0.000 A 
ATOM      5  C   UNL     1      45.037   4.292  11.096  0.00  0.00    +0.000 A 
ATOM      6  C   UNL     1      45.084   5.661  11.410  0.00  0.00    +0.000 A 
ENDROOT
BRANCH   1   7
ATOM      7  C   UNL     1      45.569   7.575  12.993  0.00  0.00    +0.000 C 
BRANCH   7   8
ATOM      8  N   UNL     1      46.256   8.360  11.971  0.00  0.00    +0.000 NA
ATOM      9  H   UNL     1      46.160   7.892  11.073  0.00  0.00    +0.000 HD
ATOM     10  H   UNL     1      47.252   8.371  12.188  0.00  0.00    +0.000 HD
ENDBRANCH   7   8
ENDBRANCH   1   7
BRANCH   5  11
ATOM     11  C   UNL     1      44.438   3.835   9.786  0.00  0.00    +0.000 C 
BRANCH  11  12
ATOM     12  N   UNL     1      45.458   3.708   8.753  0.00  0.00    +0.000 N 
ATOM     13  C   UNL     1      46.068   4.763   8.111  0.00  0.00    +0.000 A 
ATOM     14  C   UNL     1      46.980   4.245   7.214  0.00  0.00    +0.000 A 
ATOM     15  C   UNL     1      46.913   2.830   7.301  0.00  0.00    +0.000 A 
ATOM     16  C   UNL     1      47.577   1.761   6.679  0.00  0.00    +0.000 A 
ATOM     17  C   UNL     1      47.214   0.467   7.051  0.00  0.00    +0.000 A 
ATOM     18  C   UNL     1      46.211   0.299   7.996  0.00  0.00    +0.000 A 
ATOM     19  N   UNL     1      45.535   1.288   8.623  0.00  0.00    +0.000 NA
ATOM     20  C   UNL     1      45.935   2.524   8.248  0.00  0.00    +0.000 A 
ENDBRANCH  11  12
ENDBRANCH   5  11
TORSDOF 4
ENDMDL
MODEL 9
REMARK VINA RESULT:    -5.698      2.392      6.610
REMARK INTER + INTRA:          -7.164
REMARK INTER:                  -6.671
REMARK INTRA:                  -0.493
REMARK UNBOUND:                -0.300
REMARK  Name = 
REMARK  4 active torsions:
REMARK  status: ('A' for Active; 'I' for Inactive)
REMARK    1  A    between atoms: N_1  and  C_2
REMARK    2  A    between atoms: C_2  and  C_3
REMARK    3  A    between atoms: C_7  and  C_8
REMARK    4  A    between atoms: C_8  and  N_9
REMARK                            x       y       z     vdW  Elec       q    Type
REMARK                         _______ _______ _______ _____ _____    ______ ____
ROOT
ATOM      1  C   UNL     1      48.433   8.035  14.114  0.00  0.00    +0.000 A 
ATOM      2  C   UNL     1      49.551   7.771  13.311  0.00  0.00    +0.000 A 
ATOM      3  C   UNL     1      49.396   7.416  11.972  0.00  0.00    +0.000 A 
ATOM      4  C   UNL     1      48.120   7.290  11.423  0.00  0.00    +0.000 A 
ATOM      5  C   UNL     1      46.984   7.507  12.216  0.00  0.00    +0.000 A 
ATOM      6  C   UNL     1      47.154   7.893  13.556  0.00  0.00    +0.000 A 
ENDROOT
BRANCH   1   7
ATOM      7  C   UNL     1      48.602   8.416  15.563  0.00  0.00    +0.000 C 
BRANCH   7   8
ATOM      8  N   UNL     1      47.527   9.290  16.023  0.00  0.00    +0.000 NA
ATOM      9  H   UNL     1      47.583   9.381  17.035  0.00  0.00    +0.000 HD
ATOM     10  H   UNL     1      46.636   8.839  15.821  0.00  0.00    +0.000 HD
ENDBRANCH   7   8
ENDBRANCH   1   7
BRANCH   5  11
ATOM     11  C   UNL     1      45.596   7.271  11.664  0.00  0.00    +0.000 C 
BRANCH  11  12
ATOM     12  N   UNL     1      45.253   5.855  11.681  0.00  0.00    +0.000 N 
ATOM     13  C   UNL     1      44.875   5.146  12.801  0.00  0.00    +0.000 A 
ATOM     14  C   UNL     1      44.621   3.846  12.415  0.00  0.00    +0.000 A 
ATOM     15  C   UNL     1      44.866   3.756  11.019  0.00  0.00    +0.000 A 
ATOM     16  C   UNL     1      44.778   2.737  10.057  0.00  0.00    +0.000 A 
ATOM     17  C   UNL     1      45.115   3.057   8.742  0.00  0.00    +0.000 A 
ATOM     18  C   UNL     1      45.536   4.348   8.454  0.00  0.00    +0.000 A 
ATOM     19  N   UNL     1      45.644   5.365   9.339  0.00  0.00    +0.000 NA
ATOM     20  C   UNL     1      45.286   5.017  10.595  0.00  0.00    +0.000 A 
ENDBRANCH  11  12
ENDBRANCH   5  11
TORSDOF 4
ENDMDL
