MODEL 1
REMARK VINA RESULT:    -8.516      0.000      0.000
REMARK INTER + INTRA:         -13.426
REMARK INTER:                 -12.001
REMARK INTRA:                  -1.426
REMARK UNBOUND:                -1.426
REMARK  Name = 
REMARK  9 active torsions:
REMARK  status: ('A' for Active; 'I' for Inactive)
REMARK    1  A    between atoms: C_1  and  C_2
REMARK    2  A    between atoms: C_2  and  C_3
REMARK    3  A    between atoms: C_2  and  C_4
REMARK    4  A    between atoms: C_2  and  C_15
REMARK    5  A    between atoms: C_4  and  N_5
REMARK    6  A    between atoms: N_5  and  C_6
REMARK    7  A    between atoms: C_9  and  C_10
REMARK    8  A    between atoms: C_17  and  C_18
REMARK    9  A    between atoms: C_21  and  C_22
REMARK                            x       y       z     vdW  Elec       q    Type
REMARK                         _______ _______ _______ _____ _____    ______ ____
ROOT
ATOM      1  C   UNL     1      42.910   5.837  11.497  0.00  0.00    +0.000 C 
ATOM      2  C   UNL     1      43.720   4.722  12.196  0.00  0.00    +0.000 C 
ATOM      3  C   UNL     1      43.044   4.406  13.550  0.00  0.00    +0.000 C 
ENDROOT
BRANCH   2   4
ATOM      4  C   UNL     1      45.140   5.249  12.440  0.00  0.00    +0.000 A 
ATOM      5  C   UNL     1      45.843   4.977  13.614  0.00  0.00    +0.000 A 
ATOM      6  C   UNL     1      47.093   5.549  13.872  0.00  0.00    +0.000 A 
ATOM      7  C   UNL     1      47.638   6.339  12.860  0.00  0.00    +0.000 A 
ATOM      8  C   UNL     1      46.920   6.525  11.689  0.00  0.00    +0.000 A 
ATOM      9  N   UNL     1      45.692   6.011  11.465  0.00  0.00    +0.000 NA
BRANCH   6  10
ATOM     10  C   UNL     1      47.768   5.330  15.171  0.00  0.00    +0.000 A 
ATOM     11  C   UNL     1      48.677   6.264  15.687  0.00  0.00    +0.000 A 
ATOM     12  C   UNL     1      49.291   6.077  16.929  0.00  0.00    +0.000 A 
ATOM     13  C   UNL     1      49.026   4.932  17.690  0.00  0.00    +0.000 A 
ATOM     14  C   UNL     1      48.145   3.972  17.180  0.00  0.00    +0.000 A 
ATOM     15  C   UNL     1      47.525   4.173  15.943  0.00  0.00    +0.000 A 
BRANCH  13  16
ATOM     16  C   UNL     1      49.658   4.734  19.045  0.00  0.00    +0.000 C 
ATOM     17  F   UNL     1      49.917   5.900  19.699  0.00  0.00    +0.000 F 
ATOM     18  F   UNL     1      48.870   4.005  19.882  0.00  0.00    +0.000 F 
ATOM     19  F   UNL     1      50.845   4.072  18.976  0.00  0.00    +0.000 F 
ENDBRANCH  13  16
ENDBRANCH   6  10
ENDBRANCH   2   4
BRANCH   2  20
ATOM     20  C   UNL     1      43.665   3.451  11.287  0.00  0.00    +0.000 C 
BRANCH  20  21
ATOM     21  N   UNL     1      43.602   3.803   9.861  0.00  0.00    +0.000 N 
ATOM     22  H   UNL     1      43.248   4.740   9.687  0.00  0.00    +0.000 HD
BRANCH  21  23
ATOM     23  C   UNL     1      44.624   3.456   8.983  0.00  0.00    +0.000 A 
ATOM     24  C   UNL     1      45.370   4.385   8.261  0.00  0.00    +0.000 A 
ATOM     25  C   UNL     1      46.424   3.978   7.439  0.00  0.00    +0.000 A 
ATOM     26  C   UNL     1      46.771   2.625   7.352  0.00  0.00    +0.000 A 
ATOM     27  C   UNL     1      46.061   1.690   8.097  0.00  0.00    +0.000 A 
ATOM     28  C   UNL     1      45.011   2.104   8.919  0.00  0.00    +0.000 A 
BRANCH  26  29
ATOM     29  C   UNL     1      47.883   2.247   6.443  0.00  0.00    +0.000 C 
ATOM     30  N   UNL     1      47.953   2.875   5.232  0.00  0.00    +0.000 N 
ATOM     31  O   UNL     1      48.695   1.385   6.752  0.00  0.00    +0.000 OA
ATOM     32  H   UNL     1      47.216   3.456   4.861  0.00  0.00    +0.000 HD
ATOM     33  H   UNL     1      48.663   2.542   4.595  0.00  0.00    +0.000 HD
ENDBRANCH  26  29
ENDBRANCH  21  23
ENDBRANCH  20  21
ENDBRANCH   2  20
TORSDOF 7
ENDMDL
MODEL 2
REMARK VINA RESULT:    -8.227      2.728      3.484
REMARK INTER + INTRA:         -13.020
REMARK INTER:                 -11.507
REMARK INTRA:                  -1.513
REMARK UNBOUND:                -1.426
REMARK  Name = 
REMARK  9 active torsions:
REMARK  status: ('A' for Active; 'I' for Inactive)
REMARK    1  A    between atoms: C_1  and  C_2
REMARK    2  A    between atoms: C_2  and  C_3
REMARK    3  A    between atoms: C_2  and  C_4
REMARK    4  A    between atoms: C_2  and  C_15
REMARK    5  A    between atoms: C_4  and  N_5
REMARK    6  A    between atoms: N_5  and  C_6
REMARK    7  A    between atoms: C_9  and  C_10
REMARK    8  A    between atoms: C_17  and  C_18
REMARK    9  A    between atoms: C_21  and  C_22
REMARK                            x       y       z     vdW  Elec       q    Type
REMARK                         _______ _______ _______ _____ _____    ______ ____
ROOT
ATOM      1  C   UNL     1      43.389   4.465  13.649  0.00  0.00    +0.000 C 
ATOM      2  C   UNL     1      44.231   4.452  12.355  0.00  0.00    +0.000 C 
ATOM      3  C   UNL     1      45.322   3.366  12.495  0.00  0.00    +0.000 C 
ENDROOT
BRANCH   2   4
ATOM      4  C   UNL     1      44.891   5.830  12.204  0.00  0.00    +0.000 A 
ATOM      5  C   UNL     1      46.229   6.052  12.529  0.00  0.00    +0.000 A 
ATOM      6  C   UNL     1      46.792   7.332  12.488  0.00  0.00    +0.000 A 
ATOM      7  C   UNL     1      45.970   8.361  12.027  0.00  0.00    +0.000 A 
ATOM      8  C   UNL     1      44.666   8.069  11.661  0.00  0.00    +0.000 A 
ATOM      9  N   UNL     1      44.112   6.840  11.748  0.00  0.00    +0.000 NA
BRANCH   6  10
ATOM     10  C   UNL     1      48.183   7.559  12.941  0.00  0.00    +0.000 A 
ATOM     11  C   UNL     1      49.131   8.170  12.109  0.00  0.00    +0.000 A 
ATOM     12  C   UNL     1      50.436   8.416  12.544  0.00  0.00    +0.000 A 
ATOM     13  C   UNL     1      50.841   8.039  13.830  0.00  0.00    +0.000 A 
ATOM     14  C   UNL     1      49.920   7.399  14.667  0.00  0.00    +0.000 A 
ATOM     15  C   UNL     1      48.613   7.169  14.228  0.00  0.00    +0.000 A 
BRANCH  13  16
ATOM     16  C   UNL     1      52.237   8.327  14.323  0.00  0.00    +0.000 C 
ATOM     17  F   UNL     1      52.768   7.318  15.068  0.00  0.00    +0.000 F 
ATOM     18  F   UNL     1      53.113   8.537  13.302  0.00  0.00    +0.000 F 
ATOM     19  F   UNL     1      52.297   9.441  15.103  0.00  0.00    +0.000 F 
ENDBRANCH  13  16
ENDBRANCH   6  10
ENDBRANCH   2   4
BRANCH   2  20
ATOM     20  C   UNL     1      43.282   4.074  11.171  0.00  0.00    +0.000 C 
BRANCH  20  21
ATOM     21  N   UNL     1      43.742   4.649   9.899  0.00  0.00    +0.000 N 
ATOM     22  H   UNL     1      43.927   5.648   9.946  0.00  0.00    +0.000 HD
BRANCH  21  23
ATOM     23  C   UNL     1      44.657   3.982   9.090  0.00  0.00    +0.000 A 
ATOM     24  C   UNL     1      45.611   4.629   8.308  0.00  0.00    +0.000 A 
ATOM     25  C   UNL     1      46.543   3.902   7.562  0.00  0.00    +0.000 A 
ATOM     26  C   UNL     1      46.554   2.504   7.615  0.00  0.00    +0.000 A 
ATOM     27  C   UNL     1      45.633   1.845   8.422  0.00  0.00    +0.000 A 
ATOM     28  C   UNL     1      44.707   2.577   9.167  0.00  0.00    +0.000 A 
BRANCH  26  29
ATOM     29  C   UNL     1      47.549   1.782   6.782  0.00  0.00    +0.000 C 
ATOM     30  N   UNL     1      48.609   2.498   6.300  0.00  0.00    +0.000 N 
ATOM     31  O   UNL     1      47.417   0.596   6.512  0.00  0.00    +0.000 OA
ATOM     32  H   UNL     1      48.669   3.503   6.344  0.00  0.00    +0.000 HD
ATOM     33  H   UNL     1      49.226   2.010   5.665  0.00  0.00    +0.000 HD
ENDBRANCH  26  29
ENDBRANCH  21  23
ENDBRANCH  20  21
ENDBRANCH   2  20
TORSDOF 7
ENDMDL
MODEL 3
REMARK VINA RESULT:    -7.743      3.733      4.721
REMARK INTER + INTRA:         -12.337
REMARK INTER:                 -11.326
REMARK INTRA:                  -1.011
REMARK UNBOUND:                -1.426
REMARK  Name = 
REMARK  9 active torsions:
REMARK  status: ('A' for Active; 'I' for Inactive)
REMARK    1  A    between atoms: C_1  and  C_2
REMARK    2  A    between atoms: C_2  and  C_3
REMARK    3  A    between atoms: C_2  and  C_4
REMARK    4  A    between atoms: C_2  and  C_15
REMARK    5  A    between atoms: C_4  and  N_5
REMARK    6  A    between atoms: N_5  and  C_6
REMARK    7  A    between atoms: C_9  and  C_10
REMARK    8  A    between atoms: C_17  and  C_18
REMARK    9  A    between atoms: C_21  and  C_22
REMARK                            x       y       z     vdW  Elec       q    Type
REMARK                         _______ _______ _______ _____ _____    ______ ____
ROOT
ATOM      1  C   UNL     1      44.025   5.837  11.239  0.00  0.00    +0.000 C 
ATOM      2  C   UNL     1      44.220   4.767  12.336  0.00  0.00    +0.000 C 
ATOM      3  C   UNL     1      43.011   4.832  13.299  0.00  0.00    +0.000 C 
ENDROOT
BRANCH   2   4
ATOM      4  C   UNL     1      45.507   5.101  13.103  0.00  0.00    +0.000 A 
ATOM      5  C   UNL     1      46.333   6.165  12.740  0.00  0.00    +0.000 A 
ATOM      6  C   UNL     1      47.557   6.395  13.379  0.00  0.00    +0.000 A 
ATOM      7  C   UNL     1      47.868   5.558  14.450  0.00  0.00    +0.000 A 
ATOM      8  C   UNL     1      46.980   4.555  14.804  0.00  0.00    +0.000 A 
ATOM      9  N   UNL     1      45.823   4.306  14.153  0.00  0.00    +0.000 NA
BRANCH   6  10
ATOM     10  C   UNL     1      48.464   7.464  12.905  0.00  0.00    +0.000 A 
ATOM     11  C   UNL     1      49.777   7.572  13.384  0.00  0.00    +0.000 A 
ATOM     12  C   UNL     1      50.648   8.559  12.913  0.00  0.00    +0.000 A 
ATOM     13  C   UNL     1      50.223   9.486  11.954  0.00  0.00    +0.000 A 
ATOM     14  C   UNL     1      48.907   9.415  11.485  0.00  0.00    +0.000 A 
ATOM     15  C   UNL     1      48.046   8.417  11.951  0.00  0.00    +0.000 A 
BRANCH  13  16
ATOM     16  C   UNL     1      51.162  10.535  11.416  0.00  0.00    +0.000 C 
ATOM     17  F   UNL     1      50.594  11.344  10.479  0.00  0.00    +0.000 F 
ATOM     18  F   UNL     1      51.625  11.365  12.391  0.00  0.00    +0.000 F 
ATOM     19  F   UNL     1      52.266   9.998  10.827  0.00  0.00    +0.000 F 
ENDBRANCH  13  16
ENDBRANCH   6  10
ENDBRANCH   2   4
BRANCH   2  20
ATOM     20  C   UNL     1      44.244   3.368  11.640  0.00  0.00    +0.000 C 
BRANCH  20  21
ATOM     21  N   UNL     1      43.811   3.450  10.237  0.00  0.00    +0.000 N 
ATOM     22  H   UNL     1      43.166   4.214  10.054  0.00  0.00    +0.000 HD
BRANCH  21  23
ATOM     23  C   UNL     1      44.704   3.252   9.190  0.00  0.00    +0.000 A 
ATOM     24  C   UNL     1      45.202   4.282   8.396  0.00  0.00    +0.000 A 
ATOM     25  C   UNL     1      46.145   4.028   7.395  0.00  0.00    +0.000 A 
ATOM     26  C   UNL     1      46.631   2.731   7.195  0.00  0.00    +0.000 A 
ATOM     27  C   UNL     1      46.172   1.699   8.007  0.00  0.00    +0.000 A 
ATOM     28  C   UNL     1      45.233   1.961   9.006  0.00  0.00    +0.000 A 
BRANCH  26  29
ATOM     29  C   UNL     1      47.611   2.514   6.102  0.00  0.00    +0.000 C 
ATOM     30  N   UNL     1      48.932   2.432   6.443  0.00  0.00    +0.000 N 
ATOM     31  O   UNL     1      47.258   2.438   4.933  0.00  0.00    +0.000 OA
ATOM     32  H   UNL     1      49.288   2.663   7.358  0.00  0.00    +0.000 HD
ATOM     33  H   UNL     1      49.589   2.372   5.677  0.00  0.00    +0.000 HD
ENDBRANCH  26  29
ENDBRANCH  21  23
ENDBRANCH  20  21
ENDBRANCH   2  20
TORSDOF 7
ENDMDL
MODEL 4
REMARK VINA RESULT:    -7.551      1.567      2.068
REMARK INTER + INTRA:         -12.066
REMARK INTER:                 -10.606
REMARK INTRA:                  -1.460
REMARK UNBOUND:                -1.426
REMARK  Name = 
REMARK  9 active torsions:
REMARK  status: ('A' for Active; 'I' for Inactive)
REMARK    1  A    between atoms: C_1  and  C_2
REMARK    2  A    between atoms: C_2  and  C_3
REMARK    3  A    between atoms: C_2  and  C_4
REMARK    4  A    between atoms: C_2  and  C_15
REMARK    5  A    between atoms: C_4  and  N_5
REMARK    6  A    between atoms: N_5  and  C_6
REMARK    7  A    between atoms: C_9  and  C_10
REMARK    8  A    between atoms: C_17  and  C_18
REMARK    9  A    between atoms: C_21  and  C_22
REMARK                            x       y       z     vdW  Elec       q    Type
REMARK                         _______ _______ _______ _____ _____    ______ ____
ROOT
ATOM      1  C   UNL     1      42.704   5.390  13.009  0.00  0.00    +0.000 C 
ATOM      2  C   UNL     1      43.945   5.028  12.164  0.00  0.00    +0.000 C 
ATOM      3  C   UNL     1      44.493   3.670  12.661  0.00  0.00    +0.000 C 
ENDROOT
BRANCH   2   4
ATOM      4  C   UNL     1      45.002   6.120  12.381  0.00  0.00    +0.000 A 
ATOM      5  C   UNL     1      46.126   5.919  13.182  0.00  0.00    +0.000 A 
ATOM      6  C   UNL     1      47.027   6.953  13.458  0.00  0.00    +0.000 A 
ATOM      7  C   UNL     1      46.788   8.173  12.825  0.00  0.00    +0.000 A 
ATOM      8  C   UNL     1      45.688   8.297  11.992  0.00  0.00    +0.000 A 
ATOM      9  N   UNL     1      44.794   7.310  11.767  0.00  0.00    +0.000 NA
BRANCH   6  10
ATOM     10  C   UNL     1      48.152   6.742  14.396  0.00  0.00    +0.000 A 
ATOM     11  C   UNL     1      48.097   5.755  15.390  0.00  0.00    +0.000 A 
ATOM     12  C   UNL     1      49.171   5.529  16.256  0.00  0.00    +0.000 A 
ATOM     13  C   UNL     1      50.335   6.302  16.165  0.00  0.00    +0.000 A 
ATOM     14  C   UNL     1      50.398   7.314  15.200  0.00  0.00    +0.000 A 
ATOM     15  C   UNL     1      49.325   7.524  14.329  0.00  0.00    +0.000 A 
BRANCH  13  16
ATOM     16  C   UNL     1      51.511   6.048  17.073  0.00  0.00    +0.000 C 
ATOM     17  F   UNL     1      51.421   6.690  18.271  0.00  0.00    +0.000 F 
ATOM     18  F   UNL     1      51.662   4.728  17.369  0.00  0.00    +0.000 F 
ATOM     19  F   UNL     1      52.691   6.446  16.524  0.00  0.00    +0.000 F 
ENDBRANCH  13  16
ENDBRANCH   6  10
ENDBRANCH   2   4
BRANCH   2  20
ATOM     20  C   UNL     1      43.485   4.881  10.677  0.00  0.00    +0.000 C 
BRANCH  20  21
ATOM     21  N   UNL     1      44.540   5.290   9.738  0.00  0.00    +0.000 N 
ATOM     22  H   UNL     1      45.158   6.009  10.106  0.00  0.00    +0.000 HD
BRANCH  21  23
ATOM     23  C   UNL     1      45.221   4.359   8.961  0.00  0.00    +0.000 A 
ATOM     24  C   UNL     1      46.229   4.694   8.061  0.00  0.00    +0.000 A 
ATOM     25  C   UNL     1      46.918   3.706   7.352  0.00  0.00    +0.000 A 
ATOM     26  C   UNL     1      46.627   2.353   7.560  0.00  0.00    +0.000 A 
ATOM     27  C   UNL     1      45.650   2.002   8.485  0.00  0.00    +0.000 A 
ATOM     28  C   UNL     1      44.968   2.993   9.192  0.00  0.00    +0.000 A 
BRANCH  26  29
ATOM     29  C   UNL     1      47.372   1.348   6.761  0.00  0.00    +0.000 C 
ATOM     30  N   UNL     1      48.197   1.809   5.774  0.00  0.00    +0.000 N 
ATOM     31  O   UNL     1      47.237   0.148   6.957  0.00  0.00    +0.000 OA
ATOM     32  H   UNL     1      48.208   2.767   5.458  0.00  0.00    +0.000 HD
ATOM     33  H   UNL     1      48.627   1.108   5.186  0.00  0.00    +0.000 HD
ENDBRANCH  26  29
ENDBRANCH  21  23
ENDBRANCH  20  21
ENDBRANCH   2  20
TORSDOF 7
ENDMDL
MODEL 5
REMARK VINA RESULT:    -7.077      1.793      2.278
REMARK INTER + INTRA:         -11.399
REMARK INTER:                 -10.122
REMARK INTRA:                  -1.277
REMARK UNBOUND:                -1.426
REMARK  Name = 
REMARK  9 active torsions:
REMARK  status: ('A' for Active; 'I' for Inactive)
REMARK    1  A    between atoms: C_1  and  C_2
REMARK    2  A    between atoms: C_2  and  C_3
REMARK    3  A    between atoms: C_2  and  C_4
REMARK    4  A    between atoms: C_2  and  C_15
REMARK    5  A    between atoms: C_4  and  N_5
REMARK    6  A    between atoms: N_5  and  C_6
REMARK    7  A    between atoms: C_9  and  C_10
REMARK    8  A    between atoms: C_17  and  C_18
REMARK    9  A    between atoms: C_21  and  C_22
REMARK                            x       y       z     vdW  Elec       q    Type
REMARK                         _______ _______ _______ _____ _____    ______ ____
ROOT
ATOM      1  C   UNL     1      44.866   6.738  11.065  0.00  0.00    +0.000 C 
ATOM      2  C   UNL     1      44.146   5.651  11.892  0.00  0.00    +0.000 C 
ATOM      3  C   UNL     1      43.140   6.346  12.839  0.00  0.00    +0.000 C 
ENDROOT
BRANCH   2   4
ATOM      4  C   UNL     1      45.202   4.906  12.720  0.00  0.00    +0.000 A 
ATOM      5  C   UNL     1      46.025   5.560  13.638  0.00  0.00    +0.000 A 
ATOM      6  C   UNL     1      47.054   4.891  14.308  0.00  0.00    +0.000 A 
ATOM      7  C   UNL     1      47.163   3.520  14.075  0.00  0.00    +0.000 A 
ATOM      8  C   UNL     1      46.278   2.913  13.198  0.00  0.00    +0.000 A 
ATOM      9  N   UNL     1      45.317   3.572  12.515  0.00  0.00    +0.000 NA
BRANCH   6  10
ATOM     10  C   UNL     1      47.980   5.631  15.195  0.00  0.00    +0.000 A 
ATOM     11  C   UNL     1      48.576   6.833  14.788  0.00  0.00    +0.000 A 
ATOM     12  C   UNL     1      49.424   7.552  15.635  0.00  0.00    +0.000 A 
ATOM     13  C   UNL     1      49.719   7.077  16.918  0.00  0.00    +0.000 A 
ATOM     14  C   UNL     1      49.160   5.864  17.333  0.00  0.00    +0.000 A 
ATOM     15  C   UNL     1      48.302   5.158  16.485  0.00  0.00    +0.000 A 
BRANCH  13  16
ATOM     16  C   UNL     1      50.608   7.859  17.852  0.00  0.00    +0.000 C 
ATOM     17  F   UNL     1      50.031   8.125  19.056  0.00  0.00    +0.000 F 
ATOM     18  F   UNL     1      51.769   7.204  18.132  0.00  0.00    +0.000 F 
ATOM     19  F   UNL     1      50.975   9.065  17.338  0.00  0.00    +0.000 F 
ENDBRANCH  13  16
ENDBRANCH   6  10
ENDBRANCH   2   4
BRANCH   2  20
ATOM     20  C   UNL     1      43.361   4.735  10.897  0.00  0.00    +0.000 C 
BRANCH  20  21
ATOM     21  N   UNL     1      43.836   4.900   9.515  0.00  0.00    +0.000 N 
ATOM     22  H   UNL     1      44.129   5.849   9.295  0.00  0.00    +0.000 HD
BRANCH  21  23
ATOM     23  C   UNL     1      44.645   3.946   8.907  0.00  0.00    +0.000 A 
ATOM     24  C   UNL     1      45.695   4.259   8.047  0.00  0.00    +0.000 A 
ATOM     25  C   UNL     1      46.511   3.258   7.513  0.00  0.00    +0.000 A 
ATOM     26  C   UNL     1      46.306   1.918   7.862  0.00  0.00    +0.000 A 
ATOM     27  C   UNL     1      45.286   1.594   8.751  0.00  0.00    +0.000 A 
ATOM     28  C   UNL     1      44.477   2.600   9.283  0.00  0.00    +0.000 A 
BRANCH  26  29
ATOM     29  C   UNL     1      47.186   0.894   7.246  0.00  0.00    +0.000 C 
ATOM     30  N   UNL     1      46.959  -0.414   7.570  0.00  0.00    +0.000 N 
ATOM     31  O   UNL     1      48.100   1.206   6.494  0.00  0.00    +0.000 OA
ATOM     32  H   UNL     1      46.342  -0.706   8.312  0.00  0.00    +0.000 HD
ATOM     33  H   UNL     1      47.623  -1.086   7.209  0.00  0.00    +0.000 HD
ENDBRANCH  26  29
ENDBRANCH  21  23
ENDBRANCH  20  21
ENDBRANCH   2  20
TORSDOF 7
ENDMDL
MODEL 6
REMARK VINA RESULT:    -7.026      5.117      8.508
REMARK INTER + INTRA:         -11.327
REMARK INTER:                  -9.428
REMARK INTRA:                  -1.898
REMARK UNBOUND:                -1.426
REMARK  Name = 
REMARK  9 active torsions:
REMARK  status: ('A' for Active; 'I' for Inactive)
REMARK    1  A    between atoms: C_1  and  C_2
REMARK    2  A    between atoms: C_2  and  C_3
REMARK    3  A    between atoms: C_2  and  C_4
REMARK    4  A    between atoms: C_2  and  C_15
REMARK    5  A    between atoms: C_4  and  N_5
REMARK    6  A    between atoms: N_5  and  C_6
REMARK    7  A    between atoms: C_9  and  C_10
REMARK    8  A    between atoms: C_17  and  C_18
REMARK    9  A    between atoms: C_21  and  C_22
REMARK                            x       y       z     vdW  Elec       q    Type
REMARK                         _______ _______ _______ _____ _____    ______ ____
ROOT
ATOM      1  C   UNL     1      48.686  10.600  16.696  0.00  0.00    +0.000 C 
ATOM      2  C   UNL     1      49.246   9.167  16.825  0.00  0.00    +0.000 C 
ATOM      3  C   UNL     1      50.653   9.250  17.461  0.00  0.00    +0.000 C 
ENDROOT
BRANCH   2   4
ATOM      4  C   UNL     1      49.353   8.570  15.415  0.00  0.00    +0.000 A 
ATOM      5  C   UNL     1      48.334   7.800  14.854  0.00  0.00    +0.000 A 
ATOM      6  C   UNL     1      48.485   7.174  13.612  0.00  0.00    +0.000 A 
ATOM      7  C   UNL     1      49.673   7.426  12.927  0.00  0.00    +0.000 A 
ATOM      8  C   UNL     1      50.625   8.249  13.507  0.00  0.00    +0.000 A 
ATOM      9  N   UNL     1      50.495   8.812  14.728  0.00  0.00    +0.000 NA
BRANCH   6  10
ATOM     10  C   UNL     1      47.432   6.275  13.089  0.00  0.00    +0.000 A 
ATOM     11  C   UNL     1      46.771   6.550  11.884  0.00  0.00    +0.000 A 
ATOM     12  C   UNL     1      45.799   5.686  11.369  0.00  0.00    +0.000 A 
ATOM     13  C   UNL     1      45.446   4.520  12.059  0.00  0.00    +0.000 A 
ATOM     14  C   UNL     1      46.071   4.242  13.279  0.00  0.00    +0.000 A 
ATOM     15  C   UNL     1      47.051   5.104  13.780  0.00  0.00    +0.000 A 
BRANCH  13  16
ATOM     16  C   UNL     1      44.422   3.565  11.498  0.00  0.00    +0.000 C 
ATOM     17  F   UNL     1      44.925   2.722  10.554  0.00  0.00    +0.000 F 
ATOM     18  F   UNL     1      43.879   2.766  12.458  0.00  0.00    +0.000 F 
ATOM     19  F   UNL     1      43.376   4.206  10.909  0.00  0.00    +0.000 F 
ENDBRANCH  13  16
ENDBRANCH   6  10
ENDBRANCH   2   4
BRANCH   2  20
ATOM     20  C   UNL     1      48.300   8.368  17.779  0.00  0.00    +0.000 C 
BRANCH  20  21
ATOM     21  N   UNL     1      49.049   7.426  18.624  0.00  0.00    +0.000 N 
ATOM     22  H   UNL     1      48.836   7.508  19.615  0.00  0.00    +0.000 HD
BRANCH  21  23
ATOM     23  C   UNL     1      49.247   6.104  18.238  0.00  0.00    +0.000 A 
ATOM     24  C   UNL     1      48.269   5.324  17.626  0.00  0.00    +0.000 A 
ATOM     25  C   UNL     1      48.548   4.020  17.206  0.00  0.00    +0.000 A 
ATOM     26  C   UNL     1      49.831   3.485  17.364  0.00  0.00    +0.000 A 
ATOM     27  C   UNL     1      50.828   4.267  17.938  0.00  0.00    +0.000 A 
ATOM     28  C   UNL     1      50.544   5.569  18.352  0.00  0.00    +0.000 A 
BRANCH  26  29
ATOM     29  C   UNL     1      50.063   2.087  16.923  0.00  0.00    +0.000 C 
ATOM     30  N   UNL     1      50.882   1.309  17.692  0.00  0.00    +0.000 N 
ATOM     31  O   UNL     1      49.563   1.650  15.896  0.00  0.00    +0.000 OA
ATOM     32  H   UNL     1      51.454   1.669  18.441  0.00  0.00    +0.000 HD
ATOM     33  H   UNL     1      51.097   0.390  17.328  0.00  0.00    +0.000 HD
ENDBRANCH  26  29
ENDBRANCH  21  23
ENDBRANCH  20  21
ENDBRANCH   2  20
TORSDOF 7
ENDMDL
MODEL 7
REMARK VINA RESULT:    -6.730      5.731      9.317
REMARK INTER + INTRA:         -10.910
REMARK INTER:                  -9.526
REMARK INTRA:                  -1.385
REMARK UNBOUND:                -1.426
REMARK  Name = 
REMARK  9 active torsions:
REMARK  status: ('A' for Active; 'I' for Inactive)
REMARK    1  A    between atoms: C_1  and  C_2
REMARK    2  A    between atoms: C_2  and  C_3
REMARK    3  A    between atoms: C_2  and  C_4
REMARK    4  A    between atoms: C_2  and  C_15
REMARK    5  A    between atoms: C_4  and  N_5
REMARK    6  A    between atoms: N_5  and  C_6
REMARK    7  A    between atoms: C_9  and  C_10
REMARK    8  A    between atoms: C_17  and  C_18
REMARK    9  A    between atoms: C_21  and  C_22
REMARK                            x       y       z     vdW  Elec       q    Type
REMARK                         _______ _______ _______ _____ _____    ______ ____
ROOT
ATOM      1  C   UNL     1      47.945   3.600  17.989  0.00  0.00    +0.000 C 
ATOM      2  C   UNL     1      48.549   5.012  18.152  0.00  0.00    +0.000 C 
ATOM      3  C   UNL     1      47.666   5.808  19.141  0.00  0.00    +0.000 C 
ENDROOT
BRANCH   2   4
ATOM      4  C   UNL     1      48.530   5.698  16.779  0.00  0.00    +0.000 A 
ATOM      5  C   UNL     1      47.670   5.293  15.757  0.00  0.00    +0.000 A 
ATOM      6  C   UNL     1      47.734   5.854  14.478  0.00  0.00    +0.000 A 
ATOM      7  C   UNL     1      48.645   6.896  14.298  0.00  0.00    +0.000 A 
ATOM      8  C   UNL     1      49.431   7.296  15.367  0.00  0.00    +0.000 A 
ATOM      9  N   UNL     1      49.400   6.718  16.587  0.00  0.00    +0.000 NA
BRANCH   6  10
ATOM     10  C   UNL     1      46.885   5.333  13.383  0.00  0.00    +0.000 A 
ATOM     11  C   UNL     1      46.344   4.041  13.432  0.00  0.00    +0.000 A 
ATOM     12  C   UNL     1      45.514   3.557  12.417  0.00  0.00    +0.000 A 
ATOM     13  C   UNL     1      45.212   4.351  11.304  0.00  0.00    +0.000 A 
ATOM     14  C   UNL     1      45.767   5.633  11.220  0.00  0.00    +0.000 A 
ATOM     15  C   UNL     1      46.585   6.114  12.246  0.00  0.00    +0.000 A 
BRANCH  13  16
ATOM     16  C   UNL     1      44.294   3.852  10.218  0.00  0.00    +0.000 C 
ATOM     17  F   UNL     1      43.660   2.689  10.534  0.00  0.00    +0.000 F 
ATOM     18  F   UNL     1      43.308   4.743   9.922  0.00  0.00    +0.000 F 
ATOM     19  F   UNL     1      44.947   3.615   9.047  0.00  0.00    +0.000 F 
ENDBRANCH  13  16
ENDBRANCH   6  10
ENDBRANCH   2   4
BRANCH   2  20
ATOM     20  C   UNL     1      49.981   4.853  18.759  0.00  0.00    +0.000 C 
BRANCH  20  21
ATOM     21  N   UNL     1      50.983   4.571  17.721  0.00  0.00    +0.000 N 
ATOM     22  H   UNL     1      51.522   5.387  17.441  0.00  0.00    +0.000 HD
BRANCH  21  23
ATOM     23  C   UNL     1      51.759   3.416  17.757  0.00  0.00    +0.000 A 
ATOM     24  C   UNL     1      53.068   3.380  18.229  0.00  0.00    +0.000 A 
ATOM     25  C   UNL     1      53.776   2.177  18.296  0.00  0.00    +0.000 A 
ATOM     26  C   UNL     1      53.166   0.976  17.917  0.00  0.00    +0.000 A 
ATOM     27  C   UNL     1      51.846   0.991  17.480  0.00  0.00    +0.000 A 
ATOM     28  C   UNL     1      51.143   2.196  17.419  0.00  0.00    +0.000 A 
BRANCH  26  29
ATOM     29  C   UNL     1      53.973  -0.268  17.983  0.00  0.00    +0.000 C 
ATOM     30  N   UNL     1      53.967  -0.965  19.159  0.00  0.00    +0.000 N 
ATOM     31  O   UNL     1      54.642  -0.648  17.032  0.00  0.00    +0.000 OA
ATOM     32  H   UNL     1      53.580  -0.605  20.019  0.00  0.00    +0.000 HD
ATOM     33  H   UNL     1      54.591  -1.759  19.212  0.00  0.00    +0.000 HD
ENDBRANCH  26  29
ENDBRANCH  21  23
ENDBRANCH  20  21
ENDBRANCH   2  20
TORSDOF 7
ENDMDL
MODEL 8
REMARK VINA RESULT:    -6.688      5.179      8.646
REMARK INTER + INTRA:         -10.851
REMARK INTER:                  -9.164
REMARK INTRA:                  -1.686
REMARK UNBOUND:                -1.426
REMARK  Name = 
REMARK  9 active torsions:
REMARK  status: ('A' for Active; 'I' for Inactive)
REMARK    1  A    between atoms: C_1  and  C_2
REMARK    2  A    between atoms: C_2  and  C_3
REMARK    3  A    between atoms: C_2  and  C_4
REMARK    4  A    between atoms: C_2  and  C_15
REMARK    5  A    between atoms: C_4  and  N_5
REMARK    6  A    between atoms: N_5  and  C_6
REMARK    7  A    between atoms: C_9  and  C_10
REMARK    8  A    between atoms: C_17  and  C_18
REMARK    9  A    between atoms: C_21  and  C_22
REMARK                            x       y       z     vdW  Elec       q    Type
REMARK                         _______ _______ _______ _____ _____    ______ ____
ROOT
ATOM      1  C   UNL     1      49.627  10.402  12.518  0.00  0.00    +0.000 C 
ATOM      2  C   UNL     1      49.541   8.861  12.567  0.00  0.00    +0.000 C 
ATOM      3  C   UNL     1      50.280   8.293  11.333  0.00  0.00    +0.000 C 
ENDROOT
BRANCH   2   4
ATOM      4  C   UNL     1      48.060   8.465  12.506  0.00  0.00    +0.000 A 
ATOM      5  C   UNL     1      47.631   7.278  11.913  0.00  0.00    +0.000 A 
ATOM      6  C   UNL     1      46.272   6.977  11.769  0.00  0.00    +0.000 A 
ATOM      7  C   UNL     1      45.370   7.886  12.323  0.00  0.00    +0.000 A 
ATOM      8  C   UNL     1      45.857   9.020  12.954  0.00  0.00    +0.000 A 
ATOM      9  N   UNL     1      47.168   9.330  13.047  0.00  0.00    +0.000 NA
BRANCH   6  10
ATOM     10  C   UNL     1      45.842   5.763  11.040  0.00  0.00    +0.000 A 
ATOM     11  C   UNL     1      45.924   5.684   9.643  0.00  0.00    +0.000 A 
ATOM     12  C   UNL     1      45.550   4.526   8.953  0.00  0.00    +0.000 A 
ATOM     13  C   UNL     1      45.065   3.410   9.645  0.00  0.00    +0.000 A 
ATOM     14  C   UNL     1      44.946   3.479  11.037  0.00  0.00    +0.000 A 
ATOM     15  C   UNL     1      45.333   4.635  11.720  0.00  0.00    +0.000 A 
BRANCH  13  16
ATOM     16  C   UNL     1      44.688   2.146   8.915  0.00  0.00    +0.000 C 
ATOM     17  F   UNL     1      43.842   1.344   9.619  0.00  0.00    +0.000 F 
ATOM     18  F   UNL     1      44.064   2.397   7.731  0.00  0.00    +0.000 F 
ATOM     19  F   UNL     1      45.769   1.375   8.612  0.00  0.00    +0.000 F 
ENDBRANCH  13  16
ENDBRANCH   6  10
ENDBRANCH   2   4
BRANCH   2  20
ATOM     20  C   UNL     1      50.271   8.382  13.864  0.00  0.00    +0.000 C 
BRANCH  20  21
ATOM     21  N   UNL     1      49.347   8.290  15.005  0.00  0.00    +0.000 N 
ATOM     22  H   UNL     1      48.519   8.872  14.908  0.00  0.00    +0.000 HD
BRANCH  21  23
ATOM     23  C   UNL     1      49.065   7.071  15.613  0.00  0.00    +0.000 A 
ATOM     24  C   UNL     1      48.021   6.237  15.222  0.00  0.00    +0.000 A 
ATOM     25  C   UNL     1      47.824   4.995  15.833  0.00  0.00    +0.000 A 
ATOM     26  C   UNL     1      48.699   4.553  16.832  0.00  0.00    +0.000 A 
ATOM     27  C   UNL     1      49.770   5.358  17.205  0.00  0.00    +0.000 A 
ATOM     28  C   UNL     1      49.962   6.595  16.588  0.00  0.00    +0.000 A 
BRANCH  26  29
ATOM     29  C   UNL     1      48.427   3.237  17.464  0.00  0.00    +0.000 C 
ATOM     30  N   UNL     1      47.121   2.870  17.626  0.00  0.00    +0.000 N 
ATOM     31  O   UNL     1      49.336   2.515  17.851  0.00  0.00    +0.000 OA
ATOM     32  H   UNL     1      46.344   3.498  17.488  0.00  0.00    +0.000 HD
ATOM     33  H   UNL     1      46.957   2.013  18.136  0.00  0.00    +0.000 HD
ENDBRANCH  26  29
ENDBRANCH  21  23
ENDBRANCH  20  21
ENDBRANCH   2  20
TORSDOF 7
ENDMDL
MODEL 9
REMARK VINA RESULT:    -6.082      5.352      9.047
REMARK INTER + INTRA:          -9.996
REMARK INTER:                  -8.199
REMARK INTRA:                  -1.797
REMARK UNBOUND:                -1.426
REMARK  Name = 
REMARK  9 active torsions:
REMARK  status: ('A' for Active; 'I' for Inactive)
REMARK    1  A    between atoms: C_1  and  C_2
REMARK    2  A    between atoms: C_2  and  C_3
REMARK    3  A    between atoms: C_2  and  C_4
REMARK    4  A    between atoms: C_2  and  C_15
REMARK    5  A    between atoms: C_4  and  N_5
REMARK    6  A    between atoms: N_5  and  C_6
REMARK    7  A    between atoms: C_9  and  C_10
REMARK    8  A    between atoms: C_17  and  C_18
REMARK    9  A    between atoms: C_21  and  C_22
REMARK                            x       y       z     vdW  Elec       q    Type
REMARK                         _______ _______ _______ _____ _____    ______ ____
ROOT
ATOM      1  C   UNL     1      48.629   9.831  15.699  0.00  0.00    +0.000 C 
ATOM      2  C   UNL     1      49.946   9.703  14.904  0.00  0.00    +0.000 C 
ATOM      3  C   UNL     1      50.420  11.123  14.516  0.00  0.00    +0.000 C 
ENDROOT
BRANCH   2   4
ATOM      4  C   UNL     1      49.657   8.892  13.633  0.00  0.00    +0.000 A 
ATOM      5  C   UNL     1      48.474   8.173  13.463  0.00  0.00    +0.000 A 
ATOM      6  C   UNL     1      48.267   7.352  12.349  0.00  0.00    +0.000 A 
ATOM      7  C   UNL     1      49.268   7.355  11.378  0.00  0.00    +0.000 A 
ATOM      8  C   UNL     1      50.396   8.137  11.573  0.00  0.00    +0.000 A 
ATOM      9  N   UNL     1      50.613   8.889  12.673  0.00  0.00    +0.000 NA
BRANCH   6  10
ATOM     10  C   UNL     1      47.049   6.517  12.245  0.00  0.00    +0.000 A 
ATOM     11  C   UNL     1      46.211   6.587  11.124  0.00  0.00    +0.000 A 
ATOM     12  C   UNL     1      45.078   5.775  11.007  0.00  0.00    +0.000 A 
ATOM     13  C   UNL     1      44.739   4.874  12.023  0.00  0.00    +0.000 A 
ATOM     14  C   UNL     1      45.546   4.810  13.164  0.00  0.00    +0.000 A 
ATOM     15  C   UNL     1      46.683   5.616  13.268  0.00  0.00    +0.000 A 
BRANCH  13  16
ATOM     16  C   UNL     1      43.538   3.972  11.894  0.00  0.00    +0.000 C 
ATOM     17  F   UNL     1      43.576   3.171  10.793  0.00  0.00    +0.000 F 
ATOM     18  F   UNL     1      43.403   3.133  12.959  0.00  0.00    +0.000 F 
ATOM     19  F   UNL     1      42.369   4.664  11.813  0.00  0.00    +0.000 F 
ENDBRANCH  13  16
ENDBRANCH   6  10
ENDBRANCH   2   4
BRANCH   2  20
ATOM     20  C   UNL     1      51.010   9.048  15.843  0.00  0.00    +0.000 C 
BRANCH  20  21
ATOM     21  N   UNL     1      51.062   7.589  15.673  0.00  0.00    +0.000 N 
ATOM     22  H   UNL     1      51.943   7.253  15.292  0.00  0.00    +0.000 HD
BRANCH  21  23
ATOM     23  C   UNL     1      50.543   6.728  16.635  0.00  0.00    +0.000 A 
ATOM     24  C   UNL     1      51.221   6.373  17.799  0.00  0.00    +0.000 A 
ATOM     25  C   UNL     1      50.622   5.550  18.758  0.00  0.00    +0.000 A 
ATOM     26  C   UNL     1      49.312   5.092  18.577  0.00  0.00    +0.000 A 
ATOM     27  C   UNL     1      48.609   5.471  17.438  0.00  0.00    +0.000 A 
ATOM     28  C   UNL     1      49.212   6.296  16.487  0.00  0.00    +0.000 A 
BRANCH  26  29
ATOM     29  C   UNL     1      48.736   4.200  19.614  0.00  0.00    +0.000 C 
ATOM     30  N   UNL     1      48.289   2.972  19.216  0.00  0.00    +0.000 N 
ATOM     31  O   UNL     1      48.638   4.557  20.781  0.00  0.00    +0.000 OA
ATOM     32  H   UNL     1      48.185   2.702  18.250  0.00  0.00    +0.000 HD
ATOM     33  H   UNL     1      47.822   2.416  19.920  0.00  0.00    +0.000 HD
ENDBRANCH  26  29
ENDBRANCH  21  23
ENDBRANCH  20  21
ENDBRANCH   2  20
TORSDOF 7
ENDMDL
