MODEL 1
REMARK VINA RESULT:    -8.015      0.000      0.000
REMARK INTER + INTRA:         -12.212
REMARK INTER:                 -10.826
REMARK INTRA:                  -1.386
REMARK UNBOUND:                -1.386
REMARK  Name = 
REMARK  6 active torsions:
REMARK  status: ('A' for Active; 'I' for Inactive)
REMARK    1  A    between atoms: C_2  and  C_3
REMARK    2  A    between atoms: N_7  and  C_8
REMARK    3  A    between atoms: C_8  and  C_9
REMARK    4  A    between atoms: C_13  and  C_14
REMARK    5  A    between atoms: C_18  and  O_19
REMARK    6  A    between atoms: O_19  and  C_20
REMARK                            x       y       z     vdW  Elec       q    Type
REMARK                         _______ _______ _______ _____ _____    ______ ____
ROOT
ATOM      1  C   UNL     1      45.043   5.339  12.203  0.00  0.00    +0.000 A 
ATOM      2  C   UNL     1      45.522   4.365  13.091  0.00  0.00    +0.000 A 
ATOM      3  C   UNL     1      46.786   4.480  13.659  0.00  0.00    +0.000 A 
ATOM      4  C   UNL     1      47.585   5.583  13.354  0.00  0.00    +0.000 A 
ATOM      5  C   UNL     1      47.109   6.626  12.540  0.00  0.00    +0.000 A 
ATOM      6  C   UNL     1      45.808   6.507  12.030  0.00  0.00    +0.000 A 
ENDROOT
BRANCH   5   7
ATOM      7  C   UNL     1      47.980   7.735  12.108  0.00  0.00    +0.000 A 
ATOM      8  C   UNL     1      47.524   9.058  12.143  0.00  0.00    +0.000 A 
ATOM      9  N   UNL     1      48.258  10.142  11.807  0.00  0.00    +0.000 NA
ATOM     10  C   UNL     1      49.532   9.907  11.428  0.00  0.00    +0.000 A 
ATOM     11  C   UNL     1      50.116   8.649  11.390  0.00  0.00    +0.000 A 
ATOM     12  C   UNL     1      49.317   7.549  11.713  0.00  0.00    +0.000 A 
BRANCH  11  13
ATOM     13  O   UNL     1      51.425   8.611  11.007  0.00  0.00    +0.000 OA
BRANCH  13  14
ATOM     14  C   UNL     1      51.869   7.384  10.456  0.00  0.00    +0.000 C 
ATOM     15  F   UNL     1      52.019   7.538   9.118  0.00  0.00    +0.000 F 
ATOM     16  F   UNL     1      53.104   7.142  10.963  0.00  0.00    +0.000 F 
ENDBRANCH  13  14
ENDBRANCH  11  13
ENDBRANCH   5   7
BRANCH   1  17
ATOM     17  C   UNL     1      43.847   5.035  11.302  0.00  0.00    +0.000 C 
ATOM     18  C   UNL     1      42.434   5.193  11.865  0.00  0.00    +0.000 C 
ATOM     19  C   UNL     1      43.012   6.275  11.026  0.00  0.00    +0.000 C 
BRANCH  17  24
ATOM     20  C   UNL     1      46.654   2.648   7.500  0.00  0.00    +0.000 A 
ATOM     21  C   UNL     1      46.485   4.013   7.698  0.00  0.00    +0.000 A 
ATOM     22  C   UNL     1      45.651   4.459   8.726  0.00  0.00    +0.000 A 
ATOM     23  C   UNL     1      44.998   3.540   9.533  0.00  0.00    +0.000 A 
ATOM     24  N   UNL     1      44.031   3.842  10.482  0.00  0.00    +0.000 N 
ATOM     25  N   UNL     1      45.187   2.213   9.364  0.00  0.00    +0.000 NA
ATOM     26  C   UNL     1      46.000   1.794   8.364  0.00  0.00    +0.000 A 
ATOM     27  H   UNL     1      43.758   2.955  10.900  0.00  0.00    +0.000 HD
BRANCH  20  29
ATOM     28  N   UNL     1      48.083   1.741   5.551  0.00  0.00    +0.000 NA
ATOM     29  C   UNL     1      47.435   2.136   6.424  0.00  0.00    +0.000 C 
ENDBRANCH  20  29
ENDBRANCH  17  24
ENDBRANCH   1  17
TORSDOF 6
ENDMDL
MODEL 2
REMARK VINA RESULT:    -7.986      3.787      4.930
REMARK INTER + INTRA:         -12.172
REMARK INTER:                 -11.168
REMARK INTRA:                  -1.005
REMARK UNBOUND:                -1.386
REMARK  Name = 
REMARK  6 active torsions:
REMARK  status: ('A' for Active; 'I' for Inactive)
REMARK    1  A    between atoms: C_2  and  C_3
REMARK    2  A    between atoms: N_7  and  C_8
REMARK    3  A    between atoms: C_8  and  C_9
REMARK    4  A    between atoms: C_13  and  C_14
REMARK    5  A    between atoms: C_18  and  O_19
REMARK    6  A    between atoms: O_19  and  C_20
REMARK                            x       y       z     vdW  Elec       q    Type
REMARK                         _______ _______ _______ _____ _____    ______ ____
ROOT
ATOM      1  C   UNL     1      45.237   5.438  11.804  0.00  0.00    +0.000 A 
ATOM      2  C   UNL     1      45.668   6.723  11.442  0.00  0.00    +0.000 A 
ATOM      3  C   UNL     1      46.642   7.381  12.184  0.00  0.00    +0.000 A 
ATOM      4  C   UNL     1      47.209   6.754  13.295  0.00  0.00    +0.000 A 
ATOM      5  C   UNL     1      46.870   5.433  13.639  0.00  0.00    +0.000 A 
ATOM      6  C   UNL     1      45.927   4.776  12.836  0.00  0.00    +0.000 A 
ENDROOT
BRANCH   5   7
ATOM      7  C   UNL     1      47.363   4.800  14.877  0.00  0.00    +0.000 A 
ATOM      8  C   UNL     1      47.472   3.409  14.974  0.00  0.00    +0.000 A 
ATOM      9  N   UNL     1      47.948   2.739  16.048  0.00  0.00    +0.000 NA
ATOM     10  C   UNL     1      48.364   3.494  17.086  0.00  0.00    +0.000 A 
ATOM     11  C   UNL     1      48.348   4.883  17.099  0.00  0.00    +0.000 A 
ATOM     12  C   UNL     1      47.818   5.539  15.985  0.00  0.00    +0.000 A 
BRANCH  11  13
ATOM     13  O   UNL     1      48.834   5.473  18.228  0.00  0.00    +0.000 OA
BRANCH  13  14
ATOM     14  C   UNL     1      47.876   6.126  19.042  0.00  0.00    +0.000 C 
ATOM     15  F   UNL     1      47.720   7.396  18.596  0.00  0.00    +0.000 F 
ATOM     16  F   UNL     1      46.691   5.494  18.850  0.00  0.00    +0.000 F 
ENDBRANCH  13  14
ENDBRANCH  11  13
ENDBRANCH   5   7
BRANCH   1  17
ATOM     17  C   UNL     1      43.931   4.880  11.239  0.00  0.00    +0.000 C 
ATOM     18  C   UNL     1      42.699   4.814  12.143  0.00  0.00    +0.000 C 
ATOM     19  C   UNL     1      42.839   5.936  11.178  0.00  0.00    +0.000 C 
BRANCH  17  24
ATOM     20  C   UNL     1      46.708   2.577   7.365  0.00  0.00    +0.000 A 
ATOM     21  C   UNL     1      46.517   3.936   7.577  0.00  0.00    +0.000 A 
ATOM     22  C   UNL     1      45.695   4.359   8.624  0.00  0.00    +0.000 A 
ATOM     23  C   UNL     1      45.076   3.421   9.436  0.00  0.00    +0.000 A 
ATOM     24  N   UNL     1      44.122   3.697  10.407  0.00  0.00    +0.000 N 
ATOM     25  N   UNL     1      45.287   2.099   9.254  0.00  0.00    +0.000 NA
ATOM     26  C   UNL     1      46.088   1.703   8.234  0.00  0.00    +0.000 A 
ATOM     27  H   UNL     1      43.875   2.802  10.822  0.00  0.00    +0.000 HD
BRANCH  20  29
ATOM     28  N   UNL     1      48.120   1.686   5.396  0.00  0.00    +0.000 NA
ATOM     29  C   UNL     1      47.478   2.088   6.270  0.00  0.00    +0.000 C 
ENDBRANCH  20  29
ENDBRANCH  17  24
ENDBRANCH   1  17
TORSDOF 6
ENDMDL
MODEL 3
REMARK VINA RESULT:    -7.379      4.133      8.106
REMARK INTER + INTRA:         -11.353
REMARK INTER:                 -10.158
REMARK INTRA:                  -1.195
REMARK UNBOUND:                -1.386
REMARK  Name = 
REMARK  6 active torsions:
REMARK  status: ('A' for Active; 'I' for Inactive)
REMARK    1  A    between atoms: C_2  and  C_3
REMARK    2  A    between atoms: N_7  and  C_8
REMARK    3  A    between atoms: C_8  and  C_9
REMARK    4  A    between atoms: C_13  and  C_14
REMARK    5  A    between atoms: C_18  and  O_19
REMARK    6  A    between atoms: O_19  and  C_20
REMARK                            x       y       z     vdW  Elec       q    Type
REMARK                         _______ _______ _______ _____ _____    ______ ____
ROOT
ATOM      1  C   UNL     1      47.419   7.614  12.471  0.00  0.00    +0.000 A 
ATOM      2  C   UNL     1      46.533   8.697  12.574  0.00  0.00    +0.000 A 
ATOM      3  C   UNL     1      45.242   8.611  12.066  0.00  0.00    +0.000 A 
ATOM      4  C   UNL     1      44.814   7.429  11.457  0.00  0.00    +0.000 A 
ATOM      5  C   UNL     1      45.639   6.291  11.413  0.00  0.00    +0.000 A 
ATOM      6  C   UNL     1      46.914   6.393  11.987  0.00  0.00    +0.000 A 
ENDROOT
BRANCH   5   7
ATOM      7  C   UNL     1      45.253   5.079  10.668  0.00  0.00    +0.000 A 
ATOM      8  C   UNL     1      44.528   4.057  11.290  0.00  0.00    +0.000 A 
ATOM      9  N   UNL     1      44.095   2.929  10.683  0.00  0.00    +0.000 NA
ATOM     10  C   UNL     1      44.379   2.812   9.369  0.00  0.00    +0.000 A 
ATOM     11  C   UNL     1      45.054   3.772   8.626  0.00  0.00    +0.000 A 
ATOM     12  C   UNL     1      45.514   4.908   9.296  0.00  0.00    +0.000 A 
BRANCH  11  13
ATOM     13  O   UNL     1      45.225   3.489   7.303  0.00  0.00    +0.000 OA
BRANCH  13  14
ATOM     14  C   UNL     1      46.567   3.344   6.874  0.00  0.00    +0.000 C 
ATOM     15  F   UNL     1      47.153   2.363   7.601  0.00  0.00    +0.000 F 
ATOM     16  F   UNL     1      46.531   2.912   5.588  0.00  0.00    +0.000 F 
ENDBRANCH  13  14
ENDBRANCH  11  13
ENDBRANCH   5   7
BRANCH   1  17
ATOM     17  C   UNL     1      48.918   7.827  12.676  0.00  0.00    +0.000 C 
ATOM     18  C   UNL     1      49.834   7.881  11.453  0.00  0.00    +0.000 C 
ATOM     19  C   UNL     1      49.391   9.148  12.091  0.00  0.00    +0.000 C 
BRANCH  17  24
ATOM     20  C   UNL     1      48.951   7.021  17.908  0.00  0.00    +0.000 A 
ATOM     21  C   UNL     1      48.637   8.194  17.234  0.00  0.00    +0.000 A 
ATOM     22  C   UNL     1      48.744   8.236  15.842  0.00  0.00    +0.000 A 
ATOM     23  C   UNL     1      49.167   7.111  15.149  0.00  0.00    +0.000 A 
ATOM     24  N   UNL     1      49.462   7.062  13.793  0.00  0.00    +0.000 N 
ATOM     25  N   UNL     1      49.440   5.959  15.799  0.00  0.00    +0.000 NA
ATOM     26  C   UNL     1      49.330   5.933  17.150  0.00  0.00    +0.000 A 
ATOM     27  H   UNL     1      49.735   6.101  13.599  0.00  0.00    +0.000 HD
BRANCH  20  29
ATOM     28  N   UNL     1      48.893   6.898  20.486  0.00  0.00    +0.000 NA
ATOM     29  C   UNL     1      48.927   6.943  19.331  0.00  0.00    +0.000 C 
ENDBRANCH  20  29
ENDBRANCH  17  24
ENDBRANCH   1  17
TORSDOF 6
ENDMDL
MODEL 4
REMARK VINA RESULT:    -6.142      3.236      7.262
REMARK INTER + INTRA:          -9.682
REMARK INTER:                  -8.908
REMARK INTRA:                  -0.774
REMARK UNBOUND:                -1.386
REMARK  Name = 
REMARK  6 active torsions:
REMARK  status: ('A' for Active; 'I' for Inactive)
REMARK    1  A    between atoms: C_2  and  C_3
REMARK    2  A    between atoms: N_7  and  C_8
REMARK    3  A    between atoms: C_8  and  C_9
REMARK    4  A    between atoms: C_13  and  C_14
REMARK    5  A    between atoms: C_18  and  O_19
REMARK    6  A    between atoms: O_19  and  C_20
REMARK                            x       y       z     vdW  Elec       q    Type
REMARK                         _______ _______ _______ _____ _____    ______ ____
ROOT
ATOM      1  C   UNL     1      46.947   7.705  12.909  0.00  0.00    +0.000 A 
ATOM      2  C   UNL     1      46.123   8.834  12.791  0.00  0.00    +0.000 A 
ATOM      3  C   UNL     1      45.012   8.818  11.955  0.00  0.00    +0.000 A 
ATOM      4  C   UNL     1      44.702   7.664  11.234  0.00  0.00    +0.000 A 
ATOM      5  C   UNL     1      45.448   6.483  11.392  0.00  0.00    +0.000 A 
ATOM      6  C   UNL     1      46.528   6.514  12.286  0.00  0.00    +0.000 A 
ENDROOT
BRANCH   5   7
ATOM      7  C   UNL     1      45.214   5.296  10.549  0.00  0.00    +0.000 A 
ATOM      8  C   UNL     1      44.419   4.239  11.007  0.00  0.00    +0.000 A 
ATOM      9  N   UNL     1      44.114   3.131  10.296  0.00  0.00    +0.000 NA
ATOM     10  C   UNL     1      44.610   3.069   9.043  0.00  0.00    +0.000 A 
ATOM     11  C   UNL     1      45.377   4.067   8.456  0.00  0.00    +0.000 A 
ATOM     12  C   UNL     1      45.699   5.183   9.233  0.00  0.00    +0.000 A 
BRANCH  11  13
ATOM     13  O   UNL     1      45.767   3.839   7.170  0.00  0.00    +0.000 OA
BRANCH  13  14
ATOM     14  C   UNL     1      46.941   3.063   7.011  0.00  0.00    +0.000 C 
ATOM     15  F   UNL     1      46.980   2.129   7.991  0.00  0.00    +0.000 F 
ATOM     16  F   UNL     1      46.822   2.394   5.836  0.00  0.00    +0.000 F 
ENDBRANCH  13  14
ENDBRANCH  11  13
ENDBRANCH   5   7
BRANCH   1  17
ATOM     17  C   UNL     1      48.346   7.835  13.509  0.00  0.00    +0.000 C 
ATOM     18  C   UNL     1      48.540   7.571  15.003  0.00  0.00    +0.000 C 
ATOM     19  C   UNL     1      48.871   6.504  14.023  0.00  0.00    +0.000 C 
BRANCH  17  24
ATOM     20  C   UNL     1      51.991   9.651  10.127  0.00  0.00    +0.000 A 
ATOM     21  C   UNL     1      51.885   8.369  10.650  0.00  0.00    +0.000 A 
ATOM     22  C   UNL     1      50.886   8.089  11.585  0.00  0.00    +0.000 A 
ATOM     23  C   UNL     1      50.015   9.091  11.984  0.00  0.00    +0.000 A 
ATOM     24  N   UNL     1      49.083   8.990  13.009  0.00  0.00    +0.000 N 
ATOM     25  N   UNL     1      50.093  10.330  11.452  0.00  0.00    +0.000 NA
ATOM     26  C   UNL     1      51.068  10.587  10.545  0.00  0.00    +0.000 A 
ATOM     27  H   UNL     1      48.605   9.887  13.044  0.00  0.00    +0.000 HD
BRANCH  20  29
ATOM     28  N   UNL     1      53.893  10.312   8.512  0.00  0.00    +0.000 NA
ATOM     29  C   UNL     1      53.034  10.011   9.225  0.00  0.00    +0.000 C 
ENDBRANCH  20  29
ENDBRANCH  17  24
ENDBRANCH   1  17
TORSDOF 6
ENDMDL
MODEL 5
REMARK VINA RESULT:    -6.115      5.040      8.111
REMARK INTER + INTRA:          -9.645
REMARK INTER:                  -8.386
REMARK INTRA:                  -1.259
REMARK UNBOUND:                -1.386
REMARK  Name = 
REMARK  6 active torsions:
REMARK  status: ('A' for Active; 'I' for Inactive)
REMARK    1  A    between atoms: C_2  and  C_3
REMARK    2  A    between atoms: N_7  and  C_8
REMARK    3  A    between atoms: C_8  and  C_9
REMARK    4  A    between atoms: C_13  and  C_14
REMARK    5  A    between atoms: C_18  and  O_19
REMARK    6  A    between atoms: O_19  and  C_20
REMARK                            x       y       z     vdW  Elec       q    Type
REMARK                         _______ _______ _______ _____ _____    ______ ____
ROOT
ATOM      1  C   UNL     1      49.281   7.970  15.255  0.00  0.00    +0.000 A 
ATOM      2  C   UNL     1      50.298   8.360  14.371  0.00  0.00    +0.000 A 
ATOM      3  C   UNL     1      50.282   7.950  13.043  0.00  0.00    +0.000 A 
ATOM      4  C   UNL     1      49.235   7.153  12.576  0.00  0.00    +0.000 A 
ATOM      5  C   UNL     1      48.151   6.815  13.404  0.00  0.00    +0.000 A 
ATOM      6  C   UNL     1      48.169   7.292  14.723  0.00  0.00    +0.000 A 
ENDROOT
BRANCH   5   7
ATOM      7  C   UNL     1      47.102   5.874  12.968  0.00  0.00    +0.000 A 
ATOM      8  C   UNL     1      46.653   4.858  13.819  0.00  0.00    +0.000 A 
ATOM      9  N   UNL     1      45.673   3.975  13.526  0.00  0.00    +0.000 NA
ATOM     10  C   UNL     1      45.082   4.116  12.321  0.00  0.00    +0.000 A 
ATOM     11  C   UNL     1      45.406   5.106  11.403  0.00  0.00    +0.000 A 
ATOM     12  C   UNL     1      46.446   5.980  11.728  0.00  0.00    +0.000 A 
BRANCH  11  13
ATOM     13  O   UNL     1      44.681   5.107  10.248  0.00  0.00    +0.000 OA
BRANCH  13  14
ATOM     14  C   UNL     1      45.236   4.372   9.173  0.00  0.00    +0.000 C 
ATOM     15  F   UNL     1      44.279   4.188   8.232  0.00  0.00    +0.000 F 
ATOM     16  F   UNL     1      46.196   5.148   8.610  0.00  0.00    +0.000 F 
ENDBRANCH  13  14
ENDBRANCH  11  13
ENDBRANCH   5   7
BRANCH   1  17
ATOM     17  C   UNL     1      49.487   8.092  16.764  0.00  0.00    +0.000 C 
ATOM     18  C   UNL     1      49.484   9.481  17.405  0.00  0.00    +0.000 C 
ATOM     19  C   UNL     1      48.256   8.646  17.464  0.00  0.00    +0.000 C 
BRANCH  17  24
ATOM     20  C   UNL     1      51.085   3.099  17.506  0.00  0.00    +0.000 A 
ATOM     21  C   UNL     1      49.780   3.563  17.393  0.00  0.00    +0.000 A 
ATOM     22  C   UNL     1      49.548   4.934  17.261  0.00  0.00    +0.000 A 
ATOM     23  C   UNL     1      50.618   5.817  17.250  0.00  0.00    +0.000 A 
ATOM     24  N   UNL     1      50.522   7.202  17.279  0.00  0.00    +0.000 N 
ATOM     25  N   UNL     1      51.889   5.366  17.324  0.00  0.00    +0.000 NA
ATOM     26  C   UNL     1      52.099   4.033  17.451  0.00  0.00    +0.000 A 
ATOM     27  H   UNL     1      51.477   7.551  17.255  0.00  0.00    +0.000 HD
BRANCH  20  29
ATOM     28  N   UNL     1      51.629   0.607  17.897  0.00  0.00    +0.000 NA
ATOM     29  C   UNL     1      51.376   1.720  17.713  0.00  0.00    +0.000 C 
ENDBRANCH  20  29
ENDBRANCH  17  24
ENDBRANCH   1  17
TORSDOF 6
ENDMDL
MODEL 6
REMARK VINA RESULT:    -6.104      5.513      8.471
REMARK INTER + INTRA:          -9.631
REMARK INTER:                  -8.858
REMARK INTRA:                  -0.772
REMARK UNBOUND:                -1.386
REMARK  Name = 
REMARK  6 active torsions:
REMARK  status: ('A' for Active; 'I' for Inactive)
REMARK    1  A    between atoms: C_2  and  C_3
REMARK    2  A    between atoms: N_7  and  C_8
REMARK    3  A    between atoms: C_8  and  C_9
REMARK    4  A    between atoms: C_13  and  C_14
REMARK    5  A    between atoms: C_18  and  O_19
REMARK    6  A    between atoms: O_19  and  C_20
REMARK                            x       y       z     vdW  Elec       q    Type
REMARK                         _______ _______ _______ _____ _____    ______ ____
ROOT
ATOM      1  C   UNL     1      47.841   5.431  15.489  0.00  0.00    +0.000 A 
ATOM      2  C   UNL     1      48.660   6.475  15.033  0.00  0.00    +0.000 A 
ATOM      3  C   UNL     1      48.509   6.988  13.750  0.00  0.00    +0.000 A 
ATOM      4  C   UNL     1      47.524   6.470  12.907  0.00  0.00    +0.000 A 
ATOM      5  C   UNL     1      46.624   5.487  13.355  0.00  0.00    +0.000 A 
ATOM      6  C   UNL     1      46.766   5.032  14.674  0.00  0.00    +0.000 A 
ENDROOT
BRANCH   5   7
ATOM      7  C   UNL     1      45.661   4.841  12.444  0.00  0.00    +0.000 A 
ATOM      8  C   UNL     1      44.547   4.159  12.948  0.00  0.00    +0.000 A 
ATOM      9  N   UNL     1      43.590   3.571  12.196  0.00  0.00    +0.000 NA
ATOM     10  C   UNL     1      43.731   3.680  10.858  0.00  0.00    +0.000 A 
ATOM     11  C   UNL     1      44.765   4.364  10.234  0.00  0.00    +0.000 A 
ATOM     12  C   UNL     1      45.753   4.931  11.043  0.00  0.00    +0.000 A 
BRANCH  11  13
ATOM     13  O   UNL     1      44.725   4.389   8.871  0.00  0.00    +0.000 OA
BRANCH  13  14
ATOM     14  C   UNL     1      44.866   3.135   8.228  0.00  0.00    +0.000 C 
ATOM     15  F   UNL     1      45.196   3.346   6.931  0.00  0.00    +0.000 F 
ATOM     16  F   UNL     1      45.922   2.507   8.804  0.00  0.00    +0.000 F 
ENDBRANCH  13  14
ENDBRANCH  11  13
ENDBRANCH   5   7
BRANCH   1  17
ATOM     17  C   UNL     1      48.242   4.624  16.723  0.00  0.00    +0.000 C 
ATOM     18  C   UNL     1      47.180   4.299  17.775  0.00  0.00    +0.000 C 
ATOM     19  C   UNL     1      47.551   3.271  16.768  0.00  0.00    +0.000 C 
BRANCH  17  24
ATOM     20  C   UNL     1      53.211   3.216  17.886  0.00  0.00    +0.000 A 
ATOM     21  C   UNL     1      52.099   2.390  17.780  0.00  0.00    +0.000 A 
ATOM     22  C   UNL     1      50.847   2.953  17.524  0.00  0.00    +0.000 A 
ATOM     23  C   UNL     1      50.725   4.327  17.384  0.00  0.00    +0.000 A 
ATOM     24  N   UNL     1      49.529   5.025  17.281  0.00  0.00    +0.000 N 
ATOM     25  N   UNL     1      51.810   5.130  17.452  0.00  0.00    +0.000 NA
ATOM     26  C   UNL     1      53.018   4.569  17.700  0.00  0.00    +0.000 A 
ATOM     27  H   UNL     1      49.782   6.006  17.186  0.00  0.00    +0.000 HD
BRANCH  20  29
ATOM     28  N   UNL     1      55.540   2.268  18.469  0.00  0.00    +0.000 NA
ATOM     29  C   UNL     1      54.499   2.703  18.215  0.00  0.00    +0.000 C 
ENDBRANCH  20  29
ENDBRANCH  17  24
ENDBRANCH   1  17
TORSDOF 6
ENDMDL
MODEL 7
REMARK VINA RESULT:    -5.827      3.882      7.861
REMARK INTER + INTRA:          -9.257
REMARK INTER:                  -8.604
REMARK INTRA:                  -0.653
REMARK UNBOUND:                -1.386
REMARK  Name = 
REMARK  6 active torsions:
REMARK  status: ('A' for Active; 'I' for Inactive)
REMARK    1  A    between atoms: C_2  and  C_3
REMARK    2  A    between atoms: N_7  and  C_8
REMARK    3  A    between atoms: C_8  and  C_9
REMARK    4  A    between atoms: C_13  and  C_14
REMARK    5  A    between atoms: C_18  and  O_19
REMARK    6  A    between atoms: O_19  and  C_20
REMARK                            x       y       z     vdW  Elec       q    Type
REMARK                         _______ _______ _______ _____ _____    ______ ____
ROOT
ATOM      1  C   UNL     1      46.298   9.256  12.300  0.00  0.00    +0.000 A 
ATOM      2  C   UNL     1      45.439  10.232  11.774  0.00  0.00    +0.000 A 
ATOM      3  C   UNL     1      44.270   9.870  11.114  0.00  0.00    +0.000 A 
ATOM      4  C   UNL     1      43.937   8.520  10.984  0.00  0.00    +0.000 A 
ATOM      5  C   UNL     1      44.723   7.515  11.574  0.00  0.00    +0.000 A 
ATOM      6  C   UNL     1      45.865   7.917  12.282  0.00  0.00    +0.000 A 
ENDROOT
BRANCH   5   7
ATOM      7  C   UNL     1      44.457   6.083  11.343  0.00  0.00    +0.000 A 
ATOM      8  C   UNL     1      43.419   5.430  12.018  0.00  0.00    +0.000 A 
ATOM      9  N   UNL     1      43.073   4.135  11.844  0.00  0.00    +0.000 NA
ATOM     10  C   UNL     1      43.785   3.443  10.931  0.00  0.00    +0.000 A 
ATOM     11  C   UNL     1      44.811   3.983  10.167  0.00  0.00    +0.000 A 
ATOM     12  C   UNL     1      45.162   5.316  10.397  0.00  0.00    +0.000 A 
BRANCH  11  13
ATOM     13  O   UNL     1      45.398   3.137   9.274  0.00  0.00    +0.000 OA
BRANCH  13  14
ATOM     14  C   UNL     1      45.743   3.704   8.023  0.00  0.00    +0.000 C 
ATOM     15  F   UNL     1      46.880   3.118   7.578  0.00  0.00    +0.000 F 
ATOM     16  F   UNL     1      44.762   3.371   7.148  0.00  0.00    +0.000 F 
ENDBRANCH  13  14
ENDBRANCH  11  13
ENDBRANCH   5   7
BRANCH   1  17
ATOM     17  C   UNL     1      47.734   9.619  12.676  0.00  0.00    +0.000 C 
ATOM     18  C   UNL     1      48.884   9.085  11.819  0.00  0.00    +0.000 C 
ATOM     19  C   UNL     1      48.402  10.476  11.612  0.00  0.00    +0.000 C 
BRANCH  17  24
ATOM     20  C   UNL     1      49.292   6.687  16.799  0.00  0.00    +0.000 A 
ATOM     21  C   UNL     1      48.718   6.245  15.615  0.00  0.00    +0.000 A 
ATOM     22  C   UNL     1      48.311   7.178  14.658  0.00  0.00    +0.000 A 
ATOM     23  C   UNL     1      48.480   8.533  14.902  0.00  0.00    +0.000 A 
ATOM     24  N   UNL     1      47.986   9.562  14.112  0.00  0.00    +0.000 N 
ATOM     25  N   UNL     1      49.069   8.964  16.038  0.00  0.00    +0.000 NA
ATOM     26  C   UNL     1      49.460   8.047  16.956  0.00  0.00    +0.000 A 
ATOM     27  H   UNL     1      48.284  10.427  14.557  0.00  0.00    +0.000 HD
BRANCH  20  29
ATOM     28  N   UNL     1      49.968   5.037  18.666  0.00  0.00    +0.000 NA
ATOM     29  C   UNL     1      49.660   5.785  17.839  0.00  0.00    +0.000 C 
ENDBRANCH  20  29
ENDBRANCH  17  24
ENDBRANCH   1  17
TORSDOF 6
ENDMDL
MODEL 8
REMARK VINA RESULT:    -5.744      4.036      7.231
REMARK INTER + INTRA:          -9.145
REMARK INTER:                  -8.568
REMARK INTRA:                  -0.577
REMARK UNBOUND:                -1.386
REMARK  Name = 
REMARK  6 active torsions:
REMARK  status: ('A' for Active; 'I' for Inactive)
REMARK    1  A    between atoms: C_2  and  C_3
REMARK    2  A    between atoms: N_7  and  C_8
REMARK    3  A    between atoms: C_8  and  C_9
REMARK    4  A    between atoms: C_13  and  C_14
REMARK    5  A    between atoms: C_18  and  O_19
REMARK    6  A    between atoms: O_19  and  C_20
REMARK                            x       y       z     vdW  Elec       q    Type
REMARK                         _______ _______ _______ _____ _____    ______ ____
ROOT
ATOM      1  C   UNL     1      48.299   6.619  14.654  0.00  0.00    +0.000 A 
ATOM      2  C   UNL     1      48.437   5.713  15.716  0.00  0.00    +0.000 A 
ATOM      3  C   UNL     1      47.612   4.599  15.812  0.00  0.00    +0.000 A 
ATOM      4  C   UNL     1      46.641   4.368  14.834  0.00  0.00    +0.000 A 
ATOM      5  C   UNL     1      46.529   5.201  13.707  0.00  0.00    +0.000 A 
ATOM      6  C   UNL     1      47.415   6.284  13.611  0.00  0.00    +0.000 A 
ENDROOT
BRANCH   5   7
ATOM      7  C   UNL     1      45.434   5.047  12.732  0.00  0.00    +0.000 A 
ATOM      8  C   UNL     1      44.610   6.130  12.404  0.00  0.00    +0.000 A 
ATOM      9  N   UNL     1      43.610   6.098  11.496  0.00  0.00    +0.000 NA
ATOM     10  C   UNL     1      43.422   4.926  10.854  0.00  0.00    +0.000 A 
ATOM     11  C   UNL     1      44.195   3.791  11.057  0.00  0.00    +0.000 A 
ATOM     12  C   UNL     1      45.199   3.852  12.027  0.00  0.00    +0.000 A 
BRANCH  11  13
ATOM     13  O   UNL     1      43.873   2.707  10.296  0.00  0.00    +0.000 OA
BRANCH  13  14
ATOM     14  C   UNL     1      44.774   2.402   9.246  0.00  0.00    +0.000 C 
ATOM     15  F   UNL     1      44.635   1.095   8.920  0.00  0.00    +0.000 F 
ATOM     16  F   UNL     1      44.384   3.121   8.164  0.00  0.00    +0.000 F 
ENDBRANCH  13  14
ENDBRANCH  11  13
ENDBRANCH   5   7
BRANCH   1  17
ATOM     17  C   UNL     1      48.925   8.010  14.745  0.00  0.00    +0.000 C 
ATOM     18  C   UNL     1      48.102   9.224  14.311  0.00  0.00    +0.000 C 
ATOM     19  C   UNL     1      48.208   8.892  15.756  0.00  0.00    +0.000 C 
BRANCH  17  24
ATOM     20  C   UNL     1      52.294   8.209  10.667  0.00  0.00    +0.000 A 
ATOM     21  C   UNL     1      51.001   7.703  10.673  0.00  0.00    +0.000 A 
ATOM     22  C   UNL     1      50.278   7.678  11.868  0.00  0.00    +0.000 A 
ATOM     23  C   UNL     1      50.859   8.152  13.035  0.00  0.00    +0.000 A 
ATOM     24  N   UNL     1      50.316   8.046  14.308  0.00  0.00    +0.000 N 
ATOM     25  N   UNL     1      52.105   8.676  13.025  0.00  0.00    +0.000 NA
ATOM     26  C   UNL     1      52.793   8.694  11.858  0.00  0.00    +0.000 A 
ATOM     27  H   UNL     1      50.980   8.492  14.936  0.00  0.00    +0.000 HD
BRANCH  20  29
ATOM     28  N   UNL     1      53.744   8.163   8.531  0.00  0.00    +0.000 NA
ATOM     29  C   UNL     1      53.102   8.193   9.493  0.00  0.00    +0.000 C 
ENDBRANCH  20  29
ENDBRANCH  17  24
ENDBRANCH   1  17
TORSDOF 6
ENDMDL
MODEL 9
REMARK VINA RESULT:    -5.736      4.585      7.178
REMARK INTER + INTRA:          -9.133
REMARK INTER:                  -7.883
REMARK INTRA:                  -1.250
REMARK UNBOUND:                -1.386
REMARK  Name = 
REMARK  6 active torsions:
REMARK  status: ('A' for Active; 'I' for Inactive)
REMARK    1  A    between atoms: C_2  and  C_3
REMARK    2  A    between atoms: N_7  and  C_8
REMARK    3  A    between atoms: C_8  and  C_9
REMARK    4  A    between atoms: C_13  and  C_14
REMARK    5  A    between atoms: C_18  and  O_19
REMARK    6  A    between atoms: O_19  and  C_20
REMARK                            x       y       z     vdW  Elec       q    Type
REMARK                         _______ _______ _______ _____ _____    ______ ____
ROOT
ATOM      1  C   UNL     1      49.628   8.761  13.828  0.00  0.00    +0.000 A 
ATOM      2  C   UNL     1      49.200   9.888  14.545  0.00  0.00    +0.000 A 
ATOM      3  C   UNL     1      49.087   9.848  15.930  0.00  0.00    +0.000 A 
ATOM      4  C   UNL     1      49.416   8.679  16.620  0.00  0.00    +0.000 A 
ATOM      5  C   UNL     1      49.934   7.557  15.948  0.00  0.00    +0.000 A 
ATOM      6  C   UNL     1      50.090   7.650  14.558  0.00  0.00    +0.000 A 
ENDROOT
BRANCH   5   7
ATOM      7  C   UNL     1      50.169   6.276  16.640  0.00  0.00    +0.000 A 
ATOM      8  C   UNL     1      51.469   5.853  16.940  0.00  0.00    +0.000 A 
ATOM      9  N   UNL     1      51.783   4.718  17.604  0.00  0.00    +0.000 NA
ATOM     10  C   UNL     1      50.745   3.961  18.016  0.00  0.00    +0.000 A 
ATOM     11  C   UNL     1      49.411   4.289  17.819  0.00  0.00    +0.000 A 
ATOM     12  C   UNL     1      49.125   5.453  17.100  0.00  0.00    +0.000 A 
BRANCH  11  13
ATOM     13  O   UNL     1      48.500   3.413  18.331  0.00  0.00    +0.000 OA
BRANCH  13  14
ATOM     14  C   UNL     1      47.643   2.794  17.388  0.00  0.00    +0.000 C 
ATOM     15  F   UNL     1      46.788   3.725  16.902  0.00  0.00    +0.000 F 
ATOM     16  F   UNL     1      48.417   2.391  16.349  0.00  0.00    +0.000 F 
ENDBRANCH  13  14
ENDBRANCH  11  13
ENDBRANCH   5   7
BRANCH   1  17
ATOM     17  C   UNL     1      49.392   8.676  12.320  0.00  0.00    +0.000 C 
ATOM     18  C   UNL     1      50.064   9.701  11.405  0.00  0.00    +0.000 C 
ATOM     19  C   UNL     1      50.670   8.353  11.562  0.00  0.00    +0.000 C 
BRANCH  17  24
ATOM     20  C   UNL     1      45.247   5.440  12.931  0.00  0.00    +0.000 A 
ATOM     21  C   UNL     1      46.593   5.127  13.069  0.00  0.00    +0.000 A 
ATOM     22  C   UNL     1      47.556   6.104  12.806  0.00  0.00    +0.000 A 
ATOM     23  C   UNL     1      47.160   7.372  12.406  0.00  0.00    +0.000 A 
ATOM     24  N   UNL     1      48.007   8.381  11.969  0.00  0.00    +0.000 N 
ATOM     25  N   UNL     1      45.851   7.689  12.303  0.00  0.00    +0.000 NA
ATOM     26  C   UNL     1      44.928   6.731  12.562  0.00  0.00    +0.000 A 
ATOM     27  H   UNL     1      47.411   9.178  11.757  0.00  0.00    +0.000 HD
BRANCH  20  29
ATOM     28  N   UNL     1      43.414   3.654  13.267  0.00  0.00    +0.000 NA
ATOM     29  C   UNL     1      44.226   4.464  13.117  0.00  0.00    +0.000 C 
ENDBRANCH  20  29
ENDBRANCH  17  24
ENDBRANCH   1  17
TORSDOF 6
ENDMDL
