MODEL 1
REMARK VINA RESULT:    -8.093      0.000      0.000
REMARK INTER + INTRA:         -11.816
REMARK INTER:                 -11.405
REMARK INTRA:                  -0.411
REMARK UNBOUND:                -0.411
REMARK  Name = 
REMARK  8 active torsions:
REMARK  status: ('A' for Active; 'I' for Inactive)
REMARK    1  A    between atoms: C_1  and  O_2
REMARK    2  A    between atoms: O_2  and  C_3
REMARK    3  A    between atoms: C_8  and  N_9
REMARK    4  A    between atoms: N_9  and  C_10
REMARK    5  A    between atoms: C_10  and  C_11
REMARK    6  A    between atoms: C_14  and  C_15
REMARK    7  A    between atoms: C_15  and  N_16
REMARK    8  A    between atoms: C_17  and  C_19
REMARK                            x       y       z     vdW  Elec       q    Type
REMARK                         _______ _______ _______ _____ _____    ______ ____
ROOT
ATOM      1  C   UNL     1      44.949   4.226  10.664  0.00  0.00    +0.000 A 
ATOM      2  C   UNL     1      45.286   5.409  10.003  0.00  0.00    +0.000 A 
ATOM      3  C   UNL     1      45.939   6.426  10.710  0.00  0.00    +0.000 A 
ATOM      4  C   UNL     1      46.239   6.264  12.064  0.00  0.00    +0.000 A 
ATOM      5  C   UNL     1      45.860   5.057  12.639  0.00  0.00    +0.000 A 
ATOM      6  N   UNL     1      45.241   4.048  11.978  0.00  0.00    +0.000 NA
ENDROOT
BRANCH   1   7
ATOM      7  C   UNL     1      44.324   3.050   9.921  0.00  0.00    +0.000 C 
BRANCH   7   8
ATOM      8  N   UNL     1      45.287   2.037   9.479  0.00  0.00    +0.000 N 
ATOM      9  H   UNL     1      44.923   1.092   9.538  0.00  0.00    +0.000 HD
BRANCH   8  15
ATOM     10  C   UNL     1      46.750   1.235   7.583  0.00  0.00    +0.000 A 
ATOM     11  C   UNL     1      47.371   1.547   6.362  0.00  0.00    +0.000 A 
ATOM     12  C   UNL     1      47.236   2.807   5.787  0.00  0.00    +0.000 A 
ATOM     13  C   UNL     1      46.459   3.763   6.417  0.00  0.00    +0.000 A 
ATOM     14  C   UNL     1      45.839   3.465   7.635  0.00  0.00    +0.000 A 
ATOM     15  C   UNL     1      45.988   2.211   8.264  0.00  0.00    +0.000 A 
BRANCH  10  17
ATOM     16  C   UNL     1      46.476  -1.091   7.233  0.00  0.00    +0.000 C 
ATOM     17  O   UNL     1      46.834  -0.031   8.107  0.00  0.00    +0.000 OA
ENDBRANCH  10  17
ENDBRANCH   8  15
ENDBRANCH   7   8
ENDBRANCH   1   7
BRANCH   4  18
ATOM     18  C   UNL     1      46.925   7.316  12.895  0.00  0.00    +0.000 C 
BRANCH  18  19
ATOM     19  N   UNL     1      47.238   6.854  14.227  0.00  0.00    +0.000 N 
ATOM     20  C   UNL     1      48.535   6.654  14.656  0.00  0.00    +0.000 C 
ATOM     21  O   UNL     1      49.503   6.841  13.928  0.00  0.00    +0.000 OA
ATOM     22  H   UNL     1      46.509   6.317  14.694  0.00  0.00    +0.000 HD
BRANCH  20  23
ATOM     23  C   UNL     1      48.662   6.215  16.045  0.00  0.00    +0.000 A 
ATOM     24  C   UNL     1      49.183   7.080  16.995  0.00  0.00    +0.000 A 
ATOM     25  S   UNL     1      49.216   6.421  18.571  0.00  0.00    +0.000 S 
ATOM     26  C   UNL     1      48.570   4.942  18.028  0.00  0.00    +0.000 A 
ATOM     27  N   UNL     1      48.370   3.904  18.885  0.00  0.00    +0.000 NA
ATOM     28  C   UNL     1      47.907   2.833  18.329  0.00  0.00    +0.000 A 
ATOM     29  N   UNL     1      47.608   2.712  16.994  0.00  0.00    +0.000 N 
ATOM     30  C   UNL     1      47.729   3.751  16.105  0.00  0.00    +0.000 A 
ATOM     31  O   UNL     1      47.362   3.645  14.947  0.00  0.00    +0.000 OA
ATOM     32  C   UNL     1      48.299   4.964  16.673  0.00  0.00    +0.000 A 
ATOM     33  H   UNL     1      47.217   1.857  16.629  0.00  0.00    +0.000 HD
ENDBRANCH  20  23
ENDBRANCH  18  19
ENDBRANCH   4  18
TORSDOF 7
ENDMDL
MODEL 2
REMARK VINA RESULT:    -7.815      3.666      8.255
REMARK INTER + INTRA:         -11.425
REMARK INTER:                 -10.288
REMARK INTRA:                  -1.137
REMARK UNBOUND:                -0.411
REMARK  Name = 
REMARK  8 active torsions:
REMARK  status: ('A' for Active; 'I' for Inactive)
REMARK    1  A    between atoms: C_1  and  O_2
REMARK    2  A    between atoms: O_2  and  C_3
REMARK    3  A    between atoms: C_8  and  N_9
REMARK    4  A    between atoms: N_9  and  C_10
REMARK    5  A    between atoms: C_10  and  C_11
REMARK    6  A    between atoms: C_14  and  C_15
REMARK    7  A    between atoms: C_15  and  N_16
REMARK    8  A    between atoms: C_17  and  C_19
REMARK                            x       y       z     vdW  Elec       q    Type
REMARK                         _______ _______ _______ _____ _____    ______ ____
ROOT
ATOM      1  C   UNL     1      50.201   6.853  15.821  0.00  0.00    +0.000 A 
ATOM      2  C   UNL     1      50.852   7.780  15.005  0.00  0.00    +0.000 A 
ATOM      3  C   UNL     1      50.249   8.180  13.807  0.00  0.00    +0.000 A 
ATOM      4  C   UNL     1      49.015   7.650  13.427  0.00  0.00    +0.000 A 
ATOM      5  C   UNL     1      48.444   6.729  14.298  0.00  0.00    +0.000 A 
ATOM      6  N   UNL     1      48.996   6.333  15.471  0.00  0.00    +0.000 NA
ENDROOT
BRANCH   1   7
ATOM      7  C   UNL     1      50.766   6.454  17.181  0.00  0.00    +0.000 C 
BRANCH   7   8
ATOM      8  N   UNL     1      50.055   5.346  17.826  0.00  0.00    +0.000 N 
ATOM      9  H   UNL     1      49.055   5.370  17.662  0.00  0.00    +0.000 HD
BRANCH   8  15
ATOM     10  C   UNL     1      49.861   2.938  17.092  0.00  0.00    +0.000 A 
ATOM     11  C   UNL     1      50.481   1.680  17.004  0.00  0.00    +0.000 A 
ATOM     12  C   UNL     1      51.772   1.479  17.482  0.00  0.00    +0.000 A 
ATOM     13  C   UNL     1      52.466   2.541  18.035  0.00  0.00    +0.000 A 
ATOM     14  C   UNL     1      51.858   3.796  18.131  0.00  0.00    +0.000 A 
ATOM     15  C   UNL     1      50.537   4.025  17.691  0.00  0.00    +0.000 A 
BRANCH  10  17
ATOM     16  C   UNL     1      47.517   2.905  17.424  0.00  0.00    +0.000 C 
ATOM     17  O   UNL     1      48.614   3.142  16.556  0.00  0.00    +0.000 OA
ENDBRANCH  10  17
ENDBRANCH   8  15
ENDBRANCH   7   8
ENDBRANCH   1   7
BRANCH   4  18
ATOM     18  C   UNL     1      48.310   8.017  12.148  0.00  0.00    +0.000 C 
BRANCH  18  19
ATOM     19  N   UNL     1      47.563   6.915  11.588  0.00  0.00    +0.000 N 
ATOM     20  C   UNL     1      46.192   6.950  11.436  0.00  0.00    +0.000 C 
ATOM     21  O   UNL     1      45.518   7.914  11.781  0.00  0.00    +0.000 OA
ATOM     22  H   UNL     1      47.995   5.996  11.675  0.00  0.00    +0.000 HD
BRANCH  20  23
ATOM     23  C   UNL     1      45.611   5.756  10.822  0.00  0.00    +0.000 A 
ATOM     24  C   UNL     1      45.784   5.526   9.466  0.00  0.00    +0.000 A 
ATOM     25  S   UNL     1      45.081   4.066   8.928  0.00  0.00    +0.000 S 
ATOM     26  C   UNL     1      44.485   3.712  10.484  0.00  0.00    +0.000 A 
ATOM     27  N   UNL     1      43.745   2.594  10.717  0.00  0.00    +0.000 NA
ATOM     28  C   UNL     1      43.332   2.472  11.936  0.00  0.00    +0.000 A 
ATOM     29  N   UNL     1      43.606   3.359  12.947  0.00  0.00    +0.000 N 
ATOM     30  C   UNL     1      44.403   4.463  12.776  0.00  0.00    +0.000 A 
ATOM     31  O   UNL     1      44.713   5.179  13.713  0.00  0.00    +0.000 OA
ATOM     32  C   UNL     1      44.850   4.674  11.406  0.00  0.00    +0.000 A 
ATOM     33  H   UNL     1      43.280   3.188  13.886  0.00  0.00    +0.000 HD
ENDBRANCH  20  23
ENDBRANCH  18  19
ENDBRANCH   4  18
TORSDOF 7
ENDMDL
MODEL 3
REMARK VINA RESULT:    -7.754      4.923      9.348
REMARK INTER + INTRA:         -11.339
REMARK INTER:                 -10.515
REMARK INTRA:                  -0.824
REMARK UNBOUND:                -0.411
REMARK  Name = 
REMARK  8 active torsions:
REMARK  status: ('A' for Active; 'I' for Inactive)
REMARK    1  A    between atoms: C_1  and  O_2
REMARK    2  A    between atoms: O_2  and  C_3
REMARK    3  A    between atoms: C_8  and  N_9
REMARK    4  A    between atoms: N_9  and  C_10
REMARK    5  A    between atoms: C_10  and  C_11
REMARK    6  A    between atoms: C_14  and  C_15
REMARK    7  A    between atoms: C_15  and  N_16
REMARK    8  A    between atoms: C_17  and  C_19
REMARK                            x       y       z     vdW  Elec       q    Type
REMARK                         _______ _______ _______ _____ _____    ______ ____
ROOT
ATOM      1  C   UNL     1      51.303   2.665  17.525  0.00  0.00    +0.000 A 
ATOM      2  C   UNL     1      50.775   3.859  18.017  0.00  0.00    +0.000 A 
ATOM      3  C   UNL     1      49.421   4.147  17.809  0.00  0.00    +0.000 A 
ATOM      4  C   UNL     1      48.609   3.253  17.109  0.00  0.00    +0.000 A 
ATOM      5  C   UNL     1      49.222   2.093  16.651  0.00  0.00    +0.000 A 
ATOM      6  N   UNL     1      50.526   1.780  16.848  0.00  0.00    +0.000 NA
ENDROOT
BRANCH   1   7
ATOM      7  C   UNL     1      52.746   2.257  17.804  0.00  0.00    +0.000 C 
BRANCH   7   8
ATOM      8  N   UNL     1      52.888   0.943  18.438  0.00  0.00    +0.000 N 
ATOM      9  H   UNL     1      51.998   0.484  18.599  0.00  0.00    +0.000 HD
BRANCH   8  15
ATOM     10  C   UNL     1      54.139  -1.250  18.487  0.00  0.00    +0.000 A 
ATOM     11  C   UNL     1      55.082  -2.082  17.860  0.00  0.00    +0.000 A 
ATOM     12  C   UNL     1      55.712  -1.695  16.681  0.00  0.00    +0.000 A 
ATOM     13  C   UNL     1      55.389  -0.479  16.105  0.00  0.00    +0.000 A 
ATOM     14  C   UNL     1      54.456   0.360  16.722  0.00  0.00    +0.000 A 
ATOM     15  C   UNL     1      53.828   0.015  17.938  0.00  0.00    +0.000 A 
BRANCH  10  17
ATOM     16  C   UNL     1      53.076  -3.033  19.627  0.00  0.00    +0.000 C 
ATOM     17  O   UNL     1      53.474  -1.671  19.612  0.00  0.00    +0.000 OA
ENDBRANCH  10  17
ENDBRANCH   8  15
ENDBRANCH   7   8
ENDBRANCH   1   7
BRANCH   4  18
ATOM     18  C   UNL     1      47.149   3.497  16.832  0.00  0.00    +0.000 C 
BRANCH  18  19
ATOM     19  N   UNL     1      46.937   4.491  15.805  0.00  0.00    +0.000 N 
ATOM     20  C   UNL     1      46.972   4.184  14.460  0.00  0.00    +0.000 C 
ATOM     21  O   UNL     1      47.201   3.051  14.050  0.00  0.00    +0.000 OA
ATOM     22  H   UNL     1      47.150   5.452  16.065  0.00  0.00    +0.000 HD
BRANCH  20  23
ATOM     23  C   UNL     1      46.703   5.309  13.565  0.00  0.00    +0.000 A 
ATOM     24  C   UNL     1      47.722   6.193  13.246  0.00  0.00    +0.000 A 
ATOM     25  S   UNL     1      47.245   7.417  12.155  0.00  0.00    +0.000 S 
ATOM     26  C   UNL     1      45.648   6.829  12.103  0.00  0.00    +0.000 A 
ATOM     27  N   UNL     1      44.692   7.453  11.364  0.00  0.00    +0.000 NA
ATOM     28  C   UNL     1      43.518   6.917  11.446  0.00  0.00    +0.000 A 
ATOM     29  N   UNL     1      43.219   5.801  12.187  0.00  0.00    +0.000 N 
ATOM     30  C   UNL     1      44.163   5.099  12.893  0.00  0.00    +0.000 A 
ATOM     31  O   UNL     1      43.889   4.055  13.461  0.00  0.00    +0.000 OA
ATOM     32  C   UNL     1      45.491   5.695  12.877  0.00  0.00    +0.000 A 
ATOM     33  H   UNL     1      42.288   5.413  12.182  0.00  0.00    +0.000 HD
ENDBRANCH  20  23
ENDBRANCH  18  19
ENDBRANCH   4  18
TORSDOF 7
ENDMDL
MODEL 4
REMARK VINA RESULT:    -7.722      3.111      8.658
REMARK INTER + INTRA:         -11.294
REMARK INTER:                 -10.162
REMARK INTRA:                  -1.132
REMARK UNBOUND:                -0.411
REMARK  Name = 
REMARK  8 active torsions:
REMARK  status: ('A' for Active; 'I' for Inactive)
REMARK    1  A    between atoms: C_1  and  O_2
REMARK    2  A    between atoms: O_2  and  C_3
REMARK    3  A    between atoms: C_8  and  N_9
REMARK    4  A    between atoms: N_9  and  C_10
REMARK    5  A    between atoms: C_10  and  C_11
REMARK    6  A    between atoms: C_14  and  C_15
REMARK    7  A    between atoms: C_15  and  N_16
REMARK    8  A    between atoms: C_17  and  C_19
REMARK                            x       y       z     vdW  Elec       q    Type
REMARK                         _______ _______ _______ _____ _____    ______ ____
ROOT
ATOM      1  C   UNL     1      50.125   6.882  15.530  0.00  0.00    +0.000 A 
ATOM      2  C   UNL     1      50.568   7.758  14.538  0.00  0.00    +0.000 A 
ATOM      3  C   UNL     1      49.760   7.989  13.418  0.00  0.00    +0.000 A 
ATOM      4  C   UNL     1      48.530   7.342  13.290  0.00  0.00    +0.000 A 
ATOM      5  C   UNL     1      48.174   6.484  14.323  0.00  0.00    +0.000 A 
ATOM      6  N   UNL     1      48.927   6.250  15.426  0.00  0.00    +0.000 NA
ENDROOT
BRANCH   1   7
ATOM      7  C   UNL     1      50.919   6.666  16.814  0.00  0.00    +0.000 C 
BRANCH   7   8
ATOM      8  N   UNL     1      50.356   5.648  17.706  0.00  0.00    +0.000 N 
ATOM      9  H   UNL     1      49.342   5.621  17.685  0.00  0.00    +0.000 HD
BRANCH   8  15
ATOM     10  C   UNL     1      50.213   3.169  17.242  0.00  0.00    +0.000 A 
ATOM     11  C   UNL     1      50.869   1.927  17.265  0.00  0.00    +0.000 A 
ATOM     12  C   UNL     1      52.183   1.816  17.708  0.00  0.00    +0.000 A 
ATOM     13  C   UNL     1      52.863   2.950  18.115  0.00  0.00    +0.000 A 
ATOM     14  C   UNL     1      52.219   4.191  18.101  0.00  0.00    +0.000 A 
ATOM     15  C   UNL     1      50.875   4.333  17.694  0.00  0.00    +0.000 A 
BRANCH  10  17
ATOM     16  C   UNL     1      47.886   2.987  17.644  0.00  0.00    +0.000 C 
ATOM     17  O   UNL     1      48.940   3.279  16.739  0.00  0.00    +0.000 OA
ENDBRANCH  10  17
ENDBRANCH   8  15
ENDBRANCH   7   8
ENDBRANCH   1   7
BRANCH   4  18
ATOM     18  C   UNL     1      47.612   7.527  12.110  0.00  0.00    +0.000 C 
BRANCH  18  19
ATOM     19  N   UNL     1      46.849   6.338  11.808  0.00  0.00    +0.000 N 
ATOM     20  C   UNL     1      45.470   6.329  11.787  0.00  0.00    +0.000 C 
ATOM     21  O   UNL     1      44.803   7.326  12.039  0.00  0.00    +0.000 OA
ATOM     22  H   UNL     1      47.314   5.452  11.998  0.00  0.00    +0.000 HD
BRANCH  20  23
ATOM     23  C   UNL     1      44.868   5.044  11.431  0.00  0.00    +0.000 A 
ATOM     24  C   UNL     1      44.068   4.381  12.348  0.00  0.00    +0.000 A 
ATOM     25  S   UNL     1      43.412   2.922  11.750  0.00  0.00    +0.000 S 
ATOM     26  C   UNL     1      44.209   3.108  10.257  0.00  0.00    +0.000 A 
ATOM     27  N   UNL     1      44.098   2.170   9.278  0.00  0.00    +0.000 NA
ATOM     28  C   UNL     1      44.785   2.426   8.212  0.00  0.00    +0.000 A 
ATOM     29  N   UNL     1      45.558   3.546   8.031  0.00  0.00    +0.000 N 
ATOM     30  C   UNL     1      45.646   4.551   8.961  0.00  0.00    +0.000 A 
ATOM     31  O   UNL     1      46.259   5.580   8.733  0.00  0.00    +0.000 OA
ATOM     32  C   UNL     1      44.934   4.284  10.203  0.00  0.00    +0.000 A 
ATOM     33  H   UNL     1      46.043   3.702   7.160  0.00  0.00    +0.000 HD
ENDBRANCH  20  23
ENDBRANCH  18  19
ENDBRANCH   4  18
TORSDOF 7
ENDMDL
MODEL 5
REMARK VINA RESULT:    -7.618      2.113      2.916
REMARK INTER + INTRA:         -11.147
REMARK INTER:                 -10.246
REMARK INTRA:                  -0.901
REMARK UNBOUND:                -0.411
REMARK  Name = 
REMARK  8 active torsions:
REMARK  status: ('A' for Active; 'I' for Inactive)
REMARK    1  A    between atoms: C_1  and  O_2
REMARK    2  A    between atoms: O_2  and  C_3
REMARK    3  A    between atoms: C_8  and  N_9
REMARK    4  A    between atoms: N_9  and  C_10
REMARK    5  A    between atoms: C_10  and  C_11
REMARK    6  A    between atoms: C_14  and  C_15
REMARK    7  A    between atoms: C_15  and  N_16
REMARK    8  A    between atoms: C_17  and  C_19
REMARK                            x       y       z     vdW  Elec       q    Type
REMARK                         _______ _______ _______ _____ _____    ______ ____
ROOT
ATOM      1  C   UNL     1      45.130   6.211  12.232  0.00  0.00    +0.000 A 
ATOM      2  C   UNL     1      45.794   7.313  11.692  0.00  0.00    +0.000 A 
ATOM      3  C   UNL     1      47.091   7.612  12.128  0.00  0.00    +0.000 A 
ATOM      4  C   UNL     1      47.708   6.824  13.100  0.00  0.00    +0.000 A 
ATOM      5  C   UNL     1      46.968   5.751  13.584  0.00  0.00    +0.000 A 
ATOM      6  N   UNL     1      45.719   5.428  13.172  0.00  0.00    +0.000 NA
ENDROOT
BRANCH   1   7
ATOM      7  C   UNL     1      43.756   5.783  11.725  0.00  0.00    +0.000 C 
BRANCH   7   8
ATOM      8  N   UNL     1      43.701   5.521  10.284  0.00  0.00    +0.000 N 
ATOM      9  H   UNL     1      43.933   6.335   9.725  0.00  0.00    +0.000 HD
BRANCH   8  15
ATOM     10  C   UNL     1      44.080   3.030  10.112  0.00  0.00    +0.000 A 
ATOM     11  C   UNL     1      44.767   1.985   9.471  0.00  0.00    +0.000 A 
ATOM     12  C   UNL     1      45.687   2.242   8.460  0.00  0.00    +0.000 A 
ATOM     13  C   UNL     1      45.914   3.548   8.063  0.00  0.00    +0.000 A 
ATOM     14  C   UNL     1      45.240   4.596   8.696  0.00  0.00    +0.000 A 
ATOM     15  C   UNL     1      44.330   4.373   9.751  0.00  0.00    +0.000 A 
BRANCH  10  17
ATOM     16  C   UNL     1      43.604   2.521  12.375  0.00  0.00    +0.000 C 
ATOM     17  O   UNL     1      43.125   2.761  11.061  0.00  0.00    +0.000 OA
ENDBRANCH  10  17
ENDBRANCH   8  15
ENDBRANCH   7   8
ENDBRANCH   1   7
BRANCH   4  18
ATOM     18  C   UNL     1      49.092   7.089  13.631  0.00  0.00    +0.000 C 
BRANCH  18  19
ATOM     19  N   UNL     1      49.179   6.924  15.063  0.00  0.00    +0.000 N 
ATOM     20  C   UNL     1      50.367   7.053  15.753  0.00  0.00    +0.000 C 
ATOM     21  O   UNL     1      51.429   7.300  15.192  0.00  0.00    +0.000 OA
ATOM     22  H   UNL     1      48.459   6.342  15.488  0.00  0.00    +0.000 HD
BRANCH  20  23
ATOM     23  C   UNL     1      50.258   6.884  17.202  0.00  0.00    +0.000 A 
ATOM     24  C   UNL     1      50.792   7.843  18.049  0.00  0.00    +0.000 A 
ATOM     25  S   UNL     1      50.534   7.510  19.704  0.00  0.00    +0.000 S 
ATOM     26  C   UNL     1      49.733   6.051  19.345  0.00  0.00    +0.000 A 
ATOM     27  N   UNL     1      49.273   5.238  20.334  0.00  0.00    +0.000 NA
ATOM     28  C   UNL     1      48.717   4.149  19.915  0.00  0.00    +0.000 A 
ATOM     29  N   UNL     1      48.563   3.807  18.594  0.00  0.00    +0.000 N 
ATOM     30  C   UNL     1      48.950   4.624  17.563  0.00  0.00    +0.000 A 
ATOM     31  O   UNL     1      48.711   4.342  16.401  0.00  0.00    +0.000 OA
ATOM     32  C   UNL     1      49.632   5.840  17.983  0.00  0.00    +0.000 A 
ATOM     33  H   UNL     1      48.089   2.956  18.334  0.00  0.00    +0.000 HD
ENDBRANCH  20  23
ENDBRANCH  18  19
ENDBRANCH   4  18
TORSDOF 7
ENDMDL
MODEL 6
REMARK VINA RESULT:    -7.366      2.548      3.875
REMARK INTER + INTRA:         -10.792
REMARK INTER:                  -9.884
REMARK INTRA:                  -0.908
REMARK UNBOUND:                -0.411
REMARK  Name = 
REMARK  8 active torsions:
REMARK  status: ('A' for Active; 'I' for Inactive)
REMARK    1  A    between atoms: C_1  and  O_2
REMARK    2  A    between atoms: O_2  and  C_3
REMARK    3  A    between atoms: C_8  and  N_9
REMARK    4  A    between atoms: N_9  and  C_10
REMARK    5  A    between atoms: C_10  and  C_11
REMARK    6  A    between atoms: C_14  and  C_15
REMARK    7  A    between atoms: C_15  and  N_16
REMARK    8  A    between atoms: C_17  and  C_19
REMARK                            x       y       z     vdW  Elec       q    Type
REMARK                         _______ _______ _______ _____ _____    ______ ____
ROOT
ATOM      1  C   UNL     1      44.816   5.982  12.380  0.00  0.00    +0.000 A 
ATOM      2  C   UNL     1      45.405   7.243  12.271  0.00  0.00    +0.000 A 
ATOM      3  C   UNL     1      46.635   7.480  12.896  0.00  0.00    +0.000 A 
ATOM      4  C   UNL     1      47.262   6.470  13.628  0.00  0.00    +0.000 A 
ATOM      5  C   UNL     1      46.599   5.249  13.685  0.00  0.00    +0.000 A 
ATOM      6  N   UNL     1      45.415   4.985  13.080  0.00  0.00    +0.000 NA
ENDROOT
BRANCH   1   7
ATOM      7  C   UNL     1      43.525   5.641  11.641  0.00  0.00    +0.000 C 
BRANCH   7   8
ATOM      8  N   UNL     1      43.686   5.478  10.193  0.00  0.00    +0.000 N 
ATOM      9  H   UNL     1      44.032   6.315   9.737  0.00  0.00    +0.000 HD
BRANCH   8  15
ATOM     10  C   UNL     1      44.109   2.993  10.038  0.00  0.00    +0.000 A 
ATOM     11  C   UNL     1      44.828   1.958   9.418  0.00  0.00    +0.000 A 
ATOM     12  C   UNL     1      45.770   2.227   8.430  0.00  0.00    +0.000 A 
ATOM     13  C   UNL     1      45.986   3.535   8.035  0.00  0.00    +0.000 A 
ATOM     14  C   UNL     1      45.280   4.575   8.647  0.00  0.00    +0.000 A 
ATOM     15  C   UNL     1      44.346   4.340   9.680  0.00  0.00    +0.000 A 
BRANCH  10  17
ATOM     16  C   UNL     1      43.582   2.150  12.187  0.00  0.00    +0.000 C 
ATOM     17  O   UNL     1      43.135   2.711  10.963  0.00  0.00    +0.000 OA
ENDBRANCH  10  17
ENDBRANCH   8  15
ENDBRANCH   7   8
ENDBRANCH   1   7
BRANCH   4  18
ATOM     18  C   UNL     1      48.576   6.651  14.340  0.00  0.00    +0.000 C 
BRANCH  18  19
ATOM     19  N   UNL     1      48.414   6.870  15.758  0.00  0.00    +0.000 N 
ATOM     20  C   UNL     1      48.663   5.885  16.692  0.00  0.00    +0.000 C 
ATOM     21  O   UNL     1      49.021   4.756  16.377  0.00  0.00    +0.000 OA
ATOM     22  H   UNL     1      47.758   7.603  16.023  0.00  0.00    +0.000 HD
BRANCH  20  23
ATOM     23  C   UNL     1      48.476   6.296  18.084  0.00  0.00    +0.000 A 
ATOM     24  C   UNL     1      47.597   5.597  18.896  0.00  0.00    +0.000 A 
ATOM     25  S   UNL     1      47.539   6.183  20.499  0.00  0.00    +0.000 S 
ATOM     26  C   UNL     1      48.658   7.417  20.150  0.00  0.00    +0.000 A 
ATOM     27  N   UNL     1      49.030   8.319  21.099  0.00  0.00    +0.000 NA
ATOM     28  C   UNL     1      49.859   9.220  20.684  0.00  0.00    +0.000 A 
ATOM     29  N   UNL     1      50.364   9.290  19.408  0.00  0.00    +0.000 N 
ATOM     30  C   UNL     1      50.070   8.365  18.438  0.00  0.00    +0.000 A 
ATOM     31  O   UNL     1      50.610   8.394  17.345  0.00  0.00    +0.000 OA
ATOM     32  C   UNL     1      49.097   7.360  18.841  0.00  0.00    +0.000 A 
ATOM     33  H   UNL     1      51.034  10.000  19.158  0.00  0.00    +0.000 HD
ENDBRANCH  20  23
ENDBRANCH  18  19
ENDBRANCH   4  18
TORSDOF 7
ENDMDL
MODEL 7
REMARK VINA RESULT:    -7.337      3.112      8.572
REMARK INTER + INTRA:         -10.750
REMARK INTER:                  -9.834
REMARK INTRA:                  -0.917
REMARK UNBOUND:                -0.411
REMARK  Name = 
REMARK  8 active torsions:
REMARK  status: ('A' for Active; 'I' for Inactive)
REMARK    1  A    between atoms: C_1  and  O_2
REMARK    2  A    between atoms: O_2  and  C_3
REMARK    3  A    between atoms: C_8  and  N_9
REMARK    4  A    between atoms: N_9  and  C_10
REMARK    5  A    between atoms: C_10  and  C_11
REMARK    6  A    between atoms: C_14  and  C_15
REMARK    7  A    between atoms: C_15  and  N_16
REMARK    8  A    between atoms: C_17  and  C_19
REMARK                            x       y       z     vdW  Elec       q    Type
REMARK                         _______ _______ _______ _____ _____    ______ ____
ROOT
ATOM      1  C   UNL     1      49.635   7.563  15.923  0.00  0.00    +0.000 A 
ATOM      2  C   UNL     1      48.717   8.613  15.873  0.00  0.00    +0.000 A 
ATOM      3  C   UNL     1      47.871   8.731  14.763  0.00  0.00    +0.000 A 
ATOM      4  C   UNL     1      47.953   7.815  13.713  0.00  0.00    +0.000 A 
ATOM      5  C   UNL     1      48.900   6.807  13.847  0.00  0.00    +0.000 A 
ATOM      6  N   UNL     1      49.722   6.658  14.914  0.00  0.00    +0.000 NA
ENDROOT
BRANCH   1   7
ATOM      7  C   UNL     1      50.513   7.330  17.149  0.00  0.00    +0.000 C 
BRANCH   7   8
ATOM      8  N   UNL     1      49.895   6.494  18.181  0.00  0.00    +0.000 N 
ATOM      9  H   UNL     1      49.279   7.015  18.796  0.00  0.00    +0.000 HD
BRANCH   8  15
ATOM     10  C   UNL     1      49.965   4.046  17.566  0.00  0.00    +0.000 A 
ATOM     11  C   UNL     1      49.233   2.888  17.252  0.00  0.00    +0.000 A 
ATOM     12  C   UNL     1      47.842   2.906  17.214  0.00  0.00    +0.000 A 
ATOM     13  C   UNL     1      47.168   4.078  17.509  0.00  0.00    +0.000 A 
ATOM     14  C   UNL     1      47.887   5.236  17.818  0.00  0.00    +0.000 A 
ATOM     15  C   UNL     1      49.297   5.263  17.829  0.00  0.00    +0.000 A 
BRANCH  10  17
ATOM     16  C   UNL     1      51.913   2.705  17.705  0.00  0.00    +0.000 C 
ATOM     17  O   UNL     1      51.334   4.000  17.667  0.00  0.00    +0.000 OA
ENDBRANCH  10  17
ENDBRANCH   8  15
ENDBRANCH   7   8
ENDBRANCH   1   7
BRANCH   4  18
ATOM     18  C   UNL     1      47.090   7.884  12.481  0.00  0.00    +0.000 C 
BRANCH  18  19
ATOM     19  N   UNL     1      46.436   6.629  12.191  0.00  0.00    +0.000 N 
ATOM     20  C   UNL     1      45.185   6.563  11.611  0.00  0.00    +0.000 C 
ATOM     21  O   UNL     1      44.542   7.566  11.320  0.00  0.00    +0.000 OA
ATOM     22  H   UNL     1      46.723   5.835  12.761  0.00  0.00    +0.000 HD
BRANCH  20  23
ATOM     23  C   UNL     1      44.694   5.208  11.361  0.00  0.00    +0.000 A 
ATOM     24  C   UNL     1      43.906   4.576  12.311  0.00  0.00    +0.000 A 
ATOM     25  S   UNL     1      43.383   3.021  11.836  0.00  0.00    +0.000 S 
ATOM     26  C   UNL     1      44.226   3.125  10.360  0.00  0.00    +0.000 A 
ATOM     27  N   UNL     1      44.224   2.092   9.474  0.00  0.00    +0.000 NA
ATOM     28  C   UNL     1      44.933   2.298   8.413  0.00  0.00    +0.000 A 
ATOM     29  N   UNL     1      45.630   3.451   8.149  0.00  0.00    +0.000 N 
ATOM     30  C   UNL     1      45.607   4.543   8.979  0.00  0.00    +0.000 A 
ATOM     31  O   UNL     1      46.153   5.590   8.673  0.00  0.00    +0.000 OA
ATOM     32  C   UNL     1      44.865   4.342  10.216  0.00  0.00    +0.000 A 
ATOM     33  H   UNL     1      46.139   3.560   7.285  0.00  0.00    +0.000 HD
ENDBRANCH  20  23
ENDBRANCH  18  19
ENDBRANCH   4  18
TORSDOF 7
ENDMDL
MODEL 8
REMARK VINA RESULT:    -7.063      3.089      9.221
REMARK INTER + INTRA:         -10.365
REMARK INTER:                  -9.254
REMARK INTRA:                  -1.111
REMARK UNBOUND:                -0.411
REMARK  Name = 
REMARK  8 active torsions:
REMARK  status: ('A' for Active; 'I' for Inactive)
REMARK    1  A    between atoms: C_1  and  O_2
REMARK    2  A    between atoms: O_2  and  C_3
REMARK    3  A    between atoms: C_8  and  N_9
REMARK    4  A    between atoms: N_9  and  C_10
REMARK    5  A    between atoms: C_10  and  C_11
REMARK    6  A    between atoms: C_14  and  C_15
REMARK    7  A    between atoms: C_15  and  N_16
REMARK    8  A    between atoms: C_17  and  C_19
REMARK                            x       y       z     vdW  Elec       q    Type
REMARK                         _______ _______ _______ _____ _____    ______ ____
ROOT
ATOM      1  C   UNL     1      50.051   7.171  15.492  0.00  0.00    +0.000 A 
ATOM      2  C   UNL     1      50.257   8.274  14.661  0.00  0.00    +0.000 A 
ATOM      3  C   UNL     1      49.426   8.458  13.550  0.00  0.00    +0.000 A 
ATOM      4  C   UNL     1      48.409   7.544  13.269  0.00  0.00    +0.000 A 
ATOM      5  C   UNL     1      48.283   6.474  14.148  0.00  0.00    +0.000 A 
ATOM      6  N   UNL     1      49.062   6.276  15.239  0.00  0.00    +0.000 NA
ENDROOT
BRANCH   1   7
ATOM      7  C   UNL     1      50.864   6.973  16.767  0.00  0.00    +0.000 C 
BRANCH   7   8
ATOM      8  N   UNL     1      50.343   5.931  17.657  0.00  0.00    +0.000 N 
ATOM      9  H   UNL     1      51.073   5.359  18.067  0.00  0.00    +0.000 HD
BRANCH   8  15
ATOM     10  C   UNL     1      48.285   5.456  19.041  0.00  0.00    +0.000 A 
ATOM     11  C   UNL     1      47.418   5.902  20.053  0.00  0.00    +0.000 A 
ATOM     12  C   UNL     1      47.622   7.122  20.690  0.00  0.00    +0.000 A 
ATOM     13  C   UNL     1      48.710   7.900  20.336  0.00  0.00    +0.000 A 
ATOM     14  C   UNL     1      49.577   7.469  19.328  0.00  0.00    +0.000 A 
ATOM     15  C   UNL     1      49.377   6.256  18.635  0.00  0.00    +0.000 A 
BRANCH  10  17
ATOM     16  C   UNL     1      47.157   4.149  17.420  0.00  0.00    +0.000 C 
ATOM     17  O   UNL     1      48.113   4.221  18.467  0.00  0.00    +0.000 OA
ENDBRANCH  10  17
ENDBRANCH   8  15
ENDBRANCH   7   8
ENDBRANCH   1   7
BRANCH   4  18
ATOM     18  C   UNL     1      47.484   7.665  12.087  0.00  0.00    +0.000 C 
BRANCH  18  19
ATOM     19  N   UNL     1      46.754   6.447  11.826  0.00  0.00    +0.000 N 
ATOM     20  C   UNL     1      45.378   6.416  11.725  0.00  0.00    +0.000 C 
ATOM     21  O   UNL     1      44.686   7.418  11.866  0.00  0.00    +0.000 OA
ATOM     22  H   UNL     1      47.216   5.583  12.104  0.00  0.00    +0.000 HD
BRANCH  20  23
ATOM     23  C   UNL     1      44.813   5.100  11.426  0.00  0.00    +0.000 A 
ATOM     24  C   UNL     1      44.035   4.453  12.374  0.00  0.00    +0.000 A 
ATOM     25  S   UNL     1      43.420   2.952  11.841  0.00  0.00    +0.000 S 
ATOM     26  C   UNL     1      44.205   3.098  10.338  0.00  0.00    +0.000 A 
ATOM     27  N   UNL     1      44.118   2.117   9.400  0.00  0.00    +0.000 NA
ATOM     28  C   UNL     1      44.793   2.347   8.321  0.00  0.00    +0.000 A 
ATOM     29  N   UNL     1      45.532   3.481   8.088  0.00  0.00    +0.000 N 
ATOM     30  C   UNL     1      45.595   4.526   8.975  0.00  0.00    +0.000 A 
ATOM     31  O   UNL     1      46.177   5.561   8.701  0.00  0.00    +0.000 OA
ATOM     32  C   UNL     1      44.895   4.291  10.231  0.00  0.00    +0.000 A 
ATOM     33  H   UNL     1      46.009   3.613   7.210  0.00  0.00    +0.000 HD
ENDBRANCH  20  23
ENDBRANCH  18  19
ENDBRANCH   4  18
TORSDOF 7
ENDMDL
MODEL 9
REMARK VINA RESULT:    -7.014      4.178      9.122
REMARK INTER + INTRA:         -10.296
REMARK INTER:                  -8.788
REMARK INTRA:                  -1.508
REMARK UNBOUND:                -0.411
REMARK  Name = 
REMARK  8 active torsions:
REMARK  status: ('A' for Active; 'I' for Inactive)
REMARK    1  A    between atoms: C_1  and  O_2
REMARK    2  A    between atoms: O_2  and  C_3
REMARK    3  A    between atoms: C_8  and  N_9
REMARK    4  A    between atoms: N_9  and  C_10
REMARK    5  A    between atoms: C_10  and  C_11
REMARK    6  A    between atoms: C_14  and  C_15
REMARK    7  A    between atoms: C_15  and  N_16
REMARK    8  A    between atoms: C_17  and  C_19
REMARK                            x       y       z     vdW  Elec       q    Type
REMARK                         _______ _______ _______ _____ _____    ______ ____
ROOT
ATOM      1  C   UNL     1      50.811   4.384  18.972  0.00  0.00    +0.000 A 
ATOM      2  C   UNL     1      50.843   3.514  17.882  0.00  0.00    +0.000 A 
ATOM      3  C   UNL     1      49.650   3.207  17.216  0.00  0.00    +0.000 A 
ATOM      4  C   UNL     1      48.441   3.756  17.645  0.00  0.00    +0.000 A 
ATOM      5  C   UNL     1      48.505   4.606  18.742  0.00  0.00    +0.000 A 
ATOM      6  N   UNL     1      49.645   4.934  19.398  0.00  0.00    +0.000 NA
ENDROOT
BRANCH   1   7
ATOM      7  C   UNL     1      52.091   4.828  19.674  0.00  0.00    +0.000 C 
BRANCH   7   8
ATOM      8  N   UNL     1      52.568   6.155  19.272  0.00  0.00    +0.000 N 
ATOM      9  H   UNL     1      53.256   6.538  19.911  0.00  0.00    +0.000 HD
BRANCH   8  15
ATOM     10  C   UNL     1      52.202   7.008  16.924  0.00  0.00    +0.000 A 
ATOM     11  C   UNL     1      52.745   7.197  15.641  0.00  0.00    +0.000 A 
ATOM     12  C   UNL     1      54.044   6.798  15.344  0.00  0.00    +0.000 A 
ATOM     13  C   UNL     1      54.824   6.226  16.334  0.00  0.00    +0.000 A 
ATOM     14  C   UNL     1      54.293   6.029  17.612  0.00  0.00    +0.000 A 
ATOM     15  C   UNL     1      52.967   6.386  17.936  0.00  0.00    +0.000 A 
BRANCH  10  17
ATOM     16  C   UNL     1      49.902   7.038  16.361  0.00  0.00    +0.000 C 
ATOM     17  O   UNL     1      50.944   7.467  17.225  0.00  0.00    +0.000 OA
ENDBRANCH  10  17
ENDBRANCH   8  15
ENDBRANCH   7   8
ENDBRANCH   1   7
BRANCH   4  18
ATOM     18  C   UNL     1      47.116   3.463  16.992  0.00  0.00    +0.000 C 
BRANCH  18  19
ATOM     19  N   UNL     1      46.780   4.420  15.963  0.00  0.00    +0.000 N 
ATOM     20  C   UNL     1      46.927   4.144  14.619  0.00  0.00    +0.000 C 
ATOM     21  O   UNL     1      47.368   3.076  14.212  0.00  0.00    +0.000 OA
ATOM     22  H   UNL     1      46.811   5.399  16.240  0.00  0.00    +0.000 HD
BRANCH  20  23
ATOM     23  C   UNL     1      46.506   5.220  13.722  0.00  0.00    +0.000 A 
ATOM     24  C   UNL     1      47.348   6.298  13.498  0.00  0.00    +0.000 A 
ATOM     25  S   UNL     1      46.719   7.435  12.389  0.00  0.00    +0.000 S 
ATOM     26  C   UNL     1      45.281   6.542  12.201  0.00  0.00    +0.000 A 
ATOM     27  N   UNL     1      44.277   6.985  11.396  0.00  0.00    +0.000 NA
ATOM     28  C   UNL     1      43.233   6.223  11.376  0.00  0.00    +0.000 A 
ATOM     29  N   UNL     1      43.109   5.048  12.076  0.00  0.00    +0.000 N 
ATOM     30  C   UNL     1      44.118   4.528  12.845  0.00  0.00    +0.000 A 
ATOM     31  O   UNL     1      44.018   3.434  13.375  0.00  0.00    +0.000 OA
ATOM     32  C   UNL     1      45.297   5.377  12.944  0.00  0.00    +0.000 A 
ATOM     33  H   UNL     1      42.278   4.483  11.990  0.00  0.00    +0.000 HD
ENDBRANCH  20  23
ENDBRANCH  18  19
ENDBRANCH   4  18
TORSDOF 7
ENDMDL
