MODEL 1
REMARK VINA RESULT:    -8.134      0.000      0.000
REMARK INTER + INTRA:         -12.531
REMARK INTER:                 -11.463
REMARK INTRA:                  -1.068
REMARK UNBOUND:                -1.068
REMARK  Name = 
REMARK  8 active torsions:
REMARK  status: ('A' for Active; 'I' for Inactive)
REMARK    1  A    between atoms: C_1  and  C_2
REMARK    2  A    between atoms: C_2  and  N_3
REMARK    3  A    between atoms: C_2  and  C_25
REMARK    4  A    between atoms: N_3  and  C_4
REMARK    5  A    between atoms: C_4  and  C_5
REMARK    6  A    between atoms: C_8  and  C_9
REMARK    7  A    between atoms: C_9  and  N_10
REMARK    8  A    between atoms: C_11  and  C_13
REMARK                            x       y       z     vdW  Elec       q    Type
REMARK                         _______ _______ _______ _____ _____    ______ ____
ROOT
ATOM      1  C   UNL     1      45.465   4.403  12.040  0.00  0.00    +0.000 A 
ATOM      2  C   UNL     1      45.846   5.655  11.537  0.00  0.00    +0.000 A 
ATOM      3  C   UNL     1      46.795   6.441  12.203  0.00  0.00    +0.000 A 
ATOM      4  C   UNL     1      47.392   5.984  13.384  0.00  0.00    +0.000 A 
ATOM      5  C   UNL     1      47.014   4.730  13.885  0.00  0.00    +0.000 A 
ATOM      6  C   UNL     1      46.069   3.943  13.216  0.00  0.00    +0.000 A 
ENDROOT
BRANCH   1   7
ATOM      7  C   UNL     1      44.343   3.635  11.379  0.00  0.00    +0.000 C 
BRANCH   7   8
ATOM      8  N   UNL     1      44.834   2.580  10.495  0.00  0.00    +0.000 NA
ATOM      9  H   UNL     1      44.395   1.698  10.763  0.00  0.00    +0.000 HD
BRANCH   8  11
ATOM     10  C   UNL     1      44.228   4.298   8.753  0.00  0.00    +0.000 C 
ATOM     11  C   UNL     1      44.553   2.830   9.073  0.00  0.00    +0.000 C 
BRANCH  11  12
ATOM     12  C   UNL     1      45.747   2.382   8.246  0.00  0.00    +0.000 A 
ATOM     13  C   UNL     1      46.107   1.033   8.185  0.00  0.00    +0.000 A 
ATOM     14  C   UNL     1      47.203   0.669   7.417  0.00  0.00    +0.000 A 
ATOM     15  N   UNL     1      47.953   1.542   6.712  0.00  0.00    +0.000 NA
ATOM     16  C   UNL     1      47.592   2.841   6.780  0.00  0.00    +0.000 A 
ATOM     17  C   UNL     1      46.517   3.302   7.522  0.00  0.00    +0.000 A 
ENDBRANCH  11  12
ENDBRANCH   8  11
ENDBRANCH   7   8
ENDBRANCH   1   7
BRANCH   4  18
ATOM     18  C   UNL     1      48.399   6.820  14.135  0.00  0.00    +0.000 C 
BRANCH  18  19
ATOM     19  N   UNL     1      48.228   6.709  15.563  0.00  0.00    +0.000 N 
ATOM     20  C   UNL     1      48.860   7.569  16.426  0.00  0.00    +0.000 C 
ATOM     21  O   UNL     1      49.575   8.487  16.035  0.00  0.00    +0.000 OA
ATOM     22  H   UNL     1      47.924   5.807  15.916  0.00  0.00    +0.000 HD
BRANCH  20  23
ATOM     23  C   UNL     1      48.589   7.365  17.854  0.00  0.00    +0.000 A 
ATOM     24  C   UNL     1      48.132   8.422  18.633  0.00  0.00    +0.000 A 
ATOM     25  S   UNL     1      47.870   8.003  20.266  0.00  0.00    +0.000 S 
ATOM     26  C   UNL     1      48.395   6.407  19.997  0.00  0.00    +0.000 A 
ATOM     27  N   UNL     1      48.458   5.511  21.019  0.00  0.00    +0.000 NA
ATOM     28  C   UNL     1      48.881   4.341  20.674  0.00  0.00    +0.000 A 
ATOM     29  N   UNL     1      49.246   3.984  19.400  0.00  0.00    +0.000 N 
ATOM     30  C   UNL     1      49.169   4.846  18.333  0.00  0.00    +0.000 A 
ATOM     31  O   UNL     1      49.435   4.479  17.199  0.00  0.00    +0.000 OA
ATOM     32  C   UNL     1      48.724   6.185  18.674  0.00  0.00    +0.000 A 
ATOM     33  H   UNL     1      49.543   3.041  19.190  0.00  0.00    +0.000 HD
ENDBRANCH  20  23
ENDBRANCH  18  19
ENDBRANCH   4  18
TORSDOF 7
ENDMDL
MODEL 2
REMARK VINA RESULT:    -7.722      1.818      2.158
REMARK INTER + INTRA:         -11.951
REMARK INTER:                 -11.118
REMARK INTRA:                  -0.833
REMARK UNBOUND:                -1.068
REMARK  Name = 
REMARK  8 active torsions:
REMARK  status: ('A' for Active; 'I' for Inactive)
REMARK    1  A    between atoms: C_1  and  C_2
REMARK    2  A    between atoms: C_2  and  N_3
REMARK    3  A    between atoms: C_2  and  C_25
REMARK    4  A    between atoms: N_3  and  C_4
REMARK    5  A    between atoms: C_4  and  C_5
REMARK    6  A    between atoms: C_8  and  C_9
REMARK    7  A    between atoms: C_9  and  N_10
REMARK    8  A    between atoms: C_11  and  C_13
REMARK                            x       y       z     vdW  Elec       q    Type
REMARK                         _______ _______ _______ _____ _____    ______ ____
ROOT
ATOM      1  C   UNL     1      44.712   5.740  11.131  0.00  0.00    +0.000 A 
ATOM      2  C   UNL     1      44.561   7.134  11.148  0.00  0.00    +0.000 A 
ATOM      3  C   UNL     1      45.381   7.938  11.949  0.00  0.00    +0.000 A 
ATOM      4  C   UNL     1      46.380   7.363  12.745  0.00  0.00    +0.000 A 
ATOM      5  C   UNL     1      46.535   5.970  12.723  0.00  0.00    +0.000 A 
ATOM      6  C   UNL     1      45.718   5.167  11.919  0.00  0.00    +0.000 A 
ENDROOT
BRANCH   1   7
ATOM      7  C   UNL     1      43.730   4.884  10.364  0.00  0.00    +0.000 C 
BRANCH   7   8
ATOM      8  N   UNL     1      44.310   4.324   9.145  0.00  0.00    +0.000 NA
ATOM      9  H   UNL     1      44.966   5.002   8.753  0.00  0.00    +0.000 HD
BRANCH   8  11
ATOM     10  C   UNL     1      44.095   1.865   9.654  0.00  0.00    +0.000 C 
ATOM     11  C   UNL     1      45.022   3.056   9.365  0.00  0.00    +0.000 C 
BRANCH  11  12
ATOM     12  C   UNL     1      45.877   2.750   8.146  0.00  0.00    +0.000 A 
ATOM     13  C   UNL     1      46.448   1.486   7.974  0.00  0.00    +0.000 A 
ATOM     14  C   UNL     1      47.219   1.251   6.846  0.00  0.00    +0.000 A 
ATOM     15  N   UNL     1      47.457   2.172   5.889  0.00  0.00    +0.000 NA
ATOM     16  C   UNL     1      46.899   3.388   6.069  0.00  0.00    +0.000 A 
ATOM     17  C   UNL     1      46.117   3.720   7.163  0.00  0.00    +0.000 A 
ENDBRANCH  11  12
ENDBRANCH   8  11
ENDBRANCH   7   8
ENDBRANCH   1   7
BRANCH   4  18
ATOM     18  C   UNL     1      47.262   8.203  13.635  0.00  0.00    +0.000 C 
BRANCH  18  19
ATOM     19  N   UNL     1      47.644   7.495  14.832  0.00  0.00    +0.000 N 
ATOM     20  C   UNL     1      48.866   6.882  14.939  0.00  0.00    +0.000 C 
ATOM     21  O   UNL     1      49.706   6.925  14.044  0.00  0.00    +0.000 OA
ATOM     22  H   UNL     1      46.889   7.176  15.432  0.00  0.00    +0.000 HD
BRANCH  20  23
ATOM     23  C   UNL     1      49.143   6.210  16.215  0.00  0.00    +0.000 A 
ATOM     24  C   UNL     1      50.140   6.695  17.053  0.00  0.00    +0.000 A 
ATOM     25  S   UNL     1      50.322   5.795  18.491  0.00  0.00    +0.000 S 
ATOM     26  C   UNL     1      49.101   4.704  18.024  0.00  0.00    +0.000 A 
ATOM     27  N   UNL     1      48.779   3.639  18.808  0.00  0.00    +0.000 NA
ATOM     28  C   UNL     1      47.842   2.891  18.329  0.00  0.00    +0.000 A 
ATOM     29  N   UNL     1      47.198   3.110  17.138  0.00  0.00    +0.000 N 
ATOM     30  C   UNL     1      47.469   4.188  16.330  0.00  0.00    +0.000 A 
ATOM     31  O   UNL     1      46.830   4.393  15.309  0.00  0.00    +0.000 OA
ATOM     32  C   UNL     1      48.535   5.046  16.812  0.00  0.00    +0.000 A 
ATOM     33  H   UNL     1      46.452   2.500  16.831  0.00  0.00    +0.000 HD
ENDBRANCH  20  23
ENDBRANCH  18  19
ENDBRANCH   4  18
TORSDOF 7
ENDMDL
MODEL 3
REMARK VINA RESULT:    -7.589      3.657      8.448
REMARK INTER + INTRA:         -11.763
REMARK INTER:                 -10.118
REMARK INTRA:                  -1.646
REMARK UNBOUND:                -1.068
REMARK  Name = 
REMARK  8 active torsions:
REMARK  status: ('A' for Active; 'I' for Inactive)
REMARK    1  A    between atoms: C_1  and  C_2
REMARK    2  A    between atoms: C_2  and  N_3
REMARK    3  A    between atoms: C_2  and  C_25
REMARK    4  A    between atoms: N_3  and  C_4
REMARK    5  A    between atoms: C_4  and  C_5
REMARK    6  A    between atoms: C_8  and  C_9
REMARK    7  A    between atoms: C_9  and  N_10
REMARK    8  A    between atoms: C_11  and  C_13
REMARK                            x       y       z     vdW  Elec       q    Type
REMARK                         _______ _______ _______ _____ _____    ______ ____
ROOT
ATOM      1  C   UNL     1      48.864   7.817  16.227  0.00  0.00    +0.000 A 
ATOM      2  C   UNL     1      49.456   6.896  15.351  0.00  0.00    +0.000 A 
ATOM      3  C   UNL     1      49.280   7.002  13.966  0.00  0.00    +0.000 A 
ATOM      4  C   UNL     1      48.513   8.042  13.426  0.00  0.00    +0.000 A 
ATOM      5  C   UNL     1      47.925   8.966  14.301  0.00  0.00    +0.000 A 
ATOM      6  C   UNL     1      48.105   8.862  15.685  0.00  0.00    +0.000 A 
ENDROOT
BRANCH   1   7
ATOM      7  C   UNL     1      48.957   7.605  17.721  0.00  0.00    +0.000 C 
BRANCH   7   8
ATOM      8  N   UNL     1      49.757   6.433  18.070  0.00  0.00    +0.000 NA
ATOM      9  H   UNL     1      50.479   6.715  18.735  0.00  0.00    +0.000 HD
BRANCH   8  11
ATOM     10  C   UNL     1      47.475   5.666  18.815  0.00  0.00    +0.000 C 
ATOM     11  C   UNL     1      48.971   5.343  18.667  0.00  0.00    +0.000 C 
BRANCH  11  12
ATOM     12  C   UNL     1      49.139   4.090  17.824  0.00  0.00    +0.000 A 
ATOM     13  C   UNL     1      48.093   3.622  17.024  0.00  0.00    +0.000 A 
ATOM     14  C   UNL     1      48.291   2.475  16.270  0.00  0.00    +0.000 A 
ATOM     15  N   UNL     1      49.444   1.773  16.254  0.00  0.00    +0.000 NA
ATOM     16  C   UNL     1      50.445   2.238  17.031  0.00  0.00    +0.000 A 
ATOM     17  C   UNL     1      50.342   3.371  17.821  0.00  0.00    +0.000 A 
ENDBRANCH  11  12
ENDBRANCH   8  11
ENDBRANCH   7   8
ENDBRANCH   1   7
BRANCH   4  18
ATOM     18  C   UNL     1      48.286   8.167  11.939  0.00  0.00    +0.000 C 
BRANCH  18  19
ATOM     19  N   UNL     1      47.590   7.022  11.406  0.00  0.00    +0.000 N 
ATOM     20  C   UNL     1      46.219   6.969  11.378  0.00  0.00    +0.000 C 
ATOM     21  O   UNL     1      45.517   7.895  11.774  0.00  0.00    +0.000 OA
ATOM     22  H   UNL     1      48.108   6.149  11.374  0.00  0.00    +0.000 HD
BRANCH  20  23
ATOM     23  C   UNL     1      45.631   5.759  10.792  0.00  0.00    +0.000 A 
ATOM     24  C   UNL     1      45.762   5.512   9.430  0.00  0.00    +0.000 A 
ATOM     25  S   UNL     1      45.019   4.061   8.925  0.00  0.00    +0.000 S 
ATOM     26  C   UNL     1      44.465   3.734  10.501  0.00  0.00    +0.000 A 
ATOM     27  N   UNL     1      43.706   2.634  10.761  0.00  0.00    +0.000 NA
ATOM     28  C   UNL     1      43.349   2.514  11.995  0.00  0.00    +0.000 A 
ATOM     29  N   UNL     1      43.682   3.393  12.995  0.00  0.00    +0.000 N 
ATOM     30  C   UNL     1      44.471   4.498  12.785  0.00  0.00    +0.000 A 
ATOM     31  O   UNL     1      44.806   5.224  13.709  0.00  0.00    +0.000 OA
ATOM     32  C   UNL     1      44.877   4.693  11.406  0.00  0.00    +0.000 A 
ATOM     33  H   UNL     1      43.393   3.227  13.949  0.00  0.00    +0.000 HD
ENDBRANCH  20  23
ENDBRANCH  18  19
ENDBRANCH   4  18
TORSDOF 7
ENDMDL
MODEL 4
REMARK VINA RESULT:    -7.427      3.372      8.986
REMARK INTER + INTRA:         -11.535
REMARK INTER:                 -10.072
REMARK INTRA:                  -1.463
REMARK UNBOUND:                -1.068
REMARK  Name = 
REMARK  8 active torsions:
REMARK  status: ('A' for Active; 'I' for Inactive)
REMARK    1  A    between atoms: C_1  and  C_2
REMARK    2  A    between atoms: C_2  and  N_3
REMARK    3  A    between atoms: C_2  and  C_25
REMARK    4  A    between atoms: N_3  and  C_4
REMARK    5  A    between atoms: C_4  and  C_5
REMARK    6  A    between atoms: C_8  and  C_9
REMARK    7  A    between atoms: C_9  and  N_10
REMARK    8  A    between atoms: C_11  and  C_13
REMARK                            x       y       z     vdW  Elec       q    Type
REMARK                         _______ _______ _______ _____ _____    ______ ____
ROOT
ATOM      1  C   UNL     1      49.001   7.779  16.099  0.00  0.00    +0.000 A 
ATOM      2  C   UNL     1      49.149   6.675  15.246  0.00  0.00    +0.000 A 
ATOM      3  C   UNL     1      48.581   6.672  13.967  0.00  0.00    +0.000 A 
ATOM      4  C   UNL     1      47.857   7.779  13.508  0.00  0.00    +0.000 A 
ATOM      5  C   UNL     1      47.713   8.885  14.359  0.00  0.00    +0.000 A 
ATOM      6  C   UNL     1      48.286   8.890  15.636  0.00  0.00    +0.000 A 
ENDROOT
BRANCH   1   7
ATOM      7  C   UNL     1      49.507   7.706  17.522  0.00  0.00    +0.000 C 
BRANCH   7   8
ATOM      8  N   UNL     1      50.368   6.548  17.750  0.00  0.00    +0.000 NA
ATOM      9  H   UNL     1      51.236   6.865  18.185  0.00  0.00    +0.000 HD
BRANCH   8  11
ATOM     10  C   UNL     1      48.390   5.930  19.183  0.00  0.00    +0.000 C 
ATOM     11  C   UNL     1      49.758   5.525  18.612  0.00  0.00    +0.000 C 
BRANCH  11  12
ATOM     12  C   UNL     1      49.617   4.233  17.825  0.00  0.00    +0.000 A 
ATOM     13  C   UNL     1      50.696   3.353  17.699  0.00  0.00    +0.000 A 
ATOM     14  C   UNL     1      50.522   2.184  16.972  0.00  0.00    +0.000 A 
ATOM     15  N   UNL     1      49.365   1.833  16.374  0.00  0.00    +0.000 NA
ATOM     16  C   UNL     1      48.332   2.693  16.505  0.00  0.00    +0.000 A 
ATOM     17  C   UNL     1      48.408   3.885  17.207  0.00  0.00    +0.000 A 
ENDBRANCH  11  12
ENDBRANCH   8  11
ENDBRANCH   7   8
ENDBRANCH   1   7
BRANCH   4  18
ATOM     18  C   UNL     1      47.213   7.793  12.143  0.00  0.00    +0.000 C 
BRANCH  18  19
ATOM     19  N   UNL     1      46.590   6.531  11.832  0.00  0.00    +0.000 N 
ATOM     20  C   UNL     1      45.230   6.422  11.689  0.00  0.00    +0.000 C 
ATOM     21  O   UNL     1      44.478   7.388  11.787  0.00  0.00    +0.000 OA
ATOM     22  H   UNL     1      47.120   5.694  12.058  0.00  0.00    +0.000 HD
BRANCH  20  23
ATOM     23  C   UNL     1      44.720   5.087  11.353  0.00  0.00    +0.000 A 
ATOM     24  C   UNL     1      43.918   4.402  12.258  0.00  0.00    +0.000 A 
ATOM     25  S   UNL     1      43.415   2.869  11.701  0.00  0.00    +0.000 S 
ATOM     26  C   UNL     1      44.284   3.054  10.249  0.00  0.00    +0.000 A 
ATOM     27  N   UNL     1      44.311   2.060   9.320  0.00  0.00    +0.000 NA
ATOM     28  C   UNL     1      45.014   2.331   8.272  0.00  0.00    +0.000 A 
ATOM     29  N   UNL     1      45.692   3.506   8.066  0.00  0.00    +0.000 N 
ATOM     30  C   UNL     1      45.667   4.547   8.961  0.00  0.00    +0.000 A 
ATOM     31  O   UNL     1      46.225   5.607   8.719  0.00  0.00    +0.000 OA
ATOM     32  C   UNL     1      44.911   4.282  10.171  0.00  0.00    +0.000 A 
ATOM     33  H   UNL     1      46.203   3.667   7.209  0.00  0.00    +0.000 HD
ENDBRANCH  20  23
ENDBRANCH  18  19
ENDBRANCH   4  18
TORSDOF 7
ENDMDL
MODEL 5
REMARK VINA RESULT:    -6.907      3.955      5.666
REMARK INTER + INTRA:         -10.801
REMARK INTER:                  -9.609
REMARK INTRA:                  -1.192
REMARK UNBOUND:                -1.068
REMARK  Name = 
REMARK  8 active torsions:
REMARK  status: ('A' for Active; 'I' for Inactive)
REMARK    1  A    between atoms: C_1  and  C_2
REMARK    2  A    between atoms: C_2  and  N_3
REMARK    3  A    between atoms: C_2  and  C_25
REMARK    4  A    between atoms: N_3  and  C_4
REMARK    5  A    between atoms: C_4  and  C_5
REMARK    6  A    between atoms: C_8  and  C_9
REMARK    7  A    between atoms: C_9  and  N_10
REMARK    8  A    between atoms: C_11  and  C_13
REMARK                            x       y       z     vdW  Elec       q    Type
REMARK                         _______ _______ _______ _____ _____    ______ ____
ROOT
ATOM      1  C   UNL     1      45.878   5.020  12.058  0.00  0.00    +0.000 A 
ATOM      2  C   UNL     1      46.355   6.222  11.516  0.00  0.00    +0.000 A 
ATOM      3  C   UNL     1      47.282   7.008  12.209  0.00  0.00    +0.000 A 
ATOM      4  C   UNL     1      47.761   6.603  13.461  0.00  0.00    +0.000 A 
ATOM      5  C   UNL     1      47.288   5.399  14.002  0.00  0.00    +0.000 A 
ATOM      6  C   UNL     1      46.365   4.610  13.306  0.00  0.00    +0.000 A 
ENDROOT
BRANCH   1   7
ATOM      7  C   UNL     1      44.778   4.258  11.354  0.00  0.00    +0.000 C 
BRANCH   7   8
ATOM      8  N   UNL     1      45.283   3.097  10.624  0.00  0.00    +0.000 NA
ATOM      9  H   UNL     1      45.024   2.251  11.134  0.00  0.00    +0.000 HD
BRANCH   8  11
ATOM     10  C   UNL     1      44.288   4.336   8.668  0.00  0.00    +0.000 C 
ATOM     11  C   UNL     1      44.763   2.996   9.253  0.00  0.00    +0.000 C 
BRANCH  11  12
ATOM     12  C   UNL     1      45.838   2.404   8.356  0.00  0.00    +0.000 A 
ATOM     13  C   UNL     1      46.025   1.021   8.284  0.00  0.00    +0.000 A 
ATOM     14  C   UNL     1      47.017   0.524   7.452  0.00  0.00    +0.000 A 
ATOM     15  N   UNL     1      47.824   1.298   6.696  0.00  0.00    +0.000 NA
ATOM     16  C   UNL     1      47.631   2.631   6.776  0.00  0.00    +0.000 A 
ATOM     17  C   UNL     1      46.670   3.222   7.579  0.00  0.00    +0.000 A 
ENDBRANCH  11  12
ENDBRANCH   8  11
ENDBRANCH   7   8
ENDBRANCH   1   7
BRANCH   4  18
ATOM     18  C   UNL     1      48.742   7.442  14.242  0.00  0.00    +0.000 C 
BRANCH  18  19
ATOM     19  N   UNL     1      50.039   7.475  13.612  0.00  0.00    +0.000 N 
ATOM     20  C   UNL     1      50.850   8.578  13.705  0.00  0.00    +0.000 C 
ATOM     21  O   UNL     1      50.533   9.576  14.346  0.00  0.00    +0.000 OA
ATOM     22  H   UNL     1      50.187   6.830  12.842  0.00  0.00    +0.000 HD
BRANCH  20  23
ATOM     23  C   UNL     1      52.153   8.480  13.036  0.00  0.00    +0.000 A 
ATOM     24  C   UNL     1      53.315   8.801  13.729  0.00  0.00    +0.000 A 
ATOM     25  S   UNL     1      54.735   8.627  12.798  0.00  0.00    +0.000 S 
ATOM     26  C   UNL     1      53.842   8.154  11.429  0.00  0.00    +0.000 A 
ATOM     27  N   UNL     1      54.463   7.890  10.246  0.00  0.00    +0.000 NA
ATOM     28  C   UNL     1      53.665   7.550   9.291  0.00  0.00    +0.000 A 
ATOM     29  N   UNL     1      52.302   7.449   9.408  0.00  0.00    +0.000 N 
ATOM     30  C   UNL     1      51.636   7.676  10.588  0.00  0.00    +0.000 A 
ATOM     31  O   UNL     1      50.429   7.511  10.678  0.00  0.00    +0.000 OA
ATOM     32  C   UNL     1      52.487   8.087  11.689  0.00  0.00    +0.000 A 
ATOM     33  H   UNL     1      51.735   7.151   8.627  0.00  0.00    +0.000 HD
ENDBRANCH  20  23
ENDBRANCH  18  19
ENDBRANCH   4  18
TORSDOF 7
ENDMDL
MODEL 6
REMARK VINA RESULT:    -6.683      5.008      8.465
REMARK INTER + INTRA:         -10.486
REMARK INTER:                  -9.389
REMARK INTRA:                  -1.097
REMARK UNBOUND:                -1.068
REMARK  Name = 
REMARK  8 active torsions:
REMARK  status: ('A' for Active; 'I' for Inactive)
REMARK    1  A    between atoms: C_1  and  C_2
REMARK    2  A    between atoms: C_2  and  N_3
REMARK    3  A    between atoms: C_2  and  C_25
REMARK    4  A    between atoms: N_3  and  C_4
REMARK    5  A    between atoms: C_4  and  C_5
REMARK    6  A    between atoms: C_8  and  C_9
REMARK    7  A    between atoms: C_9  and  N_10
REMARK    8  A    between atoms: C_11  and  C_13
REMARK                            x       y       z     vdW  Elec       q    Type
REMARK                         _______ _______ _______ _____ _____    ______ ____
ROOT
ATOM      1  C   UNL     1      50.649   8.416  12.233  0.00  0.00    +0.000 A 
ATOM      2  C   UNL     1      50.116   8.956  13.412  0.00  0.00    +0.000 A 
ATOM      3  C   UNL     1      48.756   8.822  13.716  0.00  0.00    +0.000 A 
ATOM      4  C   UNL     1      47.899   8.134  12.847  0.00  0.00    +0.000 A 
ATOM      5  C   UNL     1      48.433   7.590  11.671  0.00  0.00    +0.000 A 
ATOM      6  C   UNL     1      49.794   7.720  11.370  0.00  0.00    +0.000 A 
ENDROOT
BRANCH   1   7
ATOM      7  C   UNL     1      52.090   8.689  11.862  0.00  0.00    +0.000 C 
BRANCH   7   8
ATOM      8  N   UNL     1      52.839   7.464  11.594  0.00  0.00    +0.000 NA
ATOM      9  H   UNL     1      52.192   6.755  11.241  0.00  0.00    +0.000 HD
BRANCH   8  11
ATOM     10  C   UNL     1      55.291   7.151  11.107  0.00  0.00    +0.000 C 
ATOM     11  C   UNL     1      53.920   7.640  10.614  0.00  0.00    +0.000 C 
BRANCH  11  12
ATOM     12  C   UNL     1      53.552   6.911   9.332  0.00  0.00    +0.000 A 
ATOM     13  C   UNL     1      52.626   7.460   8.440  0.00  0.00    +0.000 A 
ATOM     14  C   UNL     1      52.321   6.761   7.282  0.00  0.00    +0.000 A 
ATOM     15  N   UNL     1      52.867   5.571   6.953  0.00  0.00    +0.000 NA
ATOM     16  C   UNL     1      53.759   5.055   7.824  0.00  0.00    +0.000 A 
ATOM     17  C   UNL     1      54.127   5.675   9.007  0.00  0.00    +0.000 A 
ENDBRANCH  11  12
ENDBRANCH   8  11
ENDBRANCH   7   8
ENDBRANCH   1   7
BRANCH   4  18
ATOM     18  C   UNL     1      46.425   7.995  13.137  0.00  0.00    +0.000 C 
BRANCH  18  19
ATOM     19  N   UNL     1      45.926   6.695  12.765  0.00  0.00    +0.000 N 
ATOM     20  C   UNL     1      44.973   6.548  11.789  0.00  0.00    +0.000 C 
ATOM     21  O   UNL     1      44.517   7.502  11.166  0.00  0.00    +0.000 OA
ATOM     22  H   UNL     1      46.034   5.953  13.450  0.00  0.00    +0.000 HD
BRANCH  20  23
ATOM     23  C   UNL     1      44.562   5.171  11.489  0.00  0.00    +0.000 A 
ATOM     24  C   UNL     1      43.781   4.465  12.396  0.00  0.00    +0.000 A 
ATOM     25  S   UNL     1      43.397   2.884  11.881  0.00  0.00    +0.000 S 
ATOM     26  C   UNL     1      44.293   3.076  10.448  0.00  0.00    +0.000 A 
ATOM     27  N   UNL     1      44.414   2.055   9.556  0.00  0.00    +0.000 NA
ATOM     28  C   UNL     1      45.128   2.336   8.518  0.00  0.00    +0.000 A 
ATOM     29  N   UNL     1      45.732   3.546   8.289  0.00  0.00    +0.000 N 
ATOM     30  C   UNL     1      45.613   4.614   9.145  0.00  0.00    +0.000 A 
ATOM     31  O   UNL     1      46.106   5.700   8.879  0.00  0.00    +0.000 OA
ATOM     32  C   UNL     1      44.841   4.340  10.342  0.00  0.00    +0.000 A 
ATOM     33  H   UNL     1      46.256   3.712   7.441  0.00  0.00    +0.000 HD
ENDBRANCH  20  23
ENDBRANCH  18  19
ENDBRANCH   4  18
TORSDOF 7
ENDMDL
MODEL 7
REMARK VINA RESULT:    -6.641      3.610      5.815
REMARK INTER + INTRA:         -10.427
REMARK INTER:                  -9.367
REMARK INTRA:                  -1.060
REMARK UNBOUND:                -1.068
REMARK  Name = 
REMARK  8 active torsions:
REMARK  status: ('A' for Active; 'I' for Inactive)
REMARK    1  A    between atoms: C_1  and  C_2
REMARK    2  A    between atoms: C_2  and  N_3
REMARK    3  A    between atoms: C_2  and  C_25
REMARK    4  A    between atoms: N_3  and  C_4
REMARK    5  A    between atoms: C_4  and  C_5
REMARK    6  A    between atoms: C_8  and  C_9
REMARK    7  A    between atoms: C_9  and  N_10
REMARK    8  A    between atoms: C_11  and  C_13
REMARK                            x       y       z     vdW  Elec       q    Type
REMARK                         _______ _______ _______ _____ _____    ______ ____
ROOT
ATOM      1  C   UNL     1      47.891   6.132  14.722  0.00  0.00    +0.000 A 
ATOM      2  C   UNL     1      47.232   4.897  14.649  0.00  0.00    +0.000 A 
ATOM      3  C   UNL     1      47.357   3.951  15.673  0.00  0.00    +0.000 A 
ATOM      4  C   UNL     1      48.140   4.225  16.801  0.00  0.00    +0.000 A 
ATOM      5  C   UNL     1      48.795   5.463  16.878  0.00  0.00    +0.000 A 
ATOM      6  C   UNL     1      48.665   6.411  15.856  0.00  0.00    +0.000 A 
ENDROOT
BRANCH   1   7
ATOM      7  C   UNL     1      47.849   7.081  13.546  0.00  0.00    +0.000 C 
BRANCH   7   8
ATOM      8  N   UNL     1      47.022   6.578  12.452  0.00  0.00    +0.000 NA
ATOM      9  H   UNL     1      47.078   5.558  12.442  0.00  0.00    +0.000 HD
BRANCH   8  11
ATOM     10  C   UNL     1      45.261   8.253  11.788  0.00  0.00    +0.000 C 
ATOM     11  C   UNL     1      45.609   6.969  12.558  0.00  0.00    +0.000 C 
BRANCH  11  12
ATOM     12  C   UNL     1      44.740   5.826  12.059  0.00  0.00    +0.000 A 
ATOM     13  C   UNL     1      43.354   5.976  11.956  0.00  0.00    +0.000 A 
ATOM     14  C   UNL     1      42.600   4.908  11.495  0.00  0.00    +0.000 A 
ATOM     15  N   UNL     1      43.121   3.717  11.132  0.00  0.00    +0.000 NA
ATOM     16  C   UNL     1      44.461   3.588  11.237  0.00  0.00    +0.000 A 
ATOM     17  C   UNL     1      45.298   4.595  11.689  0.00  0.00    +0.000 A 
ENDBRANCH  11  12
ENDBRANCH   8  11
ENDBRANCH   7   8
ENDBRANCH   1   7
BRANCH   4  18
ATOM     18  C   UNL     1      48.312   3.215  17.909  0.00  0.00    +0.000 C 
BRANCH  18  19
ATOM     19  N   UNL     1      49.701   2.900  18.135  0.00  0.00    +0.000 N 
ATOM     20  C   UNL     1      50.411   2.129  17.250  0.00  0.00    +0.000 C 
ATOM     21  O   UNL     1      49.918   1.693  16.213  0.00  0.00    +0.000 OA
ATOM     22  H   UNL     1      50.032   2.965  19.093  0.00  0.00    +0.000 HD
BRANCH  20  23
ATOM     23  C   UNL     1      51.822   1.896  17.583  0.00  0.00    +0.000 A 
ATOM     24  C   UNL     1      52.297   0.598  17.723  0.00  0.00    +0.000 A 
ATOM     25  S   UNL     1      53.958   0.516  18.109  0.00  0.00    +0.000 S 
ATOM     26  C   UNL     1      54.088   2.212  18.138  0.00  0.00    +0.000 A 
ATOM     27  N   UNL     1      55.266   2.818  18.454  0.00  0.00    +0.000 NA
ATOM     28  C   UNL     1      55.220   4.108  18.447  0.00  0.00    +0.000 A 
ATOM     29  N   UNL     1      54.103   4.849  18.152  0.00  0.00    +0.000 N 
ATOM     30  C   UNL     1      52.903   4.282  17.798  0.00  0.00    +0.000 A 
ATOM     31  O   UNL     1      51.946   4.970  17.474  0.00  0.00    +0.000 OA
ATOM     32  C   UNL     1      52.895   2.831  17.817  0.00  0.00    +0.000 A 
ATOM     33  H   UNL     1      54.141   5.859  18.136  0.00  0.00    +0.000 HD
ENDBRANCH  20  23
ENDBRANCH  18  19
ENDBRANCH   4  18
TORSDOF 7
ENDMDL
MODEL 8
REMARK VINA RESULT:    -6.554      5.099      7.433
REMARK INTER + INTRA:         -10.305
REMARK INTER:                  -9.033
REMARK INTRA:                  -1.272
REMARK UNBOUND:                -1.068
REMARK  Name = 
REMARK  8 active torsions:
REMARK  status: ('A' for Active; 'I' for Inactive)
REMARK    1  A    between atoms: C_1  and  C_2
REMARK    2  A    between atoms: C_2  and  N_3
REMARK    3  A    between atoms: C_2  and  C_25
REMARK    4  A    between atoms: N_3  and  C_4
REMARK    5  A    between atoms: C_4  and  C_5
REMARK    6  A    between atoms: C_8  and  C_9
REMARK    7  A    between atoms: C_9  and  N_10
REMARK    8  A    between atoms: C_11  and  C_13
REMARK                            x       y       z     vdW  Elec       q    Type
REMARK                         _______ _______ _______ _____ _____    ______ ____
ROOT
ATOM      1  C   UNL     1      46.486   5.913  12.807  0.00  0.00    +0.000 A 
ATOM      2  C   UNL     1      46.895   6.664  11.696  0.00  0.00    +0.000 A 
ATOM      3  C   UNL     1      48.106   7.366  11.706  0.00  0.00    +0.000 A 
ATOM      4  C   UNL     1      48.942   7.322  12.828  0.00  0.00    +0.000 A 
ATOM      5  C   UNL     1      48.536   6.567  13.938  0.00  0.00    +0.000 A 
ATOM      6  C   UNL     1      47.328   5.861  13.925  0.00  0.00    +0.000 A 
ENDROOT
BRANCH   1   7
ATOM      7  C   UNL     1      45.115   5.275  12.824  0.00  0.00    +0.000 C 
BRANCH   7   8
ATOM      8  N   UNL     1      45.091   3.985  12.139  0.00  0.00    +0.000 NA
ATOM      9  H   UNL     1      44.818   3.263  12.808  0.00  0.00    +0.000 HD
BRANCH   8  11
ATOM     10  C   UNL     1      43.424   5.268  10.752  0.00  0.00    +0.000 C 
ATOM     11  C   UNL     1      44.162   3.943  11.000  0.00  0.00    +0.000 C 
BRANCH  11  12
ATOM     12  C   UNL     1      44.929   3.547   9.749  0.00  0.00    +0.000 A 
ATOM     13  C   UNL     1      45.447   4.522   8.890  0.00  0.00    +0.000 A 
ATOM     14  C   UNL     1      46.141   4.115   7.761  0.00  0.00    +0.000 A 
ATOM     15  N   UNL     1      46.355   2.824   7.431  0.00  0.00    +0.000 NA
ATOM     16  C   UNL     1      45.850   1.895   8.270  0.00  0.00    +0.000 A 
ATOM     17  C   UNL     1      45.140   2.201   9.420  0.00  0.00    +0.000 A 
ENDBRANCH  11  12
ENDBRANCH   8  11
ENDBRANCH   7   8
ENDBRANCH   1   7
BRANCH   4  18
ATOM     18  C   UNL     1      50.242   8.088  12.877  0.00  0.00    +0.000 C 
BRANCH  18  19
ATOM     19  N   UNL     1      50.755   8.356  11.556  0.00  0.00    +0.000 N 
ATOM     20  C   UNL     1      52.103   8.422  11.313  0.00  0.00    +0.000 C 
ATOM     21  O   UNL     1      52.940   8.229  12.190  0.00  0.00    +0.000 OA
ATOM     22  H   UNL     1      50.124   8.822  10.910  0.00  0.00    +0.000 HD
BRANCH  20  23
ATOM     23  C   UNL     1      52.498   8.682   9.924  0.00  0.00    +0.000 A 
ATOM     24  C   UNL     1      52.388   9.965   9.399  0.00  0.00    +0.000 A 
ATOM     25  S   UNL     1      52.893  10.083   7.773  0.00  0.00    +0.000 S 
ATOM     26  C   UNL     1      53.239   8.419   7.704  0.00  0.00    +0.000 A 
ATOM     27  N   UNL     1      53.680   7.843   6.552  0.00  0.00    +0.000 NA
ATOM     28  C   UNL     1      53.895   6.574   6.640  0.00  0.00    +0.000 A 
ATOM     29  N   UNL     1      53.709   5.825   7.775  0.00  0.00    +0.000 N 
ATOM     30  C   UNL     1      53.295   6.368   8.967  0.00  0.00    +0.000 A 
ATOM     31  O   UNL     1      53.205   5.687   9.978  0.00  0.00    +0.000 OA
ATOM     32  C   UNL     1      53.014   7.790   8.914  0.00  0.00    +0.000 A 
ATOM     33  H   UNL     1      53.922   4.837   7.785  0.00  0.00    +0.000 HD
ENDBRANCH  20  23
ENDBRANCH  18  19
ENDBRANCH   4  18
TORSDOF 7
ENDMDL
MODEL 9
REMARK VINA RESULT:    -6.439      2.014      2.708
REMARK INTER + INTRA:         -10.142
REMARK INTER:                  -9.163
REMARK INTRA:                  -0.979
REMARK UNBOUND:                -1.068
REMARK  Name = 
REMARK  8 active torsions:
REMARK  status: ('A' for Active; 'I' for Inactive)
REMARK    1  A    between atoms: C_1  and  C_2
REMARK    2  A    between atoms: C_2  and  N_3
REMARK    3  A    between atoms: C_2  and  C_25
REMARK    4  A    between atoms: N_3  and  C_4
REMARK    5  A    between atoms: C_4  and  C_5
REMARK    6  A    between atoms: C_8  and  C_9
REMARK    7  A    between atoms: C_9  and  N_10
REMARK    8  A    between atoms: C_11  and  C_13
REMARK                            x       y       z     vdW  Elec       q    Type
REMARK                         _______ _______ _______ _____ _____    ______ ____
ROOT
ATOM      1  C   UNL     1      46.208   7.530  12.509  0.00  0.00    +0.000 A 
ATOM      2  C   UNL     1      47.169   6.556  12.202  0.00  0.00    +0.000 A 
ATOM      3  C   UNL     1      48.435   6.581  12.799  0.00  0.00    +0.000 A 
ATOM      4  C   UNL     1      48.764   7.577  13.726  0.00  0.00    +0.000 A 
ATOM      5  C   UNL     1      47.801   8.548  14.036  0.00  0.00    +0.000 A 
ATOM      6  C   UNL     1      46.534   8.520  13.443  0.00  0.00    +0.000 A 
ENDROOT
BRANCH   1   7
ATOM      7  C   UNL     1      44.898   7.561  11.753  0.00  0.00    +0.000 C 
BRANCH   7   8
ATOM      8  N   UNL     1      44.872   6.612  10.643  0.00  0.00    +0.000 NA
ATOM      9  H   UNL     1      45.811   6.544  10.248  0.00  0.00    +0.000 HD
BRANCH   8  11
ATOM     10  C   UNL     1      42.910   5.146  11.236  0.00  0.00    +0.000 C 
ATOM     11  C   UNL     1      44.429   5.266  11.034  0.00  0.00    +0.000 C 
BRANCH  11  12
ATOM     12  C   UNL     1      44.881   4.269   9.979  0.00  0.00    +0.000 A 
ATOM     13  C   UNL     1      44.548   2.916  10.087  0.00  0.00    +0.000 A 
ATOM     14  C   UNL     1      44.981   2.042   9.101  0.00  0.00    +0.000 A 
ATOM     15  N   UNL     1      45.708   2.416   8.028  0.00  0.00    +0.000 NA
ATOM     16  C   UNL     1      46.021   3.726   7.937  0.00  0.00    +0.000 A 
ATOM     17  C   UNL     1      45.639   4.674   8.872  0.00  0.00    +0.000 A 
ENDBRANCH  11  12
ENDBRANCH   8  11
ENDBRANCH   7   8
ENDBRANCH   1   7
BRANCH   4  18
ATOM     18  C   UNL     1      50.129   7.642  14.367  0.00  0.00    +0.000 C 
BRANCH  18  19
ATOM     19  N   UNL     1      50.074   7.343  15.776  0.00  0.00    +0.000 N 
ATOM     20  C   UNL     1      51.163   6.843  16.443  0.00  0.00    +0.000 C 
ATOM     21  O   UNL     1      52.243   6.651  15.890  0.00  0.00    +0.000 OA
ATOM     22  H   UNL     1      49.152   7.187  16.172  0.00  0.00    +0.000 HD
BRANCH  20  23
ATOM     23  C   UNL     1      50.986   6.598  17.879  0.00  0.00    +0.000 A 
ATOM     24  C   UNL     1      51.815   7.229  18.799  0.00  0.00    +0.000 A 
ATOM     25  S   UNL     1      51.464   6.830  20.421  0.00  0.00    +0.000 S 
ATOM     26  C   UNL     1      50.219   5.772  19.946  0.00  0.00    +0.000 A 
ATOM     27  N   UNL     1      49.521   5.055  20.869  0.00  0.00    +0.000 NA
ATOM     28  C   UNL     1      48.612   4.287  20.370  0.00  0.00    +0.000 A 
ATOM     29  N   UNL     1      48.335   4.169  19.031  0.00  0.00    +0.000 N 
ATOM     30  C   UNL     1      48.993   4.895  18.067  0.00  0.00    +0.000 A 
ATOM     31  O   UNL     1      48.677   4.819  16.889  0.00  0.00    +0.000 OA
ATOM     32  C   UNL     1      50.044   5.755  18.576  0.00  0.00    +0.000 A 
ATOM     33  H   UNL     1      47.590   3.569  18.706  0.00  0.00    +0.000 HD
ENDBRANCH  20  23
ENDBRANCH  18  19
ENDBRANCH   4  18
TORSDOF 7
ENDMDL
