MODEL 1
REMARK VINA RESULT:    -7.731      0.000      0.000
REMARK INTER + INTRA:         -11.602
REMARK INTER:                 -10.668
REMARK INTRA:                  -0.934
REMARK UNBOUND:                -0.934
REMARK  Name = 
REMARK  7 active torsions:
REMARK  status: ('A' for Active; 'I' for Inactive)
REMARK    1  A    between atoms: N_1  and  C_2
REMARK    2  A    between atoms: C_2  and  C_3
REMARK    3  A    between atoms: C_3  and  C_4
REMARK    4  A    between atoms: C_7  and  N_8
REMARK    5  A    between atoms: N_8  and  C_9
REMARK    6  A    between atoms: C_9  and  C_10
REMARK    7  A    between atoms: C_14  and  C_15
REMARK                            x       y       z     vdW  Elec       q    Type
REMARK                         _______ _______ _______ _____ _____    ______ ____
ROOT
ATOM      1  N   UNL     1      43.653   4.969  10.069  0.00  0.00    +0.000 N 
ATOM      2  H   UNL     1      42.764   5.133   9.598  0.00  0.00    +0.000 HD
ENDROOT
BRANCH   1   6
ATOM      3  C   UNL     1      46.116   2.246   7.988  0.00  0.00    +0.000 A 
ATOM      4  C   UNL     1      45.177   1.764   8.906  0.00  0.00    +0.000 A 
ATOM      5  C   UNL     1      44.333   2.645   9.590  0.00  0.00    +0.000 A 
ATOM      6  C   UNL     1      44.425   4.025   9.385  0.00  0.00    +0.000 A 
ATOM      7  C   UNL     1      45.302   4.491   8.401  0.00  0.00    +0.000 A 
ATOM      8  C   UNL     1      46.153   3.618   7.722  0.00  0.00    +0.000 A 
BRANCH   3   9
ATOM      9  C   UNL     1      47.072   1.303   7.297  0.00  0.00    +0.000 C 
BRANCH   9  10
ATOM     10  C   UNL     1      48.319   2.020   6.774  0.00  0.00    +0.000 C 
BRANCH  10  11
ATOM     11  N   UNL     1      48.430   1.891   5.322  0.00  0.00    +0.000 NA
ATOM     12  H   UNL     1      49.375   2.148   5.033  0.00  0.00    +0.000 HD
ATOM     13  H   UNL     1      47.806   2.557   4.869  0.00  0.00    +0.000 HD
ENDBRANCH  10  11
ENDBRANCH   9  10
ENDBRANCH   3   9
ENDBRANCH   1   6
BRANCH   1  14
ATOM     14  C   UNL     1      43.500   4.805  11.506  0.00  0.00    +0.000 C 
BRANCH  14  15
ATOM     15  C   UNL     1      44.828   5.071  12.175  0.00  0.00    +0.000 A 
ATOM     16  C   UNL     1      45.397   4.134  13.045  0.00  0.00    +0.000 A 
ATOM     17  C   UNL     1      46.640   4.376  13.627  0.00  0.00    +0.000 A 
ATOM     18  C   UNL     1      47.338   5.550  13.332  0.00  0.00    +0.000 A 
ATOM     19  C   UNL     1      46.799   6.496  12.450  0.00  0.00    +0.000 A 
ATOM     20  C   UNL     1      45.534   6.253  11.891  0.00  0.00    +0.000 A 
BRANCH  19  21
ATOM     21  C   UNL     1      47.566   7.739  12.072  0.00  0.00    +0.000 C 
ATOM     22  F   UNL     1      48.381   7.566  10.992  0.00  0.00    +0.000 F 
ATOM     23  F   UNL     1      46.744   8.776  11.748  0.00  0.00    +0.000 F 
ATOM     24  F   UNL     1      48.367   8.196  13.073  0.00  0.00    +0.000 F 
ENDBRANCH  19  21
ENDBRANCH  14  15
ENDBRANCH   1  14
TORSDOF 7
ENDMDL
MODEL 2
REMARK VINA RESULT:    -7.662      1.952      2.600
REMARK INTER + INTRA:         -11.507
REMARK INTER:                 -10.656
REMARK INTRA:                  -0.851
REMARK UNBOUND:                -0.934
REMARK  Name = 
REMARK  7 active torsions:
REMARK  status: ('A' for Active; 'I' for Inactive)
REMARK    1  A    between atoms: N_1  and  C_2
REMARK    2  A    between atoms: C_2  and  C_3
REMARK    3  A    between atoms: C_3  and  C_4
REMARK    4  A    between atoms: C_7  and  N_8
REMARK    5  A    between atoms: N_8  and  C_9
REMARK    6  A    between atoms: C_9  and  C_10
REMARK    7  A    between atoms: C_14  and  C_15
REMARK                            x       y       z     vdW  Elec       q    Type
REMARK                         _______ _______ _______ _____ _____    ______ ____
ROOT
ATOM      1  N   UNL     1      43.754   4.904  10.069  0.00  0.00    +0.000 N 
ATOM      2  H   UNL     1      42.836   5.020   9.641  0.00  0.00    +0.000 HD
ENDROOT
BRANCH   1   6
ATOM      3  C   UNL     1      46.227   2.224   7.946  0.00  0.00    +0.000 A 
ATOM      4  C   UNL     1      45.268   1.722   8.832  0.00  0.00    +0.000 A 
ATOM      5  C   UNL     1      44.421   2.590   9.530  0.00  0.00    +0.000 A 
ATOM      6  C   UNL     1      44.528   3.975   9.369  0.00  0.00    +0.000 A 
ATOM      7  C   UNL     1      45.426   4.463   8.415  0.00  0.00    +0.000 A 
ATOM      8  C   UNL     1      46.280   3.603   7.722  0.00  0.00    +0.000 A 
BRANCH   3   9
ATOM      9  C   UNL     1      47.185   1.294   7.241  0.00  0.00    +0.000 C 
BRANCH   9  10
ATOM     10  C   UNL     1      48.390   2.035   6.656  0.00  0.00    +0.000 C 
BRANCH  10  11
ATOM     11  N   UNL     1      48.369   2.002   5.195  0.00  0.00    +0.000 NA
ATOM     12  H   UNL     1      47.782   2.763   4.851  0.00  0.00    +0.000 HD
ATOM     13  H   UNL     1      47.928   1.140   4.876  0.00  0.00    +0.000 HD
ENDBRANCH  10  11
ENDBRANCH   9  10
ENDBRANCH   3   9
ENDBRANCH   1   6
BRANCH   1  14
ATOM     14  C   UNL     1      43.681   4.773  11.516  0.00  0.00    +0.000 C 
BRANCH  14  15
ATOM     15  C   UNL     1      44.986   5.241  12.117  0.00  0.00    +0.000 A 
ATOM     16  C   UNL     1      45.650   6.364  11.612  0.00  0.00    +0.000 A 
ATOM     17  C   UNL     1      46.834   6.806  12.200  0.00  0.00    +0.000 A 
ATOM     18  C   UNL     1      47.358   6.142  13.312  0.00  0.00    +0.000 A 
ATOM     19  C   UNL     1      46.703   5.025  13.847  0.00  0.00    +0.000 A 
ATOM     20  C   UNL     1      45.526   4.574  13.230  0.00  0.00    +0.000 A 
BRANCH  19  21
ATOM     21  C   UNL     1      47.221   4.334  15.084  0.00  0.00    +0.000 C 
ATOM     22  F   UNL     1      47.573   3.033  14.872  0.00  0.00    +0.000 F 
ATOM     23  F   UNL     1      48.336   4.937  15.586  0.00  0.00    +0.000 F 
ATOM     24  F   UNL     1      46.318   4.313  16.102  0.00  0.00    +0.000 F 
ENDBRANCH  19  21
ENDBRANCH  14  15
ENDBRANCH   1  14
TORSDOF 7
ENDMDL
MODEL 3
REMARK VINA RESULT:    -7.637      0.749      1.545
REMARK INTER + INTRA:         -11.472
REMARK INTER:                 -10.582
REMARK INTRA:                  -0.891
REMARK UNBOUND:                -0.934
REMARK  Name = 
REMARK  7 active torsions:
REMARK  status: ('A' for Active; 'I' for Inactive)
REMARK    1  A    between atoms: N_1  and  C_2
REMARK    2  A    between atoms: C_2  and  C_3
REMARK    3  A    between atoms: C_3  and  C_4
REMARK    4  A    between atoms: C_7  and  N_8
REMARK    5  A    between atoms: N_8  and  C_9
REMARK    6  A    between atoms: C_9  and  C_10
REMARK    7  A    between atoms: C_14  and  C_15
REMARK                            x       y       z     vdW  Elec       q    Type
REMARK                         _______ _______ _______ _____ _____    ______ ____
ROOT
ATOM      1  N   UNL     1      43.511   4.776  10.091  0.00  0.00    +0.000 N 
ATOM      2  H   UNL     1      42.627   4.860   9.590  0.00  0.00    +0.000 HD
ENDROOT
BRANCH   1   6
ATOM      3  C   UNL     1      46.150   2.281   7.942  0.00  0.00    +0.000 A 
ATOM      4  C   UNL     1      46.251   3.670   7.807  0.00  0.00    +0.000 A 
ATOM      5  C   UNL     1      45.402   4.519   8.527  0.00  0.00    +0.000 A 
ATOM      6  C   UNL     1      44.426   3.995   9.380  0.00  0.00    +0.000 A 
ATOM      7  C   UNL     1      44.393   2.612   9.578  0.00  0.00    +0.000 A 
ATOM      8  C   UNL     1      45.231   1.760   8.856  0.00  0.00    +0.000 A 
BRANCH   3   9
ATOM      9  C   UNL     1      47.020   1.363   7.118  0.00  0.00    +0.000 C 
BRANCH   9  10
ATOM     10  C   UNL     1      48.319   2.039   6.671  0.00  0.00    +0.000 C 
BRANCH  10  11
ATOM     11  N   UNL     1      48.347   2.218   5.221  0.00  0.00    +0.000 NA
ATOM     12  H   UNL     1      49.183   1.770   4.844  0.00  0.00    +0.000 HD
ATOM     13  H   UNL     1      48.435   3.210   4.999  0.00  0.00    +0.000 HD
ENDBRANCH  10  11
ENDBRANCH   9  10
ENDBRANCH   3   9
ENDBRANCH   1   6
BRANCH   1  14
ATOM     14  C   UNL     1      43.326   4.485  11.504  0.00  0.00    +0.000 C 
BRANCH  14  15
ATOM     15  C   UNL     1      44.554   4.931  12.262  0.00  0.00    +0.000 A 
ATOM     16  C   UNL     1      45.422   3.998  12.841  0.00  0.00    +0.000 A 
ATOM     17  C   UNL     1      46.570   4.422  13.506  0.00  0.00    +0.000 A 
ATOM     18  C   UNL     1      46.875   5.783  13.586  0.00  0.00    +0.000 A 
ATOM     19  C   UNL     1      46.031   6.736  13.000  0.00  0.00    +0.000 A 
ATOM     20  C   UNL     1      44.865   6.298  12.356  0.00  0.00    +0.000 A 
BRANCH  19  21
ATOM     21  C   UNL     1      46.377   8.205  13.023  0.00  0.00    +0.000 C 
ATOM     22  F   UNL     1      47.208   8.551  14.048  0.00  0.00    +0.000 F 
ATOM     23  F   UNL     1      47.013   8.605  11.886  0.00  0.00    +0.000 F 
ATOM     24  F   UNL     1      45.285   9.008  13.143  0.00  0.00    +0.000 F 
ENDBRANCH  19  21
ENDBRANCH  14  15
ENDBRANCH   1  14
TORSDOF 7
ENDMDL
MODEL 4
REMARK VINA RESULT:    -7.265      1.132      1.975
REMARK INTER + INTRA:         -10.959
REMARK INTER:                 -10.120
REMARK INTRA:                  -0.839
REMARK UNBOUND:                -0.934
REMARK  Name = 
REMARK  7 active torsions:
REMARK  status: ('A' for Active; 'I' for Inactive)
REMARK    1  A    between atoms: N_1  and  C_2
REMARK    2  A    between atoms: C_2  and  C_3
REMARK    3  A    between atoms: C_3  and  C_4
REMARK    4  A    between atoms: C_7  and  N_8
REMARK    5  A    between atoms: N_8  and  C_9
REMARK    6  A    between atoms: C_9  and  C_10
REMARK    7  A    between atoms: C_14  and  C_15
REMARK                            x       y       z     vdW  Elec       q    Type
REMARK                         _______ _______ _______ _____ _____    ______ ____
ROOT
ATOM      1  N   UNL     1      43.763   4.842  10.192  0.00  0.00    +0.000 N 
ATOM      2  H   UNL     1      42.763   4.677  10.083  0.00  0.00    +0.000 HD
ENDROOT
BRANCH   1   6
ATOM      3  C   UNL     1      46.161   2.216   7.919  0.00  0.00    +0.000 A 
ATOM      4  C   UNL     1      45.263   1.693   8.855  0.00  0.00    +0.000 A 
ATOM      5  C   UNL     1      44.440   2.543   9.604  0.00  0.00    +0.000 A 
ATOM      6  C   UNL     1      44.514   3.930   9.445  0.00  0.00    +0.000 A 
ATOM      7  C   UNL     1      45.347   4.438   8.444  0.00  0.00    +0.000 A 
ATOM      8  C   UNL     1      46.177   3.597   7.700  0.00  0.00    +0.000 A 
BRANCH   3   9
ATOM      9  C   UNL     1      47.095   1.307   7.157  0.00  0.00    +0.000 C 
BRANCH   9  10
ATOM     10  C   UNL     1      48.328   2.047   6.633  0.00  0.00    +0.000 C 
BRANCH  10  11
ATOM     11  N   UNL     1      48.383   2.008   5.173  0.00  0.00    +0.000 NA
ATOM     12  H   UNL     1      47.626   1.419   4.824  0.00  0.00    +0.000 HD
ATOM     13  H   UNL     1      49.249   1.562   4.873  0.00  0.00    +0.000 HD
ENDBRANCH  10  11
ENDBRANCH   9  10
ENDBRANCH   3   9
ENDBRANCH   1   6
BRANCH   1  14
ATOM     14  C   UNL     1      44.144   5.058  11.578  0.00  0.00    +0.000 C 
BRANCH  14  15
ATOM     15  C   UNL     1      44.945   6.336  11.675  0.00  0.00    +0.000 A 
ATOM     16  C   UNL     1      44.316   7.585  11.637  0.00  0.00    +0.000 A 
ATOM     17  C   UNL     1      45.063   8.754  11.763  0.00  0.00    +0.000 A 
ATOM     18  C   UNL     1      46.446   8.689  11.947  0.00  0.00    +0.000 A 
ATOM     19  C   UNL     1      47.098   7.450  12.005  0.00  0.00    +0.000 A 
ATOM     20  C   UNL     1      46.338   6.281  11.851  0.00  0.00    +0.000 A 
BRANCH  19  21
ATOM     21  C   UNL     1      48.582   7.359  12.265  0.00  0.00    +0.000 C 
ATOM     22  F   UNL     1      49.030   8.271  13.175  0.00  0.00    +0.000 F 
ATOM     23  F   UNL     1      48.948   6.142  12.757  0.00  0.00    +0.000 F 
ATOM     24  F   UNL     1      49.332   7.552  11.146  0.00  0.00    +0.000 F 
ENDBRANCH  19  21
ENDBRANCH  14  15
ENDBRANCH   1  14
TORSDOF 7
ENDMDL
MODEL 5
REMARK VINA RESULT:    -6.394      3.380      6.513
REMARK INTER + INTRA:          -9.758
REMARK INTER:                  -8.913
REMARK INTRA:                  -0.845
REMARK UNBOUND:                -0.934
REMARK  Name = 
REMARK  7 active torsions:
REMARK  status: ('A' for Active; 'I' for Inactive)
REMARK    1  A    between atoms: N_1  and  C_2
REMARK    2  A    between atoms: C_2  and  C_3
REMARK    3  A    between atoms: C_3  and  C_4
REMARK    4  A    between atoms: C_7  and  N_8
REMARK    5  A    between atoms: N_8  and  C_9
REMARK    6  A    between atoms: C_9  and  C_10
REMARK    7  A    between atoms: C_14  and  C_15
REMARK                            x       y       z     vdW  Elec       q    Type
REMARK                         _______ _______ _______ _____ _____    ______ ____
ROOT
ATOM      1  N   UNL     1      44.091   4.899  11.475  0.00  0.00    +0.000 N 
ATOM      2  H   UNL     1      43.277   5.201  12.009  0.00  0.00    +0.000 HD
ENDROOT
BRANCH   1   6
ATOM      3  C   UNL     1      47.676   6.485  13.039  0.00  0.00    +0.000 A 
ATOM      4  C   UNL     1      47.150   7.008  11.853  0.00  0.00    +0.000 A 
ATOM      5  C   UNL     1      45.951   6.515  11.327  0.00  0.00    +0.000 A 
ATOM      6  C   UNL     1      45.265   5.478  11.966  0.00  0.00    +0.000 A 
ATOM      7  C   UNL     1      45.749   5.024  13.197  0.00  0.00    +0.000 A 
ATOM      8  C   UNL     1      46.950   5.505  13.722  0.00  0.00    +0.000 A 
BRANCH   3   9
ATOM      9  C   UNL     1      49.002   6.971  13.572  0.00  0.00    +0.000 C 
BRANCH   9  10
ATOM     10  C   UNL     1      48.962   7.231  15.080  0.00  0.00    +0.000 C 
BRANCH  10  11
ATOM     11  N   UNL     1      49.892   6.355  15.790  0.00  0.00    +0.000 NA
ATOM     12  H   UNL     1      50.817   6.434  15.366  0.00  0.00    +0.000 HD
ATOM     13  H   UNL     1      49.609   5.383  15.671  0.00  0.00    +0.000 HD
ENDBRANCH  10  11
ENDBRANCH   9  10
ENDBRANCH   3   9
ENDBRANCH   1   6
BRANCH   1  14
ATOM     14  C   UNL     1      43.864   4.943  10.040  0.00  0.00    +0.000 C 
BRANCH  14  15
ATOM     15  C   UNL     1      44.543   3.756   9.398  0.00  0.00    +0.000 A 
ATOM     16  C   UNL     1      44.252   2.450   9.809  0.00  0.00    +0.000 A 
ATOM     17  C   UNL     1      44.859   1.363   9.185  0.00  0.00    +0.000 A 
ATOM     18  C   UNL     1      45.750   1.565   8.128  0.00  0.00    +0.000 A 
ATOM     19  C   UNL     1      46.045   2.862   7.686  0.00  0.00    +0.000 A 
ATOM     20  C   UNL     1      45.448   3.950   8.341  0.00  0.00    +0.000 A 
BRANCH  19  21
ATOM     21  C   UNL     1      46.957   3.097   6.507  0.00  0.00    +0.000 C 
ATOM     22  F   UNL     1      46.860   4.355   5.988  0.00  0.00    +0.000 F 
ATOM     23  F   UNL     1      48.272   2.934   6.828  0.00  0.00    +0.000 F 
ATOM     24  F   UNL     1      46.718   2.248   5.470  0.00  0.00    +0.000 F 
ENDBRANCH  19  21
ENDBRANCH  14  15
ENDBRANCH   1  14
TORSDOF 7
ENDMDL
MODEL 6
REMARK VINA RESULT:    -6.140      3.630      7.020
REMARK INTER + INTRA:          -9.406
REMARK INTER:                  -8.759
REMARK INTRA:                  -0.647
REMARK UNBOUND:                -0.934
REMARK  Name = 
REMARK  7 active torsions:
REMARK  status: ('A' for Active; 'I' for Inactive)
REMARK    1  A    between atoms: N_1  and  C_2
REMARK    2  A    between atoms: C_2  and  C_3
REMARK    3  A    between atoms: C_3  and  C_4
REMARK    4  A    between atoms: C_7  and  N_8
REMARK    5  A    between atoms: N_8  and  C_9
REMARK    6  A    between atoms: C_9  and  C_10
REMARK    7  A    between atoms: C_14  and  C_15
REMARK                            x       y       z     vdW  Elec       q    Type
REMARK                         _______ _______ _______ _____ _____    ______ ____
ROOT
ATOM      1  N   UNL     1      47.017   6.761  11.951  0.00  0.00    +0.000 N 
ATOM      2  H   UNL     1      47.501   6.254  11.211  0.00  0.00    +0.000 HD
ENDROOT
BRANCH   1   6
ATOM      3  C   UNL     1      48.198   5.560  15.821  0.00  0.00    +0.000 A 
ATOM      4  C   UNL     1      47.330   4.749  15.082  0.00  0.00    +0.000 A 
ATOM      5  C   UNL     1      46.943   5.114  13.788  0.00  0.00    +0.000 A 
ATOM      6  C   UNL     1      47.400   6.305  13.216  0.00  0.00    +0.000 A 
ATOM      7  C   UNL     1      48.338   7.063  13.924  0.00  0.00    +0.000 A 
ATOM      8  C   UNL     1      48.721   6.708  15.219  0.00  0.00    +0.000 A 
BRANCH   3   9
ATOM      9  C   UNL     1      48.566   5.201  17.240  0.00  0.00    +0.000 C 
BRANCH   9  10
ATOM     10  C   UNL     1      47.443   4.449  17.959  0.00  0.00    +0.000 C 
BRANCH  10  11
ATOM     11  N   UNL     1      46.520   5.378  18.608  0.00  0.00    +0.000 NA
ATOM     12  H   UNL     1      45.652   5.418  18.072  0.00  0.00    +0.000 HD
ATOM     13  H   UNL     1      46.908   6.320  18.587  0.00  0.00    +0.000 HD
ENDBRANCH  10  11
ENDBRANCH   9  10
ENDBRANCH   3   9
ENDBRANCH   1   6
BRANCH   1  14
ATOM     14  C   UNL     1      45.594   6.907  11.687  0.00  0.00    +0.000 C 
BRANCH  14  15
ATOM     15  C   UNL     1      45.074   5.627  11.076  0.00  0.00    +0.000 A 
ATOM     16  C   UNL     1      43.985   4.951  11.638  0.00  0.00    +0.000 A 
ATOM     17  C   UNL     1      43.493   3.791  11.044  0.00  0.00    +0.000 A 
ATOM     18  C   UNL     1      44.072   3.301   9.870  0.00  0.00    +0.000 A 
ATOM     19  C   UNL     1      45.153   3.969   9.278  0.00  0.00    +0.000 A 
ATOM     20  C   UNL     1      45.656   5.121   9.901  0.00  0.00    +0.000 A 
BRANCH  19  21
ATOM     21  C   UNL     1      45.750   3.490   7.978  0.00  0.00    +0.000 C 
ATOM     22  F   UNL     1      44.832   3.344   6.980  0.00  0.00    +0.000 F 
ATOM     23  F   UNL     1      46.688   4.351   7.491  0.00  0.00    +0.000 F 
ATOM     24  F   UNL     1      46.372   2.284   8.090  0.00  0.00    +0.000 F 
ENDBRANCH  19  21
ENDBRANCH  14  15
ENDBRANCH   1  14
TORSDOF 7
ENDMDL
MODEL 7
REMARK VINA RESULT:    -6.018      3.479      6.224
REMARK INTER + INTRA:          -9.238
REMARK INTER:                  -8.345
REMARK INTRA:                  -0.893
REMARK UNBOUND:                -0.934
REMARK  Name = 
REMARK  7 active torsions:
REMARK  status: ('A' for Active; 'I' for Inactive)
REMARK    1  A    between atoms: N_1  and  C_2
REMARK    2  A    between atoms: C_2  and  C_3
REMARK    3  A    between atoms: C_3  and  C_4
REMARK    4  A    between atoms: C_7  and  N_8
REMARK    5  A    between atoms: N_8  and  C_9
REMARK    6  A    between atoms: C_9  and  C_10
REMARK    7  A    between atoms: C_14  and  C_15
REMARK                            x       y       z     vdW  Elec       q    Type
REMARK                         _______ _______ _______ _____ _____    ______ ____
ROOT
ATOM      1  N   UNL     1      44.868   6.810  12.951  0.00  0.00    +0.000 N 
ATOM      2  H   UNL     1      44.476   7.443  13.648  0.00  0.00    +0.000 HD
ENDROOT
BRANCH   1   6
ATOM      3  C   UNL     1      48.938   7.748  12.346  0.00  0.00    +0.000 A 
ATOM      4  C   UNL     1      48.589   6.497  12.865  0.00  0.00    +0.000 A 
ATOM      5  C   UNL     1      47.245   6.154  13.053  0.00  0.00    +0.000 A 
ATOM      6  C   UNL     1      46.227   7.061  12.743  0.00  0.00    +0.000 A 
ATOM      7  C   UNL     1      46.581   8.272  12.140  0.00  0.00    +0.000 A 
ATOM      8  C   UNL     1      47.919   8.624  11.959  0.00  0.00    +0.000 A 
BRANCH   3   9
ATOM      9  C   UNL     1      50.388   8.145  12.204  0.00  0.00    +0.000 C 
BRANCH   9  10
ATOM     10  C   UNL     1      50.969   8.700  13.507  0.00  0.00    +0.000 C 
BRANCH  10  11
ATOM     11  N   UNL     1      51.925   7.765  14.096  0.00  0.00    +0.000 NA
ATOM     12  H   UNL     1      52.824   7.860  13.620  0.00  0.00    +0.000 HD
ATOM     13  H   UNL     1      51.618   6.807  13.929  0.00  0.00    +0.000 HD
ENDBRANCH  10  11
ENDBRANCH   9  10
ENDBRANCH   3   9
ENDBRANCH   1   6
BRANCH   1  14
ATOM     14  C   UNL     1      44.017   6.677  11.779  0.00  0.00    +0.000 C 
BRANCH  14  15
ATOM     15  C   UNL     1      44.110   5.260  11.263  0.00  0.00    +0.000 A 
ATOM     16  C   UNL     1      43.446   4.212  11.911  0.00  0.00    +0.000 A 
ATOM     17  C   UNL     1      43.511   2.916  11.404  0.00  0.00    +0.000 A 
ATOM     18  C   UNL     1      44.225   2.654  10.232  0.00  0.00    +0.000 A 
ATOM     19  C   UNL     1      44.884   3.689   9.554  0.00  0.00    +0.000 A 
ATOM     20  C   UNL     1      44.833   4.985  10.090  0.00  0.00    +0.000 A 
BRANCH  19  21
ATOM     21  C   UNL     1      45.607   3.435   8.254  0.00  0.00    +0.000 C 
ATOM     22  F   UNL     1      44.777   3.382   7.173  0.00  0.00    +0.000 F 
ATOM     23  F   UNL     1      46.516   4.410   7.969  0.00  0.00    +0.000 F 
ATOM     24  F   UNL     1      46.300   2.264   8.249  0.00  0.00    +0.000 F 
ENDBRANCH  19  21
ENDBRANCH  14  15
ENDBRANCH   1  14
TORSDOF 7
ENDMDL
MODEL 8
REMARK VINA RESULT:    -6.016      2.143      2.898
REMARK INTER + INTRA:          -9.236
REMARK INTER:                  -8.671
REMARK INTRA:                  -0.565
REMARK UNBOUND:                -0.934
REMARK  Name = 
REMARK  7 active torsions:
REMARK  status: ('A' for Active; 'I' for Inactive)
REMARK    1  A    between atoms: N_1  and  C_2
REMARK    2  A    between atoms: C_2  and  C_3
REMARK    3  A    between atoms: C_3  and  C_4
REMARK    4  A    between atoms: C_7  and  N_8
REMARK    5  A    between atoms: N_8  and  C_9
REMARK    6  A    between atoms: C_9  and  C_10
REMARK    7  A    between atoms: C_14  and  C_15
REMARK                            x       y       z     vdW  Elec       q    Type
REMARK                         _______ _______ _______ _____ _____    ______ ____
ROOT
ATOM      1  N   UNL     1      44.999   5.220  11.813  0.00  0.00    +0.000 N 
ATOM      2  H   UNL     1      45.402   4.723  12.608  0.00  0.00    +0.000 HD
ENDROOT
BRANCH   1   6
ATOM      3  C   UNL     1      45.782   3.249   8.165  0.00  0.00    +0.000 A 
ATOM      4  C   UNL     1      45.252   2.526   9.239  0.00  0.00    +0.000 A 
ATOM      5  C   UNL     1      44.962   3.162  10.451  0.00  0.00    +0.000 A 
ATOM      6  C   UNL     1      45.214   4.527  10.619  0.00  0.00    +0.000 A 
ATOM      7  C   UNL     1      45.658   5.259   9.513  0.00  0.00    +0.000 A 
ATOM      8  C   UNL     1      45.958   4.628   8.304  0.00  0.00    +0.000 A 
BRANCH   3   9
ATOM      9  C   UNL     1      46.156   2.552   6.879  0.00  0.00    +0.000 C 
BRANCH   9  10
ATOM     10  C   UNL     1      47.349   1.608   7.054  0.00  0.00    +0.000 C 
BRANCH  10  11
ATOM     11  N   UNL     1      48.349   1.826   6.011  0.00  0.00    +0.000 NA
ATOM     12  H   UNL     1      48.982   1.024   5.981  0.00  0.00    +0.000 HD
ATOM     13  H   UNL     1      48.927   2.631   6.251  0.00  0.00    +0.000 HD
ENDBRANCH  10  11
ENDBRANCH   9  10
ENDBRANCH   3   9
ENDBRANCH   1   6
BRANCH   1  14
ATOM     14  C   UNL     1      45.300   6.642  11.835  0.00  0.00    +0.000 C 
BRANCH  14  15
ATOM     15  C   UNL     1      46.725   6.836  12.300  0.00  0.00    +0.000 A 
ATOM     16  C   UNL     1      47.695   7.374  11.447  0.00  0.00    +0.000 A 
ATOM     17  C   UNL     1      48.996   7.581  11.901  0.00  0.00    +0.000 A 
ATOM     18  C   UNL     1      49.339   7.269  13.219  0.00  0.00    +0.000 A 
ATOM     19  C   UNL     1      48.382   6.745  14.098  0.00  0.00    +0.000 A 
ATOM     20  C   UNL     1      47.082   6.517  13.621  0.00  0.00    +0.000 A 
BRANCH  19  21
ATOM     21  C   UNL     1      48.719   6.460  15.541  0.00  0.00    +0.000 C 
ATOM     22  F   UNL     1      48.152   5.314  16.015  0.00  0.00    +0.000 F 
ATOM     23  F   UNL     1      50.060   6.315  15.741  0.00  0.00    +0.000 F 
ATOM     24  F   UNL     1      48.321   7.449  16.387  0.00  0.00    +0.000 F 
ENDBRANCH  19  21
ENDBRANCH  14  15
ENDBRANCH   1  14
TORSDOF 7
ENDMDL
MODEL 9
REMARK VINA RESULT:    -5.994      3.727      4.962
REMARK INTER + INTRA:          -9.205
REMARK INTER:                  -8.587
REMARK INTRA:                  -0.619
REMARK UNBOUND:                -0.934
REMARK  Name = 
REMARK  7 active torsions:
REMARK  status: ('A' for Active; 'I' for Inactive)
REMARK    1  A    between atoms: N_1  and  C_2
REMARK    2  A    between atoms: C_2  and  C_3
REMARK    3  A    between atoms: C_3  and  C_4
REMARK    4  A    between atoms: C_7  and  N_8
REMARK    5  A    between atoms: N_8  and  C_9
REMARK    6  A    between atoms: C_9  and  C_10
REMARK    7  A    between atoms: C_14  and  C_15
REMARK                            x       y       z     vdW  Elec       q    Type
REMARK                         _______ _______ _______ _____ _____    ______ ____
ROOT
ATOM      1  N   UNL     1      46.110   5.558  13.637  0.00  0.00    +0.000 N 
ATOM      2  H   UNL     1      46.093   4.804  14.322  0.00  0.00    +0.000 HD
ENDROOT
BRANCH   1   6
ATOM      3  C   UNL     1      45.082   4.292   9.744  0.00  0.00    +0.000 A 
ATOM      4  C   UNL     1      44.809   3.460  10.834  0.00  0.00    +0.000 A 
ATOM      5  C   UNL     1      45.119   3.867  12.137  0.00  0.00    +0.000 A 
ATOM      6  C   UNL     1      45.724   5.105  12.372  0.00  0.00    +0.000 A 
ATOM      7  C   UNL     1      45.910   5.968  11.287  0.00  0.00    +0.000 A 
ATOM      8  C   UNL     1      45.611   5.563   9.985  0.00  0.00    +0.000 A 
BRANCH   3   9
ATOM      9  C   UNL     1      44.809   3.828   8.334  0.00  0.00    +0.000 C 
BRANCH   9  10
ATOM     10  C   UNL     1      46.043   3.204   7.677  0.00  0.00    +0.000 C 
BRANCH  10  11
ATOM     11  N   UNL     1      46.756   4.183   6.861  0.00  0.00    +0.000 NA
ATOM     12  H   UNL     1      46.213   5.047   6.822  0.00  0.00    +0.000 HD
ATOM     13  H   UNL     1      46.822   3.848   5.900  0.00  0.00    +0.000 HD
ENDBRANCH  10  11
ENDBRANCH   9  10
ENDBRANCH   3   9
ENDBRANCH   1   6
BRANCH   1  14
ATOM     14  C   UNL     1      47.315   6.367  13.728  0.00  0.00    +0.000 C 
BRANCH  14  15
ATOM     15  C   UNL     1      48.086   5.962  14.962  0.00  0.00    +0.000 A 
ATOM     16  C   UNL     1      49.073   6.795  15.501  0.00  0.00    +0.000 A 
ATOM     17  C   UNL     1      49.752   6.424  16.660  0.00  0.00    +0.000 A 
ATOM     18  C   UNL     1      49.439   5.225  17.306  0.00  0.00    +0.000 A 
ATOM     19  C   UNL     1      48.443   4.382  16.796  0.00  0.00    +0.000 A 
ATOM     20  C   UNL     1      47.786   4.753  15.614  0.00  0.00    +0.000 A 
BRANCH  19  21
ATOM     21  C   UNL     1      48.050   3.114  17.514  0.00  0.00    +0.000 C 
ATOM     22  F   UNL     1      48.608   1.991  16.977  0.00  0.00    +0.000 F 
ATOM     23  F   UNL     1      48.430   3.121  18.823  0.00  0.00    +0.000 F 
ATOM     24  F   UNL     1      46.706   2.897  17.516  0.00  0.00    +0.000 F 
ENDBRANCH  19  21
ENDBRANCH  14  15
ENDBRANCH   1  14
TORSDOF 7
ENDMDL
