MODEL 1
REMARK VINA RESULT:    -7.986      0.000      0.000
REMARK INTER + INTRA:         -11.539
REMARK INTER:                 -11.020
REMARK INTRA:                  -0.519
REMARK UNBOUND:                -0.519
REMARK  Name = 
REMARK  8 active torsions:
REMARK  status: ('A' for Active; 'I' for Inactive)
REMARK    1  A    between atoms: C_1  and  C_2
REMARK    2  A    between atoms: C_4  and  O_5
REMARK    3  A    between atoms: O_5  and  C_6
REMARK    4  A    between atoms: C_6  and  C_7
REMARK    5  A    between atoms: C_10  and  C_11
REMARK    6  A    between atoms: C_12  and  C_13
REMARK    7  A    between atoms: C_20  and  C_21
REMARK    8  A    between atoms: C_21  and  O_23
REMARK                            x       y       z     vdW  Elec       q    Type
REMARK                         _______ _______ _______ _____ _____    ______ ____
ROOT
ATOM      1  C   UNL     1      43.706   4.299  10.523  0.00  0.00    +0.000 C 
ENDROOT
BRANCH   1   2
ATOM      2  C   UNL     1      44.695   4.517  11.644  0.00  0.00    +0.000 A 
ATOM      3  C   UNL     1      45.233   3.425  12.335  0.00  0.00    +0.000 A 
ATOM      4  C   UNL     1      46.162   3.619  13.363  0.00  0.00    +0.000 A 
ATOM      5  C   UNL     1      46.582   4.907  13.722  0.00  0.00    +0.000 A 
ATOM      6  C   UNL     1      46.028   5.998  13.040  0.00  0.00    +0.000 A 
ATOM      7  C   UNL     1      45.097   5.807  12.010  0.00  0.00    +0.000 A 
BRANCH   5   8
ATOM      8  C   UNL     1      47.527   5.146  14.825  0.00  0.00    +0.000 C 
ATOM      9  C   UNL     1      47.574   4.414  15.953  0.00  0.00    +0.000 C 
BRANCH   9  10
ATOM     10  C   UNL     1      48.550   4.734  17.019  0.00  0.00    +0.000 C 
ATOM     11  N   UNL     1      47.983   5.187  18.169  0.00  0.00    +0.000 N 
ATOM     12  O   UNL     1      49.761   4.615  16.899  0.00  0.00    +0.000 OA
ATOM     13  H   UNL     1      46.987   5.295  18.307  0.00  0.00    +0.000 HD
ATOM     14  H   UNL     1      48.603   5.420  18.932  0.00  0.00    +0.000 HD
ENDBRANCH   9  10
ENDBRANCH   5   8
ENDBRANCH   1   2
BRANCH   1  15
ATOM     15  O   UNL     1      43.814   2.959  10.020  0.00  0.00    +0.000 OA
BRANCH  15  19
ATOM     16  C   UNL     1      46.797   0.143   7.673  0.00  0.00    +0.000 C 
ATOM     17  C   UNL     1      46.296   1.546   7.847  0.00  0.00    +0.000 A 
ATOM     18  N   UNL     1      45.341   1.657   8.808  0.00  0.00    +0.000 NA
ATOM     19  C   UNL     1      44.794   2.859   9.055  0.00  0.00    +0.000 A 
ATOM     20  C   UNL     1      45.164   4.002   8.373  0.00  0.00    +0.000 A 
ATOM     21  C   UNL     1      46.145   3.895   7.385  0.00  0.00    +0.000 A 
ATOM     22  C   UNL     1      46.745   2.653   7.116  0.00  0.00    +0.000 A 
BRANCH  22  23
ATOM     23  C   UNL     1      47.774   2.518   6.055  0.00  0.00    +0.000 C 
ATOM     24  O   UNL     1      47.504   2.381   4.880  0.00  0.00    +0.000 OA
BRANCH  23  25
ATOM     25  O   UNL     1      49.054   2.554   6.491  0.00  0.00    +0.000 OA
ATOM     26  H   UNL     1      49.206   2.389   7.439  0.00  0.00    +0.000 HD
ENDBRANCH  23  25
ENDBRANCH  22  23
ENDBRANCH  15  19
ENDBRANCH   1  15
TORSDOF 7
ENDMDL
MODEL 2
REMARK VINA RESULT:    -7.645      2.531      2.975
REMARK INTER + INTRA:         -11.069
REMARK INTER:                 -10.940
REMARK INTRA:                  -0.129
REMARK UNBOUND:                -0.519
REMARK  Name = 
REMARK  8 active torsions:
REMARK  status: ('A' for Active; 'I' for Inactive)
REMARK    1  A    between atoms: C_1  and  C_2
REMARK    2  A    between atoms: C_4  and  O_5
REMARK    3  A    between atoms: O_5  and  C_6
REMARK    4  A    between atoms: C_6  and  C_7
REMARK    5  A    between atoms: C_10  and  C_11
REMARK    6  A    between atoms: C_12  and  C_13
REMARK    7  A    between atoms: C_20  and  C_21
REMARK    8  A    between atoms: C_21  and  O_23
REMARK                            x       y       z     vdW  Elec       q    Type
REMARK                         _______ _______ _______ _____ _____    ______ ____
ROOT
ATOM      1  C   UNL     1      43.534   4.615  10.964  0.00  0.00    +0.000 C 
ENDROOT
BRANCH   1   2
ATOM      2  C   UNL     1      44.750   5.209  11.635  0.00  0.00    +0.000 A 
ATOM      3  C   UNL     1      45.321   4.581  12.748  0.00  0.00    +0.000 A 
ATOM      4  C   UNL     1      46.457   5.116  13.364  0.00  0.00    +0.000 A 
ATOM      5  C   UNL     1      47.056   6.287  12.880  0.00  0.00    +0.000 A 
ATOM      6  C   UNL     1      46.472   6.922  11.777  0.00  0.00    +0.000 A 
ATOM      7  C   UNL     1      45.333   6.389  11.158  0.00  0.00    +0.000 A 
BRANCH   5   8
ATOM      8  C   UNL     1      48.228   6.897  13.530  0.00  0.00    +0.000 C 
ATOM      9  C   UNL     1      48.950   7.900  12.999  0.00  0.00    +0.000 C 
BRANCH   9  10
ATOM     10  C   UNL     1      50.124   8.445  13.716  0.00  0.00    +0.000 C 
ATOM     11  N   UNL     1      51.280   7.769  13.478  0.00  0.00    +0.000 N 
ATOM     12  O   UNL     1      50.084   9.412  14.463  0.00  0.00    +0.000 OA
ATOM     13  H   UNL     1      51.354   6.969  12.864  0.00  0.00    +0.000 HD
ATOM     14  H   UNL     1      52.115   8.098  13.941  0.00  0.00    +0.000 HD
ENDBRANCH   9  10
ENDBRANCH   5   8
ENDBRANCH   1   2
BRANCH   1  15
ATOM     15  O   UNL     1      43.637   4.749   9.540  0.00  0.00    +0.000 OA
BRANCH  15  19
ATOM     16  C   UNL     1      47.060   3.758   6.434  0.00  0.00    +0.000 C 
ATOM     17  C   UNL     1      46.158   3.210   7.500  0.00  0.00    +0.000 A 
ATOM     18  N   UNL     1      45.322   4.145   8.024  0.00  0.00    +0.000 NA
ATOM     19  C   UNL     1      44.470   3.790   9.001  0.00  0.00    +0.000 A 
ATOM     20  C   UNL     1      44.401   2.504   9.502  0.00  0.00    +0.000 A 
ATOM     21  C   UNL     1      45.257   1.539   8.966  0.00  0.00    +0.000 A 
ATOM     22  C   UNL     1      46.147   1.878   7.933  0.00  0.00    +0.000 A 
BRANCH  22  23
ATOM     23  C   UNL     1      47.078   0.869   7.368  0.00  0.00    +0.000 C 
ATOM     24  O   UNL     1      48.019   1.157   6.658  0.00  0.00    +0.000 OA
BRANCH  23  25
ATOM     25  O   UNL     1      46.801  -0.413   7.697  0.00  0.00    +0.000 OA
ATOM     26  H   UNL     1      46.702  -0.617   8.645  0.00  0.00    +0.000 HD
ENDBRANCH  23  25
ENDBRANCH  22  23
ENDBRANCH  15  19
ENDBRANCH   1  15
TORSDOF 7
ENDMDL
MODEL 3
REMARK VINA RESULT:    -7.553      2.609      7.281
REMARK INTER + INTRA:         -10.943
REMARK INTER:                 -10.345
REMARK INTRA:                  -0.598
REMARK UNBOUND:                -0.519
REMARK  Name = 
REMARK  8 active torsions:
REMARK  status: ('A' for Active; 'I' for Inactive)
REMARK    1  A    between atoms: C_1  and  C_2
REMARK    2  A    between atoms: C_4  and  O_5
REMARK    3  A    between atoms: O_5  and  C_6
REMARK    4  A    between atoms: C_6  and  C_7
REMARK    5  A    between atoms: C_10  and  C_11
REMARK    6  A    between atoms: C_12  and  C_13
REMARK    7  A    between atoms: C_20  and  C_21
REMARK    8  A    between atoms: C_21  and  O_23
REMARK                            x       y       z     vdW  Elec       q    Type
REMARK                         _______ _______ _______ _____ _____    ______ ____
ROOT
ATOM      1  C   UNL     1      42.692   5.473  11.922  0.00  0.00    +0.000 C 
ENDROOT
BRANCH   1   2
ATOM      2  C   UNL     1      43.500   4.610  10.982  0.00  0.00    +0.000 A 
ATOM      3  C   UNL     1      43.515   3.219  11.136  0.00  0.00    +0.000 A 
ATOM      4  C   UNL     1      44.249   2.412  10.261  0.00  0.00    +0.000 A 
ATOM      5  C   UNL     1      44.980   2.973   9.205  0.00  0.00    +0.000 A 
ATOM      6  C   UNL     1      44.977   4.366   9.064  0.00  0.00    +0.000 A 
ATOM      7  C   UNL     1      44.244   5.177   9.941  0.00  0.00    +0.000 A 
BRANCH   5   8
ATOM      8  C   UNL     1      45.793   2.154   8.290  0.00  0.00    +0.000 C 
ATOM      9  C   UNL     1      46.777   2.641   7.513  0.00  0.00    +0.000 C 
BRANCH   9  10
ATOM     10  C   UNL     1      47.537   1.747   6.610  0.00  0.00    +0.000 C 
ATOM     11  N   UNL     1      48.608   2.341   6.018  0.00  0.00    +0.000 N 
ATOM     12  O   UNL     1      47.246   0.579   6.398  0.00  0.00    +0.000 OA
ATOM     13  H   UNL     1      48.882   3.301   6.173  0.00  0.00    +0.000 HD
ATOM     14  H   UNL     1      49.165   1.776   5.392  0.00  0.00    +0.000 HD
ENDBRANCH   9  10
ENDBRANCH   5   8
ENDBRANCH   1   2
BRANCH   1  15
ATOM     15  O   UNL     1      43.245   5.420  13.245  0.00  0.00    +0.000 OA
BRANCH  15  19
ATOM     16  C   UNL     1      46.486   8.794  12.572  0.00  0.00    +0.000 C 
ATOM     17  C   UNL     1      46.249   7.359  12.940  0.00  0.00    +0.000 A 
ATOM     18  N   UNL     1      44.935   7.013  12.922  0.00  0.00    +0.000 NA
ATOM     19  C   UNL     1      44.582   5.758  13.248  0.00  0.00    +0.000 A 
ATOM     20  C   UNL     1      45.503   4.790  13.601  0.00  0.00    +0.000 A 
ATOM     21  C   UNL     1      46.855   5.140  13.618  0.00  0.00    +0.000 A 
ATOM     22  C   UNL     1      47.255   6.440  13.268  0.00  0.00    +0.000 A 
BRANCH  22  23
ATOM     23  C   UNL     1      48.685   6.833  13.302  0.00  0.00    +0.000 C 
ATOM     24  O   UNL     1      49.233   7.262  14.297  0.00  0.00    +0.000 OA
BRANCH  23  25
ATOM     25  O   UNL     1      49.349   6.685  12.133  0.00  0.00    +0.000 OA
ATOM     26  H   UNL     1      50.084   7.301  11.958  0.00  0.00    +0.000 HD
ENDBRANCH  23  25
ENDBRANCH  22  23
ENDBRANCH  15  19
ENDBRANCH   1  15
TORSDOF 7
ENDMDL
MODEL 4
REMARK VINA RESULT:    -7.473      1.873      2.108
REMARK INTER + INTRA:         -10.831
REMARK INTER:                 -10.253
REMARK INTRA:                  -0.579
REMARK UNBOUND:                -0.519
REMARK  Name = 
REMARK  8 active torsions:
REMARK  status: ('A' for Active; 'I' for Inactive)
REMARK    1  A    between atoms: C_1  and  C_2
REMARK    2  A    between atoms: C_4  and  O_5
REMARK    3  A    between atoms: O_5  and  C_6
REMARK    4  A    between atoms: C_6  and  C_7
REMARK    5  A    between atoms: C_10  and  C_11
REMARK    6  A    between atoms: C_12  and  C_13
REMARK    7  A    between atoms: C_20  and  C_21
REMARK    8  A    between atoms: C_21  and  O_23
REMARK                            x       y       z     vdW  Elec       q    Type
REMARK                         _______ _______ _______ _____ _____    ______ ____
ROOT
ATOM      1  C   UNL     1      43.977   2.805  11.483  0.00  0.00    +0.000 C 
ENDROOT
BRANCH   1   2
ATOM      2  C   UNL     1      44.914   3.776  12.162  0.00  0.00    +0.000 A 
ATOM      3  C   UNL     1      46.038   3.309  12.853  0.00  0.00    +0.000 A 
ATOM      4  C   UNL     1      46.918   4.203  13.470  0.00  0.00    +0.000 A 
ATOM      5  C   UNL     1      46.703   5.586  13.407  0.00  0.00    +0.000 A 
ATOM      6  C   UNL     1      45.568   6.050  12.730  0.00  0.00    +0.000 A 
ATOM      7  C   UNL     1      44.683   5.155  12.112  0.00  0.00    +0.000 A 
BRANCH   5   8
ATOM      8  C   UNL     1      47.590   6.551  14.080  0.00  0.00    +0.000 C 
ATOM      9  C   UNL     1      48.812   6.891  13.634  0.00  0.00    +0.000 C 
BRANCH   9  10
ATOM     10  C   UNL     1      49.643   7.862  14.381  0.00  0.00    +0.000 C 
ATOM     11  N   UNL     1      50.941   7.481  14.526  0.00  0.00    +0.000 N 
ATOM     12  O   UNL     1      49.224   8.915  14.839  0.00  0.00    +0.000 OA
ATOM     13  H   UNL     1      51.325   6.622  14.158  0.00  0.00    +0.000 HD
ATOM     14  H   UNL     1      51.556   8.108  15.028  0.00  0.00    +0.000 HD
ENDBRANCH   9  10
ENDBRANCH   5   8
ENDBRANCH   1   2
BRANCH   1  15
ATOM     15  O   UNL     1      43.601   3.299  10.190  0.00  0.00    +0.000 OA
BRANCH  15  19
ATOM     16  C   UNL     1      46.432   0.276   7.914  0.00  0.00    +0.000 C 
ATOM     17  C   UNL     1      46.051   1.714   8.100  0.00  0.00    +0.000 A 
ATOM     18  N   UNL     1      45.063   1.890   9.018  0.00  0.00    +0.000 NA
ATOM     19  C   UNL     1      44.615   3.131   9.270  0.00  0.00    +0.000 A 
ATOM     20  C   UNL     1      45.118   4.251   8.636  0.00  0.00    +0.000 A 
ATOM     21  C   UNL     1      46.134   4.076   7.694  0.00  0.00    +0.000 A 
ATOM     22  C   UNL     1      46.633   2.791   7.420  0.00  0.00    +0.000 A 
BRANCH  22  23
ATOM     23  C   UNL     1      47.697   2.587   6.406  0.00  0.00    +0.000 C 
ATOM     24  O   UNL     1      48.752   2.041   6.651  0.00  0.00    +0.000 OA
BRANCH  23  25
ATOM     25  O   UNL     1      47.411   3.062   5.173  0.00  0.00    +0.000 OA
ATOM     26  H   UNL     1      48.065   3.659   4.764  0.00  0.00    +0.000 HD
ENDBRANCH  23  25
ENDBRANCH  22  23
ENDBRANCH  15  19
ENDBRANCH   1  15
TORSDOF 7
ENDMDL
MODEL 5
REMARK VINA RESULT:    -7.266      1.407      2.065
REMARK INTER + INTRA:         -10.546
REMARK INTER:                 -10.275
REMARK INTRA:                  -0.271
REMARK UNBOUND:                -0.519
REMARK  Name = 
REMARK  8 active torsions:
REMARK  status: ('A' for Active; 'I' for Inactive)
REMARK    1  A    between atoms: C_1  and  C_2
REMARK    2  A    between atoms: C_4  and  O_5
REMARK    3  A    between atoms: O_5  and  C_6
REMARK    4  A    between atoms: C_6  and  C_7
REMARK    5  A    between atoms: C_10  and  C_11
REMARK    6  A    between atoms: C_12  and  C_13
REMARK    7  A    between atoms: C_20  and  C_21
REMARK    8  A    between atoms: C_21  and  O_23
REMARK                            x       y       z     vdW  Elec       q    Type
REMARK                         _______ _______ _______ _____ _____    ______ ____
ROOT
ATOM      1  C   UNL     1      44.353   5.797  10.243  0.00  0.00    +0.000 C 
ENDROOT
BRANCH   1   2
ATOM      2  C   UNL     1      45.177   5.575  11.490  0.00  0.00    +0.000 A 
ATOM      3  C   UNL     1      46.408   6.221  11.648  0.00  0.00    +0.000 A 
ATOM      4  C   UNL     1      47.169   6.032  12.807  0.00  0.00    +0.000 A 
ATOM      5  C   UNL     1      46.717   5.200  13.838  0.00  0.00    +0.000 A 
ATOM      6  C   UNL     1      45.493   4.540  13.669  0.00  0.00    +0.000 A 
ATOM      7  C   UNL     1      44.729   4.727  12.509  0.00  0.00    +0.000 A 
BRANCH   5   8
ATOM      8  C   UNL     1      47.512   4.950  15.053  0.00  0.00    +0.000 C 
ATOM      9  C   UNL     1      47.200   4.031  15.984  0.00  0.00    +0.000 C 
BRANCH   9  10
ATOM     10  C   UNL     1      48.050   3.855  17.183  0.00  0.00    +0.000 C 
ATOM     11  N   UNL     1      47.458   3.144  18.180  0.00  0.00    +0.000 N 
ATOM     12  O   UNL     1      49.182   4.302  17.293  0.00  0.00    +0.000 OA
ATOM     13  H   UNL     1      46.527   2.755  18.125  0.00  0.00    +0.000 HD
ATOM     14  H   UNL     1      47.994   2.992  19.024  0.00  0.00    +0.000 HD
ENDBRANCH   9  10
ENDBRANCH   5   8
ENDBRANCH   1   2
BRANCH   1  15
ATOM     15  O   UNL     1      43.679   4.586   9.871  0.00  0.00    +0.000 OA
BRANCH  15  19
ATOM     16  C   UNL     1      46.968   4.037   6.521  0.00  0.00    +0.000 C 
ATOM     17  C   UNL     1      46.152   3.356   7.579  0.00  0.00    +0.000 A 
ATOM     18  N   UNL     1      45.304   4.199   8.225  0.00  0.00    +0.000 NA
ATOM     19  C   UNL     1      44.525   3.720   9.209  0.00  0.00    +0.000 A 
ATOM     20  C   UNL     1      44.542   2.394   9.598  0.00  0.00    +0.000 A 
ATOM     21  C   UNL     1      45.410   1.523   8.936  0.00  0.00    +0.000 A 
ATOM     22  C   UNL     1      46.226   1.992   7.893  0.00  0.00    +0.000 A 
BRANCH  22  23
ATOM     23  C   UNL     1      47.169   1.084   7.195  0.00  0.00    +0.000 C 
ATOM     24  O   UNL     1      48.214   1.459   6.705  0.00  0.00    +0.000 OA
BRANCH  23  25
ATOM     25  O   UNL     1      46.780  -0.210   7.136  0.00  0.00    +0.000 OA
ATOM     26  H   UNL     1      45.889  -0.391   6.782  0.00  0.00    +0.000 HD
ENDBRANCH  23  25
ENDBRANCH  22  23
ENDBRANCH  15  19
ENDBRANCH   1  15
TORSDOF 7
ENDMDL
MODEL 6
REMARK VINA RESULT:    -6.493      4.035      6.365
REMARK INTER + INTRA:          -9.480
REMARK INTER:                  -8.974
REMARK INTRA:                  -0.505
REMARK UNBOUND:                -0.519
REMARK  Name = 
REMARK  8 active torsions:
REMARK  status: ('A' for Active; 'I' for Inactive)
REMARK    1  A    between atoms: C_1  and  C_2
REMARK    2  A    between atoms: C_4  and  O_5
REMARK    3  A    between atoms: O_5  and  C_6
REMARK    4  A    between atoms: C_6  and  C_7
REMARK    5  A    between atoms: C_10  and  C_11
REMARK    6  A    between atoms: C_12  and  C_13
REMARK    7  A    between atoms: C_20  and  C_21
REMARK    8  A    between atoms: C_21  and  O_23
REMARK                            x       y       z     vdW  Elec       q    Type
REMARK                         _______ _______ _______ _____ _____    ______ ____
ROOT
ATOM      1  C   UNL     1      47.209   3.645  15.746  0.00  0.00    +0.000 C 
ENDROOT
BRANCH   1   2
ATOM      2  C   UNL     1      48.540   3.496  16.444  0.00  0.00    +0.000 A 
ATOM      3  C   UNL     1      49.165   2.246  16.518  0.00  0.00    +0.000 A 
ATOM      4  C   UNL     1      50.404   2.104  17.149  0.00  0.00    +0.000 A 
ATOM      5  C   UNL     1      51.055   3.207  17.716  0.00  0.00    +0.000 A 
ATOM      6  C   UNL     1      50.420   4.454  17.657  0.00  0.00    +0.000 A 
ATOM      7  C   UNL     1      49.177   4.599  17.026  0.00  0.00    +0.000 A 
BRANCH   5   8
ATOM      8  C   UNL     1      52.342   3.084  18.422  0.00  0.00    +0.000 C 
ATOM      9  C   UNL     1      53.178   2.037  18.293  0.00  0.00    +0.000 C 
BRANCH   9  10
ATOM     10  C   UNL     1      54.447   1.989  19.052  0.00  0.00    +0.000 C 
ATOM     11  N   UNL     1      54.304   2.232  20.383  0.00  0.00    +0.000 N 
ATOM     12  O   UNL     1      55.538   1.757  18.552  0.00  0.00    +0.000 OA
ATOM     13  H   UNL     1      53.420   2.423  20.834  0.00  0.00    +0.000 HD
ATOM     14  H   UNL     1      55.140   2.210  20.951  0.00  0.00    +0.000 HD
ENDBRANCH   9  10
ENDBRANCH   5   8
ENDBRANCH   1   2
BRANCH   1  15
ATOM     15  O   UNL     1      47.330   3.278  14.364  0.00  0.00    +0.000 OA
BRANCH  15  19
ATOM     16  C   UNL     1      43.590   2.452  11.594  0.00  0.00    +0.000 C 
ATOM     17  C   UNL     1      44.450   3.502  12.233  0.00  0.00    +0.000 A 
ATOM     18  N   UNL     1      45.470   2.982  12.967  0.00  0.00    +0.000 NA
ATOM     19  C   UNL     1      46.309   3.814  13.607  0.00  0.00    +0.000 A 
ATOM     20  C   UNL     1      46.185   5.189  13.551  0.00  0.00    +0.000 A 
ATOM     21  C   UNL     1      45.140   5.729  12.797  0.00  0.00    +0.000 A 
ATOM     22  C   UNL     1      44.257   4.883  12.105  0.00  0.00    +0.000 A 
BRANCH  22  23
ATOM     23  C   UNL     1      43.129   5.440  11.317  0.00  0.00    +0.000 C 
ATOM     24  O   UNL     1      42.124   5.894  11.824  0.00  0.00    +0.000 OA
BRANCH  23  25
ATOM     25  O   UNL     1      43.294   5.404   9.976  0.00  0.00    +0.000 OA
ATOM     26  H   UNL     1      43.048   6.204   9.476  0.00  0.00    +0.000 HD
ENDBRANCH  23  25
ENDBRANCH  22  23
ENDBRANCH  15  19
ENDBRANCH   1  15
TORSDOF 7
ENDMDL
MODEL 7
REMARK VINA RESULT:    -6.362      3.624      6.516
REMARK INTER + INTRA:          -9.299
REMARK INTER:                  -8.646
REMARK INTRA:                  -0.653
REMARK UNBOUND:                -0.519
REMARK  Name = 
REMARK  8 active torsions:
REMARK  status: ('A' for Active; 'I' for Inactive)
REMARK    1  A    between atoms: C_1  and  C_2
REMARK    2  A    between atoms: C_4  and  O_5
REMARK    3  A    between atoms: O_5  and  C_6
REMARK    4  A    between atoms: C_6  and  C_7
REMARK    5  A    between atoms: C_10  and  C_11
REMARK    6  A    between atoms: C_12  and  C_13
REMARK    7  A    between atoms: C_20  and  C_21
REMARK    8  A    between atoms: C_21  and  O_23
REMARK                            x       y       z     vdW  Elec       q    Type
REMARK                         _______ _______ _______ _____ _____    ______ ____
ROOT
ATOM      1  C   UNL     1      47.414   4.708  16.116  0.00  0.00    +0.000 C 
ENDROOT
BRANCH   1   2
ATOM      2  C   UNL     1      48.652   3.993  16.605  0.00  0.00    +0.000 A 
ATOM      3  C   UNL     1      48.742   2.599  16.523  0.00  0.00    +0.000 A 
ATOM      4  C   UNL     1      49.892   1.932  16.959  0.00  0.00    +0.000 A 
ATOM      5  C   UNL     1      50.982   2.640  17.480  0.00  0.00    +0.000 A 
ATOM      6  C   UNL     1      50.882   4.034  17.577  0.00  0.00    +0.000 A 
ATOM      7  C   UNL     1      49.731   4.705  17.142  0.00  0.00    +0.000 A 
BRANCH   5   8
ATOM      8  C   UNL     1      52.191   1.964  17.983  0.00  0.00    +0.000 C 
ATOM      9  C   UNL     1      52.588   0.739  17.596  0.00  0.00    +0.000 C 
BRANCH   9  10
ATOM     10  C   UNL     1      53.811   0.129  18.164  0.00  0.00    +0.000 C 
ATOM     11  N   UNL     1      53.614  -1.105  18.701  0.00  0.00    +0.000 N 
ATOM     12  O   UNL     1      54.909   0.667  18.167  0.00  0.00    +0.000 OA
ATOM     13  H   UNL     1      52.724  -1.583  18.714  0.00  0.00    +0.000 HD
ATOM     14  H   UNL     1      54.416  -1.570  19.103  0.00  0.00    +0.000 HD
ENDBRANCH   9  10
ENDBRANCH   5   8
ENDBRANCH   1   2
BRANCH   1  15
ATOM     15  O   UNL     1      47.672   5.343  14.856  0.00  0.00    +0.000 OA
BRANCH  15  19
ATOM     16  C   UNL     1      44.395   6.723  11.742  0.00  0.00    +0.000 C 
ATOM     17  C   UNL     1      45.121   5.555  12.341  0.00  0.00    +0.000 A 
ATOM     18  N   UNL     1      46.019   5.916  13.295  0.00  0.00    +0.000 NA
ATOM     19  C   UNL     1      46.750   4.966  13.902  0.00  0.00    +0.000 A 
ATOM     20  C   UNL     1      46.628   3.623  13.601  0.00  0.00    +0.000 A 
ATOM     21  C   UNL     1      45.705   3.246  12.623  0.00  0.00    +0.000 A 
ATOM     22  C   UNL     1      44.916   4.216  11.982  0.00  0.00    +0.000 A 
BRANCH  22  23
ATOM     23  C   UNL     1      43.947   3.833  10.926  0.00  0.00    +0.000 C 
ATOM     24  O   UNL     1      44.203   3.876   9.741  0.00  0.00    +0.000 OA
BRANCH  23  25
ATOM     25  O   UNL     1      42.737   3.432  11.377  0.00  0.00    +0.000 OA
ATOM     26  H   UNL     1      42.682   3.141  12.306  0.00  0.00    +0.000 HD
ENDBRANCH  23  25
ENDBRANCH  22  23
ENDBRANCH  15  19
ENDBRANCH   1  15
TORSDOF 7
ENDMDL
MODEL 8
REMARK VINA RESULT:    -5.832      3.691      9.134
REMARK INTER + INTRA:          -8.567
REMARK INTER:                  -7.822
REMARK INTRA:                  -0.745
REMARK UNBOUND:                -0.519
REMARK  Name = 
REMARK  8 active torsions:
REMARK  status: ('A' for Active; 'I' for Inactive)
REMARK    1  A    between atoms: C_1  and  C_2
REMARK    2  A    between atoms: C_4  and  O_5
REMARK    3  A    between atoms: O_5  and  C_6
REMARK    4  A    between atoms: C_6  and  C_7
REMARK    5  A    between atoms: C_10  and  C_11
REMARK    6  A    between atoms: C_12  and  C_13
REMARK    7  A    between atoms: C_20  and  C_21
REMARK    8  A    between atoms: C_21  and  O_23
REMARK                            x       y       z     vdW  Elec       q    Type
REMARK                         _______ _______ _______ _____ _____    ______ ____
ROOT
ATOM      1  C   UNL     1      49.481   8.892  14.028  0.00  0.00    +0.000 C 
ENDROOT
BRANCH   1   2
ATOM      2  C   UNL     1      48.327   8.192  13.349  0.00  0.00    +0.000 A 
ATOM      3  C   UNL     1      47.016   8.645  13.537  0.00  0.00    +0.000 A 
ATOM      4  C   UNL     1      45.945   8.012  12.900  0.00  0.00    +0.000 A 
ATOM      5  C   UNL     1      46.155   6.917  12.052  0.00  0.00    +0.000 A 
ATOM      6  C   UNL     1      47.466   6.455  11.879  0.00  0.00    +0.000 A 
ATOM      7  C   UNL     1      48.542   7.087  12.518  0.00  0.00    +0.000 A 
BRANCH   5   8
ATOM      8  C   UNL     1      45.044   6.204  11.397  0.00  0.00    +0.000 C 
ATOM      9  C   UNL     1      45.104   4.924  10.990  0.00  0.00    +0.000 C 
BRANCH   9  10
ATOM     10  C   UNL     1      43.942   4.290  10.327  0.00  0.00    +0.000 C 
ATOM     11  N   UNL     1      43.922   4.451   8.976  0.00  0.00    +0.000 N 
ATOM     12  O   UNL     1      43.067   3.674  10.917  0.00  0.00    +0.000 OA
ATOM     13  H   UNL     1      44.629   4.949   8.453  0.00  0.00    +0.000 HD
ATOM     14  H   UNL     1      43.151   4.037   8.471  0.00  0.00    +0.000 HD
ENDBRANCH   9  10
ENDBRANCH   5   8
ENDBRANCH   1   2
BRANCH   1  15
ATOM     15  O   UNL     1      50.274   7.946  14.759  0.00  0.00    +0.000 OA
BRANCH  15  19
ATOM     16  C   UNL     1      48.749   4.076  17.003  0.00  0.00    +0.000 C 
ATOM     17  C   UNL     1      48.789   5.575  17.007  0.00  0.00    +0.000 A 
ATOM     18  N   UNL     1      49.456   6.095  15.943  0.00  0.00    +0.000 NA
ATOM     19  C   UNL     1      49.581   7.428  15.832  0.00  0.00    +0.000 A 
ATOM     20  C   UNL     1      49.053   8.307  16.759  0.00  0.00    +0.000 A 
ATOM     21  C   UNL     1      48.365   7.779  17.854  0.00  0.00    +0.000 A 
ATOM     22  C   UNL     1      48.206   6.389  17.987  0.00  0.00    +0.000 A 
BRANCH  22  23
ATOM     23  C   UNL     1      47.496   5.812  19.155  0.00  0.00    +0.000 C 
ATOM     24  O   UNL     1      48.016   5.662  20.242  0.00  0.00    +0.000 OA
BRANCH  23  25
ATOM     25  O   UNL     1      46.213   5.453  18.926  0.00  0.00    +0.000 OA
ATOM     26  H   UNL     1      45.905   5.470  18.001  0.00  0.00    +0.000 HD
ENDBRANCH  23  25
ENDBRANCH  22  23
ENDBRANCH  15  19
ENDBRANCH   1  15
TORSDOF 7
ENDMDL
MODEL 9
REMARK VINA RESULT:    -5.695      2.883      3.373
REMARK INTER + INTRA:          -8.379
REMARK INTER:                  -7.637
REMARK INTRA:                  -0.741
REMARK UNBOUND:                -0.519
REMARK  Name = 
REMARK  8 active torsions:
REMARK  status: ('A' for Active; 'I' for Inactive)
REMARK    1  A    between atoms: C_1  and  C_2
REMARK    2  A    between atoms: C_4  and  O_5
REMARK    3  A    between atoms: O_5  and  C_6
REMARK    4  A    between atoms: C_6  and  C_7
REMARK    5  A    between atoms: C_10  and  C_11
REMARK    6  A    between atoms: C_12  and  C_13
REMARK    7  A    between atoms: C_20  and  C_21
REMARK    8  A    between atoms: C_21  and  O_23
REMARK                            x       y       z     vdW  Elec       q    Type
REMARK                         _______ _______ _______ _____ _____    ______ ____
ROOT
ATOM      1  C   UNL     1      44.679   4.887  12.454  0.00  0.00    +0.000 C 
ENDROOT
BRANCH   1   2
ATOM      2  C   UNL     1      45.731   5.900  12.839  0.00  0.00    +0.000 A 
ATOM      3  C   UNL     1      45.452   7.270  12.770  0.00  0.00    +0.000 A 
ATOM      4  C   UNL     1      46.415   8.214  13.140  0.00  0.00    +0.000 A 
ATOM      5  C   UNL     1      47.678   7.814  13.595  0.00  0.00    +0.000 A 
ATOM      6  C   UNL     1      47.961   6.443  13.646  0.00  0.00    +0.000 A 
ATOM      7  C   UNL     1      46.998   5.495  13.275  0.00  0.00    +0.000 A 
BRANCH   5   8
ATOM      8  C   UNL     1      48.728   8.784  13.955  0.00  0.00    +0.000 C 
ATOM      9  C   UNL     1      49.983   8.445  14.299  0.00  0.00    +0.000 C 
BRANCH   9  10
ATOM     10  C   UNL     1      50.972   9.486  14.660  0.00  0.00    +0.000 C 
ATOM     11  N   UNL     1      50.772  10.677  14.034  0.00  0.00    +0.000 N 
ATOM     12  O   UNL     1      51.894   9.314  15.443  0.00  0.00    +0.000 OA
ATOM     13  H   UNL     1      50.020  10.859  13.385  0.00  0.00    +0.000 HD
ATOM     14  H   UNL     1      51.418  11.426  14.244  0.00  0.00    +0.000 HD
ENDBRANCH   9  10
ENDBRANCH   5   8
ENDBRANCH   1   2
BRANCH   1  15
ATOM     15  O   UNL     1      44.096   5.232  11.189  0.00  0.00    +0.000 OA
BRANCH  15  19
ATOM     16  C   UNL     1      44.826   1.251   8.748  0.00  0.00    +0.000 C 
ATOM     17  C   UNL     1      45.176   2.704   8.882  0.00  0.00    +0.000 A 
ATOM     18  N   UNL     1      44.543   3.311   9.921  0.00  0.00    +0.000 NA
ATOM     19  C   UNL     1      44.755   4.619  10.144  0.00  0.00    +0.000 A 
ATOM     20  C   UNL     1      45.599   5.384   9.361  0.00  0.00    +0.000 A 
ATOM     21  C   UNL     1      46.253   4.764   8.294  0.00  0.00    +0.000 A 
ATOM     22  C   UNL     1      46.062   3.394   8.046  0.00  0.00    +0.000 A 
BRANCH  22  23
ATOM     23  C   UNL     1      46.733   2.727   6.903  0.00  0.00    +0.000 C 
ATOM     24  O   UNL     1      46.394   2.883   5.749  0.00  0.00    +0.000 OA
BRANCH  23  25
ATOM     25  O   UNL     1      47.762   1.915   7.237  0.00  0.00    +0.000 OA
ATOM     26  H   UNL     1      47.769   1.557   8.144  0.00  0.00    +0.000 HD
ENDBRANCH  23  25
ENDBRANCH  22  23
ENDBRANCH  15  19
ENDBRANCH   1  15
TORSDOF 7
ENDMDL
