MODEL 1
REMARK VINA RESULT:    -8.027      0.000      0.000
REMARK INTER + INTRA:         -10.062
REMARK INTER:                  -9.669
REMARK INTRA:                  -0.393
REMARK UNBOUND:                -0.393
REMARK  Name = 
REMARK  4 active torsions:
REMARK  status: ('A' for Active; 'I' for Inactive)
REMARK    1  A    between atoms: N_1  and  C_2
REMARK    2  A    between atoms: C_2  and  C_3
REMARK    3  A    between atoms: C_6  and  C_7
REMARK    4  A    between atoms: C_7  and  C_8
REMARK                            x       y       z     vdW  Elec       q    Type
REMARK                         _______ _______ _______ _____ _____    ______ ____
ROOT
ATOM      1  C   UNL     1      43.782   3.011  10.724  0.00  0.00    +0.000 C 
ENDROOT
BRANCH   1   2
ATOM      2  C   UNL     1      43.843   4.363  11.366  0.00  0.00    +0.000 A 
ATOM      3  C   UNL     1      43.018   5.445  11.103  0.00  0.00    +0.000 A 
ATOM      4  N   UNL     1      43.510   6.533  11.773  0.00  0.00    +0.000 N 
ATOM      5  C   UNL     1      44.740   6.229  12.307  0.00  0.00    +0.000 A 
ATOM      6  C   UNL     1      45.746   7.055  12.818  0.00  0.00    +0.000 A 
ATOM      7 CL   UNL     1      45.636   8.765  12.686  0.00  0.00    +0.000 Cl
ATOM      8  C   UNL     1      46.881   6.455  13.363  0.00  0.00    +0.000 A 
ATOM      9  C   UNL     1      46.973   5.067  13.451  0.00  0.00    +0.000 A 
ATOM     10  C   UNL     1      45.980   4.250  12.891  0.00  0.00    +0.000 A 
ATOM     11  C   UNL     1      44.874   4.844  12.239  0.00  0.00    +0.000 A 
ATOM     12  H   UNL     1      43.092   7.455  11.799  0.00  0.00    +0.000 HD
ENDBRANCH   1   2
BRANCH   1  16
ATOM     13  C   UNL     1      46.525   2.933   7.373  0.00  0.00    +0.000 A 
ATOM     14  C   UNL     1      45.947   4.138   7.791  0.00  0.00    +0.000 A 
ATOM     15  C   UNL     1      45.048   4.165   8.861  0.00  0.00    +0.000 A 
ATOM     16  C   UNL     1      44.706   2.984   9.538  0.00  0.00    +0.000 A 
ATOM     17  C   UNL     1      45.283   1.778   9.117  0.00  0.00    +0.000 A 
ATOM     18  C   UNL     1      46.187   1.753   8.051  0.00  0.00    +0.000 A 
BRANCH  13  19
ATOM     19  C   UNL     1      47.460   2.889   6.192  0.00  0.00    +0.000 C 
BRANCH  19  20
ATOM     20  N   UNL     1      48.414   1.789   6.278  0.00  0.00    +0.000 NA
ATOM     21  H   UNL     1      49.328   2.133   6.015  0.00  0.00    +0.000 HD
ATOM     22  H   UNL     1      48.163   1.084   5.585  0.00  0.00    +0.000 HD
ENDBRANCH  19  20
ENDBRANCH  13  19
ENDBRANCH   1  16
TORSDOF 4
ENDMDL
MODEL 2
REMARK VINA RESULT:    -7.256      1.302      1.679
REMARK INTER + INTRA:          -9.134
REMARK INTER:                  -8.433
REMARK INTRA:                  -0.701
REMARK UNBOUND:                -0.393
REMARK  Name = 
REMARK  4 active torsions:
REMARK  status: ('A' for Active; 'I' for Inactive)
REMARK    1  A    between atoms: N_1  and  C_2
REMARK    2  A    between atoms: C_2  and  C_3
REMARK    3  A    between atoms: C_6  and  C_7
REMARK    4  A    between atoms: C_7  and  C_8
REMARK                            x       y       z     vdW  Elec       q    Type
REMARK                         _______ _______ _______ _____ _____    ______ ____
ROOT
ATOM      1  C   UNL     1      43.389   4.948  10.811  0.00  0.00    +0.000 C 
ENDROOT
BRANCH   1   2
ATOM      2  C   UNL     1      44.260   5.895  11.577  0.00  0.00    +0.000 A 
ATOM      3  C   UNL     1      44.431   7.248  11.333  0.00  0.00    +0.000 A 
ATOM      4  N   UNL     1      45.431   7.709  12.146  0.00  0.00    +0.000 N 
ATOM      5  C   UNL     1      46.043   6.648  12.772  0.00  0.00    +0.000 A 
ATOM      6  C   UNL     1      47.261   6.566  13.455  0.00  0.00    +0.000 A 
ATOM      7 CL   UNL     1      48.356   7.890  13.471  0.00  0.00    +0.000 Cl
ATOM      8  C   UNL     1      47.601   5.353  14.054  0.00  0.00    +0.000 A 
ATOM      9  C   UNL     1      46.717   4.276  14.023  0.00  0.00    +0.000 A 
ATOM     10  C   UNL     1      45.523   4.356  13.293  0.00  0.00    +0.000 A 
ATOM     11  C   UNL     1      45.212   5.544  12.590  0.00  0.00    +0.000 A 
ATOM     12  H   UNL     1      45.749   8.668  12.215  0.00  0.00    +0.000 HD
ENDBRANCH   1   2
BRANCH   1  16
ATOM     13  C   UNL     1      45.926   2.559   8.237  0.00  0.00    +0.000 A 
ATOM     14  C   UNL     1      45.951   3.957   8.161  0.00  0.00    +0.000 A 
ATOM     15  C   UNL     1      45.122   4.731   8.978  0.00  0.00    +0.000 A 
ATOM     16  C   UNL     1      44.246   4.123   9.890  0.00  0.00    +0.000 A 
ATOM     17  C   UNL     1      44.220   2.723   9.963  0.00  0.00    +0.000 A 
ATOM     18  C   UNL     1      45.055   1.950   9.151  0.00  0.00    +0.000 A 
BRANCH  13  19
ATOM     19  C   UNL     1      46.785   1.718   7.329  0.00  0.00    +0.000 C 
BRANCH  19  20
ATOM     20  N   UNL     1      46.910   0.342   7.799  0.00  0.00    +0.000 NA
ATOM     21  H   UNL     1      47.571   0.321   8.564  0.00  0.00    +0.000 HD
ATOM     22  H   UNL     1      47.317  -0.222   7.053  0.00  0.00    +0.000 HD
ENDBRANCH  19  20
ENDBRANCH  13  19
ENDBRANCH   1  16
TORSDOF 4
ENDMDL
MODEL 3
REMARK VINA RESULT:    -7.135      1.901      2.665
REMARK INTER + INTRA:          -8.988
REMARK INTER:                  -8.351
REMARK INTRA:                  -0.637
REMARK UNBOUND:                -0.393
REMARK  Name = 
REMARK  4 active torsions:
REMARK  status: ('A' for Active; 'I' for Inactive)
REMARK    1  A    between atoms: N_1  and  C_2
REMARK    2  A    between atoms: C_2  and  C_3
REMARK    3  A    between atoms: C_6  and  C_7
REMARK    4  A    between atoms: C_7  and  C_8
REMARK                            x       y       z     vdW  Elec       q    Type
REMARK                         _______ _______ _______ _____ _____    ______ ____
ROOT
ATOM      1  C   UNL     1      44.672   4.555  10.968  0.00  0.00    +0.000 C 
ENDROOT
BRANCH   1   2
ATOM      2  C   UNL     1      45.685   4.516  12.070  0.00  0.00    +0.000 A 
ATOM      3  C   UNL     1      45.754   3.596  13.104  0.00  0.00    +0.000 A 
ATOM      4  N   UNL     1      46.715   4.009  13.985  0.00  0.00    +0.000 N 
ATOM      5  C   UNL     1      47.137   5.274  13.648  0.00  0.00    +0.000 A 
ATOM      6  C   UNL     1      47.870   6.219  14.374  0.00  0.00    +0.000 A 
ATOM      7 CL   UNL     1      48.250   5.959  16.029  0.00  0.00    +0.000 Cl
ATOM      8  C   UNL     1      48.214   7.414  13.743  0.00  0.00    +0.000 A 
ATOM      9  C   UNL     1      47.888   7.627  12.405  0.00  0.00    +0.000 A 
ATOM     10  C   UNL     1      47.110   6.694  11.704  0.00  0.00    +0.000 A 
ATOM     11  C   UNL     1      46.663   5.524  12.362  0.00  0.00    +0.000 A 
ATOM     12  H   UNL     1      47.013   3.515  14.817  0.00  0.00    +0.000 HD
ENDBRANCH   1   2
BRANCH   1  16
ATOM     13  C   UNL     1      46.298   2.828   7.343  0.00  0.00    +0.000 A 
ATOM     14  C   UNL     1      45.732   2.010   8.329  0.00  0.00    +0.000 A 
ATOM     15  C   UNL     1      45.221   2.561   9.507  0.00  0.00    +0.000 A 
ATOM     16  C   UNL     1      45.267   3.946   9.727  0.00  0.00    +0.000 A 
ATOM     17  C   UNL     1      45.837   4.764   8.741  0.00  0.00    +0.000 A 
ATOM     18  C   UNL     1      46.340   4.212   7.560  0.00  0.00    +0.000 A 
BRANCH  13  19
ATOM     19  C   UNL     1      46.890   2.236   6.090  0.00  0.00    +0.000 C 
BRANCH  19  20
ATOM     20  N   UNL     1      48.301   1.899   6.247  0.00  0.00    +0.000 NA
ATOM     21  H   UNL     1      48.385   0.896   6.350  0.00  0.00    +0.000 HD
ATOM     22  H   UNL     1      48.639   2.306   7.120  0.00  0.00    +0.000 HD
ENDBRANCH  19  20
ENDBRANCH  13  19
ENDBRANCH   1  16
TORSDOF 4
ENDMDL
MODEL 4
REMARK VINA RESULT:    -6.935      2.993      5.950
REMARK INTER + INTRA:          -8.746
REMARK INTER:                  -7.998
REMARK INTRA:                  -0.748
REMARK UNBOUND:                -0.393
REMARK  Name = 
REMARK  4 active torsions:
REMARK  status: ('A' for Active; 'I' for Inactive)
REMARK    1  A    between atoms: N_1  and  C_2
REMARK    2  A    between atoms: C_2  and  C_3
REMARK    3  A    between atoms: C_6  and  C_7
REMARK    4  A    between atoms: C_7  and  C_8
REMARK                            x       y       z     vdW  Elec       q    Type
REMARK                         _______ _______ _______ _____ _____    ______ ____
ROOT
ATOM      1  C   UNL     1      43.652   4.824  11.603  0.00  0.00    +0.000 C 
ENDROOT
BRANCH   1   2
ATOM      2  C   UNL     1      43.935   3.687  10.670  0.00  0.00    +0.000 A 
ATOM      3  C   UNL     1      43.632   2.350  10.873  0.00  0.00    +0.000 A 
ATOM      4  N   UNL     1      44.206   1.621   9.867  0.00  0.00    +0.000 N 
ATOM      5  C   UNL     1      45.035   2.430   9.126  0.00  0.00    +0.000 A 
ATOM      6  C   UNL     1      46.035   2.114   8.200  0.00  0.00    +0.000 A 
ATOM      7 CL   UNL     1      46.527   0.487   7.953  0.00  0.00    +0.000 Cl
ATOM      8  C   UNL     1      46.680   3.161   7.541  0.00  0.00    +0.000 A 
ATOM      9  C   UNL     1      46.288   4.481   7.758  0.00  0.00    +0.000 A 
ATOM     10  C   UNL     1      45.319   4.787   8.725  0.00  0.00    +0.000 A 
ATOM     11  C   UNL     1      44.731   3.743   9.478  0.00  0.00    +0.000 A 
ATOM     12  H   UNL     1      44.121   0.621   9.733  0.00  0.00    +0.000 HD
ENDBRANCH   1   2
BRANCH   1  16
ATOM     13  C   UNL     1      47.425   6.211  13.216  0.00  0.00    +0.000 A 
ATOM     14  C   UNL     1      46.961   4.920  13.500  0.00  0.00    +0.000 A 
ATOM     15  C   UNL     1      45.736   4.475  12.995  0.00  0.00    +0.000 A 
ATOM     16  C   UNL     1      44.945   5.313  12.195  0.00  0.00    +0.000 A 
ATOM     17  C   UNL     1      45.408   6.605  11.914  0.00  0.00    +0.000 A 
ATOM     18  C   UNL     1      46.637   7.047  12.413  0.00  0.00    +0.000 A 
BRANCH  13  19
ATOM     19  C   UNL     1      48.723   6.714  13.794  0.00  0.00    +0.000 C 
BRANCH  19  20
ATOM     20  N   UNL     1      48.916   6.293  15.178  0.00  0.00    +0.000 NA
ATOM     21  H   UNL     1      49.857   5.937  15.278  0.00  0.00    +0.000 HD
ATOM     22  H   UNL     1      48.291   5.510  15.371  0.00  0.00    +0.000 HD
ENDBRANCH  19  20
ENDBRANCH  13  19
ENDBRANCH   1  16
TORSDOF 4
ENDMDL
MODEL 5
REMARK VINA RESULT:    -6.207      1.542      2.384
REMARK INTER + INTRA:          -7.869
REMARK INTER:                  -7.553
REMARK INTRA:                  -0.316
REMARK UNBOUND:                -0.393
REMARK  Name = 
REMARK  4 active torsions:
REMARK  status: ('A' for Active; 'I' for Inactive)
REMARK    1  A    between atoms: N_1  and  C_2
REMARK    2  A    between atoms: C_2  and  C_3
REMARK    3  A    between atoms: C_6  and  C_7
REMARK    4  A    between atoms: C_7  and  C_8
REMARK                            x       y       z     vdW  Elec       q    Type
REMARK                         _______ _______ _______ _____ _____    ______ ____
ROOT
ATOM      1  C   UNL     1      44.552   4.564  12.358  0.00  0.00    +0.000 C 
ENDROOT
BRANCH   1   2
ATOM      2  C   UNL     1      44.948   5.987  12.597  0.00  0.00    +0.000 A 
ATOM      3  C   UNL     1      44.138   7.106  12.484  0.00  0.00    +0.000 A 
ATOM      4  N   UNL     1      44.921   8.220  12.620  0.00  0.00    +0.000 N 
ATOM      5  C   UNL     1      46.247   7.855  12.625  0.00  0.00    +0.000 A 
ATOM      6  C   UNL     1      47.408   8.617  12.457  0.00  0.00    +0.000 A 
ATOM      7 CL   UNL     1      47.319  10.275  12.015  0.00  0.00    +0.000 Cl
ATOM      8  C   UNL     1      48.641   7.977  12.578  0.00  0.00    +0.000 A 
ATOM      9  C   UNL     1      48.707   6.628  12.920  0.00  0.00    +0.000 A 
ATOM     10  C   UNL     1      47.537   5.864  13.036  0.00  0.00    +0.000 A 
ATOM     11  C   UNL     1      46.281   6.475  12.812  0.00  0.00    +0.000 A 
ATOM     12  H   UNL     1      44.598   9.179  12.621  0.00  0.00    +0.000 HD
ENDBRANCH   1   2
BRANCH   1  16
ATOM     13  C   UNL     1      45.553   3.476   8.286  0.00  0.00    +0.000 A 
ATOM     14  C   UNL     1      45.066   2.514   9.180  0.00  0.00    +0.000 A 
ATOM     15  C   UNL     1      44.757   2.858  10.499  0.00  0.00    +0.000 A 
ATOM     16  C   UNL     1      44.932   4.173  10.956  0.00  0.00    +0.000 A 
ATOM     17  C   UNL     1      45.423   5.134  10.061  0.00  0.00    +0.000 A 
ATOM     18  C   UNL     1      45.724   4.791   8.740  0.00  0.00    +0.000 A 
BRANCH  13  19
ATOM     19  C   UNL     1      45.930   3.104   6.875  0.00  0.00    +0.000 C 
BRANCH  19  20
ATOM     20  N   UNL     1      46.870   4.049   6.283  0.00  0.00    +0.000 NA
ATOM     21  H   UNL     1      46.406   4.941   6.173  0.00  0.00    +0.000 HD
ATOM     22  H   UNL     1      47.105   3.730   5.343  0.00  0.00    +0.000 HD
ENDBRANCH  19  20
ENDBRANCH  13  19
ENDBRANCH   1  16
TORSDOF 4
ENDMDL
MODEL 6
REMARK VINA RESULT:    -5.772      4.060      6.228
REMARK INTER + INTRA:          -7.346
REMARK INTER:                  -6.764
REMARK INTRA:                  -0.581
REMARK UNBOUND:                -0.393
REMARK  Name = 
REMARK  4 active torsions:
REMARK  status: ('A' for Active; 'I' for Inactive)
REMARK    1  A    between atoms: N_1  and  C_2
REMARK    2  A    between atoms: C_2  and  C_3
REMARK    3  A    between atoms: C_6  and  C_7
REMARK    4  A    between atoms: C_7  and  C_8
REMARK                            x       y       z     vdW  Elec       q    Type
REMARK                         _______ _______ _______ _____ _____    ______ ____
ROOT
ATOM      1  C   UNL     1      46.865   6.250  11.736  0.00  0.00    +0.000 C 
ENDROOT
BRANCH   1   2
ATOM      2  C   UNL     1      45.562   6.984  11.663  0.00  0.00    +0.000 A 
ATOM      3  C   UNL     1      44.330   6.458  11.308  0.00  0.00    +0.000 A 
ATOM      4  N   UNL     1      43.436   7.489  11.204  0.00  0.00    +0.000 N 
ATOM      5  C   UNL     1      44.102   8.689  11.293  0.00  0.00    +0.000 A 
ATOM      6  C   UNL     1      43.697   9.988  10.969  0.00  0.00    +0.000 A 
ATOM      7 CL   UNL     1      42.199  10.274  10.179  0.00  0.00    +0.000 Cl
ATOM      8  C   UNL     1      44.577  11.039  11.230  0.00  0.00    +0.000 A 
ATOM      9  C   UNL     1      45.799  10.799  11.856  0.00  0.00    +0.000 A 
ATOM     10  C   UNL     1      46.214   9.487  12.129  0.00  0.00    +0.000 A 
ATOM     11  C   UNL     1      45.378   8.403  11.774  0.00  0.00    +0.000 A 
ATOM     12  H   UNL     1      42.449   7.403  10.996  0.00  0.00    +0.000 HD
ENDBRANCH   1   2
BRANCH   1  16
ATOM     13  C   UNL     1      47.491   4.646  15.711  0.00  0.00    +0.000 A 
ATOM     14  C   UNL     1      46.721   3.945  14.774  0.00  0.00    +0.000 A 
ATOM     15  C   UNL     1      46.503   4.467  13.496  0.00  0.00    +0.000 A 
ATOM     16  C   UNL     1      47.049   5.705  13.126  0.00  0.00    +0.000 A 
ATOM     17  C   UNL     1      47.817   6.407  14.066  0.00  0.00    +0.000 A 
ATOM     18  C   UNL     1      48.041   5.881  15.341  0.00  0.00    +0.000 A 
BRANCH  13  19
ATOM     19  C   UNL     1      47.693   4.110  17.105  0.00  0.00    +0.000 C 
BRANCH  19  20
ATOM     20  N   UNL     1      46.673   3.136  17.480  0.00  0.00    +0.000 NA
ATOM     21  H   UNL     1      46.623   2.427  16.760  0.00  0.00    +0.000 HD
ATOM     22  H   UNL     1      45.765   3.601  17.488  0.00  0.00    +0.000 HD
ENDBRANCH  19  20
ENDBRANCH  13  19
ENDBRANCH   1  16
TORSDOF 4
ENDMDL
MODEL 7
REMARK VINA RESULT:    -5.694      3.721      5.743
REMARK INTER + INTRA:          -7.251
REMARK INTER:                  -6.775
REMARK INTRA:                  -0.477
REMARK UNBOUND:                -0.393
REMARK  Name = 
REMARK  4 active torsions:
REMARK  status: ('A' for Active; 'I' for Inactive)
REMARK    1  A    between atoms: N_1  and  C_2
REMARK    2  A    between atoms: C_2  and  C_3
REMARK    3  A    between atoms: C_6  and  C_7
REMARK    4  A    between atoms: C_7  and  C_8
REMARK                            x       y       z     vdW  Elec       q    Type
REMARK                         _______ _______ _______ _____ _____    ______ ____
ROOT
ATOM      1  C   UNL     1      46.372   7.706  12.776  0.00  0.00    +0.000 C 
ENDROOT
BRANCH   1   2
ATOM      2  C   UNL     1      47.839   7.686  12.475  0.00  0.00    +0.000 A 
ATOM      3  C   UNL     1      48.743   6.691  12.812  0.00  0.00    +0.000 A 
ATOM      4  N   UNL     1      50.002   7.132  12.507  0.00  0.00    +0.000 N 
ATOM      5  C   UNL     1      49.954   8.463  12.161  0.00  0.00    +0.000 A 
ATOM      6  C   UNL     1      50.970   9.417  12.048  0.00  0.00    +0.000 A 
ATOM      7 CL   UNL     1      52.578   9.056  12.534  0.00  0.00    +0.000 Cl
ATOM      8  C   UNL     1      50.630  10.695  11.607  0.00  0.00    +0.000 A 
ATOM      9  C   UNL     1      49.320  10.988  11.231  0.00  0.00    +0.000 A 
ATOM     10  C   UNL     1      48.302  10.038  11.397  0.00  0.00    +0.000 A 
ATOM     11  C   UNL     1      48.613   8.770  11.943  0.00  0.00    +0.000 A 
ATOM     12  H   UNL     1      50.859   6.603  12.608  0.00  0.00    +0.000 HD
ENDBRANCH   1   2
BRANCH   1  16
ATOM     13  C   UNL     1      44.473   4.118  11.267  0.00  0.00    +0.000 A 
ATOM     14  C   UNL     1      44.550   4.356  12.645  0.00  0.00    +0.000 A 
ATOM     15  C   UNL     1      45.176   5.505  13.136  0.00  0.00    +0.000 A 
ATOM     16  C   UNL     1      45.743   6.441  12.259  0.00  0.00    +0.000 A 
ATOM     17  C   UNL     1      45.669   6.200  10.880  0.00  0.00    +0.000 A 
ATOM     18  C   UNL     1      45.035   5.055  10.389  0.00  0.00    +0.000 A 
BRANCH  13  19
ATOM     19  C   UNL     1      43.838   2.860  10.731  0.00  0.00    +0.000 C 
BRANCH  19  20
ATOM     20  N   UNL     1      43.041   2.167  11.738  0.00  0.00    +0.000 NA
ATOM     21  H   UNL     1      42.925   2.779  12.535  0.00  0.00    +0.000 HD
ATOM     22  H   UNL     1      43.566   1.359  12.070  0.00  0.00    +0.000 HD
ENDBRANCH  19  20
ENDBRANCH  13  19
ENDBRANCH   1  16
TORSDOF 4
ENDMDL
MODEL 8
REMARK VINA RESULT:    -5.598      4.371      6.329
REMARK INTER + INTRA:          -7.137
REMARK INTER:                  -6.543
REMARK INTRA:                  -0.594
REMARK UNBOUND:                -0.393
REMARK  Name = 
REMARK  4 active torsions:
REMARK  status: ('A' for Active; 'I' for Inactive)
REMARK    1  A    between atoms: N_1  and  C_2
REMARK    2  A    between atoms: C_2  and  C_3
REMARK    3  A    between atoms: C_6  and  C_7
REMARK    4  A    between atoms: C_7  and  C_8
REMARK                            x       y       z     vdW  Elec       q    Type
REMARK                         _______ _______ _______ _____ _____    ______ ____
ROOT
ATOM      1  C   UNL     1      48.135   5.809  13.679  0.00  0.00    +0.000 C 
ENDROOT
BRANCH   1   2
ATOM      2  C   UNL     1      48.160   6.065  15.154  0.00  0.00    +0.000 A 
ATOM      3  C   UNL     1      48.524   7.242  15.787  0.00  0.00    +0.000 A 
ATOM      4  N   UNL     1      48.573   7.009  17.135  0.00  0.00    +0.000 N 
ATOM      5  C   UNL     1      48.439   5.662  17.376  0.00  0.00    +0.000 A 
ATOM      6  C   UNL     1      48.701   4.906  18.523  0.00  0.00    +0.000 A 
ATOM      7 CL   UNL     1      49.461   5.614  19.892  0.00  0.00    +0.000 Cl
ATOM      8  C   UNL     1      48.404   3.544  18.498  0.00  0.00    +0.000 A 
ATOM      9  C   UNL     1      47.804   2.971  17.378  0.00  0.00    +0.000 A 
ATOM     10  C   UNL     1      47.593   3.729  16.217  0.00  0.00    +0.000 A 
ATOM     11  C   UNL     1      47.986   5.088  16.190  0.00  0.00    +0.000 A 
ATOM     12  H   UNL     1      48.772   7.697  17.851  0.00  0.00    +0.000 HD
ENDBRANCH   1   2
BRANCH   1  16
ATOM     13  C   UNL     1      44.061   5.346  12.282  0.00  0.00    +0.000 A 
ATOM     14  C   UNL     1      44.624   6.621  12.423  0.00  0.00    +0.000 A 
ATOM     15  C   UNL     1      45.933   6.775  12.889  0.00  0.00    +0.000 A 
ATOM     16  C   UNL     1      46.708   5.656  13.228  0.00  0.00    +0.000 A 
ATOM     17  C   UNL     1      46.142   4.381  13.089  0.00  0.00    +0.000 A 
ATOM     18  C   UNL     1      44.836   4.227  12.616  0.00  0.00    +0.000 A 
BRANCH  13  19
ATOM     19  C   UNL     1      42.636   5.175  11.823  0.00  0.00    +0.000 C 
BRANCH  19  20
ATOM     20  N   UNL     1      41.906   6.438  11.790  0.00  0.00    +0.000 NA
ATOM     21  H   UNL     1      41.144   6.353  11.131  0.00  0.00    +0.000 HD
ATOM     22  H   UNL     1      42.523   7.162  11.424  0.00  0.00    +0.000 HD
ENDBRANCH  19  20
ENDBRANCH  13  19
ENDBRANCH   1  16
TORSDOF 4
ENDMDL
MODEL 9
REMARK VINA RESULT:    -5.446      4.997      7.673
REMARK INTER + INTRA:          -6.953
REMARK INTER:                  -6.515
REMARK INTRA:                  -0.437
REMARK UNBOUND:                -0.393
REMARK  Name = 
REMARK  4 active torsions:
REMARK  status: ('A' for Active; 'I' for Inactive)
REMARK    1  A    between atoms: N_1  and  C_2
REMARK    2  A    between atoms: C_2  and  C_3
REMARK    3  A    between atoms: C_6  and  C_7
REMARK    4  A    between atoms: C_7  and  C_8
REMARK                            x       y       z     vdW  Elec       q    Type
REMARK                         _______ _______ _______ _____ _____    ______ ____
ROOT
ATOM      1  C   UNL     1      47.611   4.094  16.774  0.00  0.00    +0.000 C 
ENDROOT
BRANCH   1   2
ATOM      2  C   UNL     1      47.692   4.988  15.575  0.00  0.00    +0.000 A 
ATOM      3  C   UNL     1      48.222   6.268  15.527  0.00  0.00    +0.000 A 
ATOM      4  N   UNL     1      47.952   6.799  14.295  0.00  0.00    +0.000 N 
ATOM      5  C   UNL     1      47.092   5.971  13.613  0.00  0.00    +0.000 A 
ATOM      6  C   UNL     1      46.315   6.195  12.472  0.00  0.00    +0.000 A 
ATOM      7 CL   UNL     1      46.194   7.764  11.781  0.00  0.00    +0.000 Cl
ATOM      8  C   UNL     1      45.575   5.131  11.956  0.00  0.00    +0.000 A 
ATOM      9  C   UNL     1      45.664   3.865  12.531  0.00  0.00    +0.000 A 
ATOM     10  C   UNL     1      46.407   3.664  13.703  0.00  0.00    +0.000 A 
ATOM     11  C   UNL     1      47.078   4.758  14.299  0.00  0.00    +0.000 A 
ATOM     12  H   UNL     1      48.251   7.706  13.959  0.00  0.00    +0.000 HD
ENDBRANCH   1   2
BRANCH   1  16
ATOM     13  C   UNL     1      51.447   2.239  17.554  0.00  0.00    +0.000 A 
ATOM     14  C   UNL     1      51.206   3.564  17.940  0.00  0.00    +0.000 A 
ATOM     15  C   UNL     1      49.975   4.171  17.675  0.00  0.00    +0.000 A 
ATOM     16  C   UNL     1      48.957   3.467  17.015  0.00  0.00    +0.000 A 
ATOM     17  C   UNL     1      49.200   2.143  16.627  0.00  0.00    +0.000 A 
ATOM     18  C   UNL     1      50.428   1.533  16.899  0.00  0.00    +0.000 A 
BRANCH  13  19
ATOM     19  C   UNL     1      52.786   1.592  17.797  0.00  0.00    +0.000 C 
BRANCH  19  20
ATOM     20  N   UNL     1      52.668   0.174  18.121  0.00  0.00    +0.000 NA
ATOM     21  H   UNL     1      52.084   0.078  18.941  0.00  0.00    +0.000 HD
ATOM     22  H   UNL     1      53.589  -0.179  18.381  0.00  0.00    +0.000 HD
ENDBRANCH  19  20
ENDBRANCH  13  19
ENDBRANCH   1  16
TORSDOF 4
ENDMDL
