MODEL 1
REMARK VINA RESULT:    -7.353      0.000      0.000
REMARK INTER + INTRA:          -8.918
REMARK INTER:                  -8.858
REMARK INTRA:                  -0.061
REMARK UNBOUND:                -0.061
REMARK  Name = 
REMARK  4 active torsions:
REMARK  status: ('A' for Active; 'I' for Inactive)
REMARK    1  A    between atoms: N_1  and  C_2
REMARK    2  A    between atoms: C_2  and  C_3
REMARK    3  A    between atoms: N_6  and  C_7
REMARK    4  A    between atoms: C_7  and  C_8
REMARK                            x       y       z     vdW  Elec       q    Type
REMARK                         _______ _______ _______ _____ _____    ______ ____
ROOT
ATOM      1  C   UNL     1      43.973   4.744   9.418  0.00  0.00    +0.000 C 
ENDROOT
BRANCH   1   2
ATOM      2  C   UNL     1      44.643   3.430   9.151  0.00  0.00    +0.000 A 
ATOM      3  C   UNL     1      44.289   2.198   9.672  0.00  0.00    +0.000 A 
ATOM      4  N   UNL     1      45.104   1.246   9.126  0.00  0.00    +0.000 N 
ATOM      5  C   UNL     1      45.976   1.820   8.231  0.00  0.00    +0.000 A 
ATOM      6  C   UNL     1      46.944   1.229   7.409  0.00  0.00    +0.000 A 
ATOM      7  C   UNL     1      47.699   2.070   6.587  0.00  0.00    +0.000 A 
ATOM      8  C   UNL     1      47.509   3.450   6.606  0.00  0.00    +0.000 A 
ATOM      9  C   UNL     1      46.535   4.023   7.434  0.00  0.00    +0.000 A 
ATOM     10  C   UNL     1      45.738   3.195   8.252  0.00  0.00    +0.000 A 
ATOM     11  H   UNL     1      45.062   0.258   9.329  0.00  0.00    +0.000 HD
ENDBRANCH   1   2
BRANCH   1  15
ATOM     12  C   UNL     1      45.787   4.957  13.307  0.00  0.00    +0.000 C 
ATOM     13  C   UNL     1      44.260   4.838  13.217  0.00  0.00    +0.000 C 
ATOM     14  C   UNL     1      43.793   4.407  11.821  0.00  0.00    +0.000 C 
ATOM     15  N   UNL     1      44.293   5.288  10.756  0.00  0.00    +0.000 NA
ATOM     16  C   UNL     1      45.754   5.488  10.827  0.00  0.00    +0.000 C 
ATOM     17  C   UNL     1      46.239   5.925  12.209  0.00  0.00    +0.000 C 
BRANCH  12  18
ATOM     18  C   UNL     1      46.452   3.567  13.221  0.00  0.00    +0.000 C 
BRANCH  18  19
ATOM     19  N   UNL     1      47.354   3.316  14.338  0.00  0.00    +0.000 NA
ATOM     20  H   UNL     1      48.262   3.020  13.978  0.00  0.00    +0.000 HD
ATOM     21  H   UNL     1      47.002   2.536  14.893  0.00  0.00    +0.000 HD
ENDBRANCH  18  19
ENDBRANCH  12  18
ENDBRANCH   1  15
TORSDOF 4
ENDMDL
MODEL 2
REMARK VINA RESULT:    -7.298      1.672      2.758
REMARK INTER + INTRA:          -8.852
REMARK INTER:                  -9.183
REMARK INTRA:                   0.331
REMARK UNBOUND:                -0.061
REMARK  Name = 
REMARK  4 active torsions:
REMARK  status: ('A' for Active; 'I' for Inactive)
REMARK    1  A    between atoms: N_1  and  C_2
REMARK    2  A    between atoms: C_2  and  C_3
REMARK    3  A    between atoms: N_6  and  C_7
REMARK    4  A    between atoms: C_7  and  C_8
REMARK                            x       y       z     vdW  Elec       q    Type
REMARK                         _______ _______ _______ _____ _____    ______ ____
ROOT
ATOM      1  C   UNL     1      43.931   2.351  10.518  0.00  0.00    +0.000 C 
ENDROOT
BRANCH   1   2
ATOM      2  C   UNL     1      44.669   3.010   9.392  0.00  0.00    +0.000 A 
ATOM      3  C   UNL     1      44.649   4.353   9.061  0.00  0.00    +0.000 A 
ATOM      4  N   UNL     1      45.511   4.556   8.019  0.00  0.00    +0.000 N 
ATOM      5  C   UNL     1      46.124   3.376   7.670  0.00  0.00    +0.000 A 
ATOM      6  C   UNL     1      47.107   3.120   6.704  0.00  0.00    +0.000 A 
ATOM      7  C   UNL     1      47.552   1.804   6.563  0.00  0.00    +0.000 A 
ATOM      8  C   UNL     1      47.018   0.780   7.342  0.00  0.00    +0.000 A 
ATOM      9  C   UNL     1      46.036   1.054   8.303  0.00  0.00    +0.000 A 
ATOM     10  C   UNL     1      45.589   2.379   8.487  0.00  0.00    +0.000 A 
ATOM     11  H   UNL     1      45.693   5.447   7.580  0.00  0.00    +0.000 HD
ENDBRANCH   1   2
BRANCH   1  15
ATOM     12  C   UNL     1      44.388   5.817  13.017  0.00  0.00    +0.000 C 
ATOM     13  C   UNL     1      45.317   4.618  13.251  0.00  0.00    +0.000 C 
ATOM     14  C   UNL     1      45.293   3.629  12.078  0.00  0.00    +0.000 C 
ATOM     15  N   UNL     1      43.937   3.159  11.757  0.00  0.00    +0.000 NA
ATOM     16  C   UNL     1      42.982   4.271  11.579  0.00  0.00    +0.000 C 
ATOM     17  C   UNL     1      42.985   5.265  12.740  0.00  0.00    +0.000 C 
BRANCH  12  18
ATOM     18  C   UNL     1      44.933   6.722  11.893  0.00  0.00    +0.000 C 
BRANCH  18  19
ATOM     19  N   UNL     1      43.902   7.588  11.333  0.00  0.00    +0.000 NA
ATOM     20  H   UNL     1      43.571   7.192  10.453  0.00  0.00    +0.000 HD
ATOM     21  H   UNL     1      44.307   8.494  11.100  0.00  0.00    +0.000 HD
ENDBRANCH  18  19
ENDBRANCH  12  18
ENDBRANCH   1  15
TORSDOF 4
ENDMDL
MODEL 3
REMARK VINA RESULT:    -7.149      1.563      2.554
REMARK INTER + INTRA:          -8.672
REMARK INTER:                  -8.293
REMARK INTRA:                  -0.379
REMARK UNBOUND:                -0.061
REMARK  Name = 
REMARK  4 active torsions:
REMARK  status: ('A' for Active; 'I' for Inactive)
REMARK    1  A    between atoms: N_1  and  C_2
REMARK    2  A    between atoms: C_2  and  C_3
REMARK    3  A    between atoms: N_6  and  C_7
REMARK    4  A    between atoms: C_7  and  C_8
REMARK                            x       y       z     vdW  Elec       q    Type
REMARK                         _______ _______ _______ _____ _____    ______ ____
ROOT
ATOM      1  C   UNL     1      44.238   4.479   9.572  0.00  0.00    +0.000 C 
ENDROOT
BRANCH   1   2
ATOM      2  C   UNL     1      44.848   3.188   9.115  0.00  0.00    +0.000 A 
ATOM      3  C   UNL     1      44.476   1.913   9.502  0.00  0.00    +0.000 A 
ATOM      4  N   UNL     1      45.230   1.012   8.804  0.00  0.00    +0.000 N 
ATOM      5  C   UNL     1      46.078   1.664   7.940  0.00  0.00    +0.000 A 
ATOM      6  C   UNL     1      46.984   1.150   7.003  0.00  0.00    +0.000 A 
ATOM      7  C   UNL     1      47.728   2.062   6.251  0.00  0.00    +0.000 A 
ATOM      8  C   UNL     1      47.587   3.434   6.445  0.00  0.00    +0.000 A 
ATOM      9  C   UNL     1      46.676   3.931   7.385  0.00  0.00    +0.000 A 
ATOM     10  C   UNL     1      45.890   3.033   8.139  0.00  0.00    +0.000 A 
ATOM     11  H   UNL     1      45.163   0.007   8.889  0.00  0.00    +0.000 HD
ENDBRANCH   1   2
BRANCH   1  15
ATOM     12  C   UNL     1      45.428   7.366  12.524  0.00  0.00    +0.000 C 
ATOM     13  C   UNL     1      46.521   6.637  11.731  0.00  0.00    +0.000 C 
ATOM     14  C   UNL     1      45.962   5.932  10.489  0.00  0.00    +0.000 C 
ATOM     15  N   UNL     1      44.866   5.004  10.804  0.00  0.00    +0.000 NA
ATOM     16  C   UNL     1      43.809   5.635  11.619  0.00  0.00    +0.000 C 
ATOM     17  C   UNL     1      44.344   6.337  12.867  0.00  0.00    +0.000 C 
BRANCH  12  18
ATOM     18  C   UNL     1      44.901   8.585  11.740  0.00  0.00    +0.000 C 
BRANCH  18  19
ATOM     19  N   UNL     1      44.539   9.692  12.617  0.00  0.00    +0.000 NA
ATOM     20  H   UNL     1      44.151   9.321  13.484  0.00  0.00    +0.000 HD
ATOM     21  H   UNL     1      43.795  10.240  12.185  0.00  0.00    +0.000 HD
ENDBRANCH  18  19
ENDBRANCH  12  18
ENDBRANCH   1  15
TORSDOF 4
ENDMDL
MODEL 4
REMARK VINA RESULT:    -6.936      1.738      2.321
REMARK INTER + INTRA:          -8.415
REMARK INTER:                  -8.408
REMARK INTRA:                  -0.007
REMARK UNBOUND:                -0.061
REMARK  Name = 
REMARK  4 active torsions:
REMARK  status: ('A' for Active; 'I' for Inactive)
REMARK    1  A    between atoms: N_1  and  C_2
REMARK    2  A    between atoms: C_2  and  C_3
REMARK    3  A    between atoms: N_6  and  C_7
REMARK    4  A    between atoms: C_7  and  C_8
REMARK                            x       y       z     vdW  Elec       q    Type
REMARK                         _______ _______ _______ _____ _____    ______ ____
ROOT
ATOM      1  C   UNL     1      43.637   5.727  11.045  0.00  0.00    +0.000 C 
ENDROOT
BRANCH   1   2
ATOM      2  C   UNL     1      44.009   4.325  10.668  0.00  0.00    +0.000 A 
ATOM      3  C   UNL     1      43.537   3.159  11.244  0.00  0.00    +0.000 A 
ATOM      4  N   UNL     1      44.067   2.096  10.567  0.00  0.00    +0.000 N 
ATOM      5  C   UNL     1      44.861   2.535   9.534  0.00  0.00    +0.000 A 
ATOM      6  C   UNL     1      45.557   1.809   8.558  0.00  0.00    +0.000 A 
ATOM      7  C   UNL     1      46.298   2.529   7.618  0.00  0.00    +0.000 A 
ATOM      8  C   UNL     1      46.360   3.919   7.668  0.00  0.00    +0.000 A 
ATOM      9  C   UNL     1      45.658   4.629   8.650  0.00  0.00    +0.000 A 
ATOM     10  C   UNL     1      44.878   3.929   9.595  0.00  0.00    +0.000 A 
ATOM     11  H   UNL     1      43.885   1.125  10.775  0.00  0.00    +0.000 HD
ENDBRANCH   1   2
BRANCH   1  15
ATOM     12  C   UNL     1      47.012   7.150  13.292  0.00  0.00    +0.000 C 
ATOM     13  C   UNL     1      46.362   5.824  13.708  0.00  0.00    +0.000 C 
ATOM     14  C   UNL     1      45.433   5.268  12.621  0.00  0.00    +0.000 C 
ATOM     15  N   UNL     1      44.398   6.228  12.210  0.00  0.00    +0.000 NA
ATOM     16  C   UNL     1      44.960   7.546  11.855  0.00  0.00    +0.000 C 
ATOM     17  C   UNL     1      45.883   8.121  12.928  0.00  0.00    +0.000 C 
BRANCH  12  18
ATOM     18  C   UNL     1      48.032   6.931  12.156  0.00  0.00    +0.000 C 
BRANCH  18  19
ATOM     19  N   UNL     1      49.368   6.642  12.662  0.00  0.00    +0.000 NA
ATOM     20  H   UNL     1      49.750   7.480  13.101  0.00  0.00    +0.000 HD
ATOM     21  H   UNL     1      49.988   6.423  11.882  0.00  0.00    +0.000 HD
ENDBRANCH  18  19
ENDBRANCH  12  18
ENDBRANCH   1  15
TORSDOF 4
ENDMDL
MODEL 5
REMARK VINA RESULT:    -6.394      2.537      3.685
REMARK INTER + INTRA:          -7.763
REMARK INTER:                  -7.570
REMARK INTRA:                  -0.193
REMARK UNBOUND:                -0.061
REMARK  Name = 
REMARK  4 active torsions:
REMARK  status: ('A' for Active; 'I' for Inactive)
REMARK    1  A    between atoms: N_1  and  C_2
REMARK    2  A    between atoms: C_2  and  C_3
REMARK    3  A    between atoms: N_6  and  C_7
REMARK    4  A    between atoms: C_7  and  C_8
REMARK                            x       y       z     vdW  Elec       q    Type
REMARK                         _______ _______ _______ _____ _____    ______ ____
ROOT
ATOM      1  C   UNL     1      44.567   5.895  12.733  0.00  0.00    +0.000 C 
ENDROOT
BRANCH   1   2
ATOM      2  C   UNL     1      44.365   4.589  12.027  0.00  0.00    +0.000 A 
ATOM      3  C   UNL     1      43.715   3.471  12.519  0.00  0.00    +0.000 A 
ATOM      4  N   UNL     1      43.686   2.519  11.538  0.00  0.00    +0.000 N 
ATOM      5  C   UNL     1      44.281   2.994  10.393  0.00  0.00    +0.000 A 
ATOM      6  C   UNL     1      44.431   2.392   9.137  0.00  0.00    +0.000 A 
ATOM      7  C   UNL     1      45.091   3.119   8.143  0.00  0.00    +0.000 A 
ATOM      8  C   UNL     1      45.600   4.389   8.403  0.00  0.00    +0.000 A 
ATOM      9  C   UNL     1      45.440   4.976   9.665  0.00  0.00    +0.000 A 
ATOM     10  C   UNL     1      44.753   4.277  10.679  0.00  0.00    +0.000 A 
ATOM     11  H   UNL     1      43.267   1.605  11.628  0.00  0.00    +0.000 HD
ENDBRANCH   1   2
BRANCH   1  15
ATOM     12  C   UNL     1      48.163   8.216  13.116  0.00  0.00    +0.000 C 
ATOM     13  C   UNL     1      47.019   8.775  12.260  0.00  0.00    +0.000 C 
ATOM     14  C   UNL     1      45.696   8.040  12.510  0.00  0.00    +0.000 C 
ATOM     15  N   UNL     1      45.806   6.586  12.315  0.00  0.00    +0.000 NA
ATOM     16  C   UNL     1      46.931   5.999  13.070  0.00  0.00    +0.000 C 
ATOM     17  C   UNL     1      48.261   6.713  12.830  0.00  0.00    +0.000 C 
BRANCH  12  18
ATOM     18  C   UNL     1      47.949   8.551  14.607  0.00  0.00    +0.000 C 
BRANCH  18  19
ATOM     19  N   UNL     1      48.307   9.929  14.920  0.00  0.00    +0.000 NA
ATOM     20  H   UNL     1      47.458  10.465  15.098  0.00  0.00    +0.000 HD
ATOM     21  H   UNL     1      48.750  10.359  14.109  0.00  0.00    +0.000 HD
ENDBRANCH  18  19
ENDBRANCH  12  18
ENDBRANCH   1  15
TORSDOF 4
ENDMDL
MODEL 6
REMARK VINA RESULT:    -6.013      3.142      5.842
REMARK INTER + INTRA:          -7.304
REMARK INTER:                  -7.077
REMARK INTRA:                  -0.227
REMARK UNBOUND:                -0.061
REMARK  Name = 
REMARK  4 active torsions:
REMARK  status: ('A' for Active; 'I' for Inactive)
REMARK    1  A    between atoms: N_1  and  C_2
REMARK    2  A    between atoms: C_2  and  C_3
REMARK    3  A    between atoms: N_6  and  C_7
REMARK    4  A    between atoms: C_7  and  C_8
REMARK                            x       y       z     vdW  Elec       q    Type
REMARK                         _______ _______ _______ _____ _____    ______ ____
ROOT
ATOM      1  C   UNL     1      46.274   3.324  13.013  0.00  0.00    +0.000 C 
ENDROOT
BRANCH   1   2
ATOM      2  C   UNL     1      46.861   4.440  13.824  0.00  0.00    +0.000 A 
ATOM      3  C   UNL     1      47.140   4.422  15.179  0.00  0.00    +0.000 A 
ATOM      4  N   UNL     1      47.731   5.608  15.515  0.00  0.00    +0.000 N 
ATOM      5  C   UNL     1      47.874   6.404  14.403  0.00  0.00    +0.000 A 
ATOM      6  C   UNL     1      48.465   7.666  14.265  0.00  0.00    +0.000 A 
ATOM      7  C   UNL     1      48.465   8.248  12.995  0.00  0.00    +0.000 A 
ATOM      8  C   UNL     1      47.876   7.602  11.911  0.00  0.00    +0.000 A 
ATOM      9  C   UNL     1      47.290   6.339  12.066  0.00  0.00    +0.000 A 
ATOM     10  C   UNL     1      47.301   5.715  13.332  0.00  0.00    +0.000 A 
ATOM     11  H   UNL     1      48.043   5.861  16.442  0.00  0.00    +0.000 HD
ENDBRANCH   1   2
BRANCH   1  15
ATOM     12  C   UNL     1      42.903   5.471  11.437  0.00  0.00    +0.000 C 
ATOM     13  C   UNL     1      42.894   5.083  12.921  0.00  0.00    +0.000 C 
ATOM     14  C   UNL     1      44.284   4.664  13.419  0.00  0.00    +0.000 C 
ATOM     15  N   UNL     1      44.872   3.579  12.619  0.00  0.00    +0.000 NA
ATOM     16  C   UNL     1      44.853   3.871  11.172  0.00  0.00    +0.000 C 
ATOM     17  C   UNL     1      43.476   4.284  10.654  0.00  0.00    +0.000 C 
BRANCH  12  18
ATOM     18  C   UNL     1      43.674   6.789  11.218  0.00  0.00    +0.000 C 
BRANCH  18  19
ATOM     19  N   UNL     1      42.782   7.923  11.008  0.00  0.00    +0.000 NA
ATOM     20  H   UNL     1      43.210   8.571  10.347  0.00  0.00    +0.000 HD
ATOM     21  H   UNL     1      42.674   8.439  11.881  0.00  0.00    +0.000 HD
ENDBRANCH  18  19
ENDBRANCH  12  18
ENDBRANCH   1  15
TORSDOF 4
ENDMDL
MODEL 7
REMARK VINA RESULT:    -5.886      3.317      6.287
REMARK INTER + INTRA:          -7.151
REMARK INTER:                  -6.809
REMARK INTRA:                  -0.342
REMARK UNBOUND:                -0.061
REMARK  Name = 
REMARK  4 active torsions:
REMARK  status: ('A' for Active; 'I' for Inactive)
REMARK    1  A    between atoms: N_1  and  C_2
REMARK    2  A    between atoms: C_2  and  C_3
REMARK    3  A    between atoms: N_6  and  C_7
REMARK    4  A    between atoms: C_7  and  C_8
REMARK                            x       y       z     vdW  Elec       q    Type
REMARK                         _______ _______ _______ _____ _____    ______ ____
ROOT
ATOM      1  C   UNL     1      46.512   6.358  12.825  0.00  0.00    +0.000 C 
ENDROOT
BRANCH   1   2
ATOM      2  C   UNL     1      46.986   7.766  12.628  0.00  0.00    +0.000 A 
ATOM      3  C   UNL     1      46.307   8.924  12.964  0.00  0.00    +0.000 A 
ATOM      4  N   UNL     1      47.112   9.994  12.687  0.00  0.00    +0.000 N 
ATOM      5  C   UNL     1      48.324   9.566  12.199  0.00  0.00    +0.000 A 
ATOM      6  C   UNL     1      49.461  10.300  11.836  0.00  0.00    +0.000 A 
ATOM      7  C   UNL     1      50.568   9.592  11.362  0.00  0.00    +0.000 A 
ATOM      8  C   UNL     1      50.529   8.205  11.235  0.00  0.00    +0.000 A 
ATOM      9  C   UNL     1      49.385   7.487  11.604  0.00  0.00    +0.000 A 
ATOM     10  C   UNL     1      48.263   8.174  12.113  0.00  0.00    +0.000 A 
ATOM     11  H   UNL     1      46.866  10.961  12.840  0.00  0.00    +0.000 HD
ENDBRANCH   1   2
BRANCH   1  15
ATOM     12  C   UNL     1      42.997   4.293  11.465  0.00  0.00    +0.000 C 
ATOM     13  C   UNL     1      43.575   5.411  10.587  0.00  0.00    +0.000 C 
ATOM     14  C   UNL     1      45.002   5.794  11.001  0.00  0.00    +0.000 C 
ATOM     15  N   UNL     1      45.102   6.167  12.421  0.00  0.00    +0.000 NA
ATOM     16  C   UNL     1      44.506   5.153  13.313  0.00  0.00    +0.000 C 
ATOM     17  C   UNL     1      43.082   4.762  12.922  0.00  0.00    +0.000 C 
BRANCH  12  18
ATOM     18  C   UNL     1      43.721   2.957  11.200  0.00  0.00    +0.000 C 
BRANCH  18  19
ATOM     19  N   UNL     1      42.986   1.815  11.731  0.00  0.00    +0.000 NA
ATOM     20  H   UNL     1      43.202   1.708  12.722  0.00  0.00    +0.000 HD
ATOM     21  H   UNL     1      43.307   0.961  11.277  0.00  0.00    +0.000 HD
ENDBRANCH  18  19
ENDBRANCH  12  18
ENDBRANCH   1  15
TORSDOF 4
ENDMDL
MODEL 8
REMARK VINA RESULT:    -5.829      3.267      7.472
REMARK INTER + INTRA:          -7.082
REMARK INTER:                  -6.804
REMARK INTRA:                  -0.278
REMARK UNBOUND:                -0.061
REMARK  Name = 
REMARK  4 active torsions:
REMARK  status: ('A' for Active; 'I' for Inactive)
REMARK    1  A    between atoms: N_1  and  C_2
REMARK    2  A    between atoms: C_2  and  C_3
REMARK    3  A    between atoms: N_6  and  C_7
REMARK    4  A    between atoms: C_7  and  C_8
REMARK                            x       y       z     vdW  Elec       q    Type
REMARK                         _______ _______ _______ _____ _____    ______ ____
ROOT
ATOM      1  C   UNL     1      46.535   4.224  13.914  0.00  0.00    +0.000 C 
ENDROOT
BRANCH   1   2
ATOM      2  C   UNL     1      47.381   4.948  14.917  0.00  0.00    +0.000 A 
ATOM      3  C   UNL     1      47.884   6.232  14.805  0.00  0.00    +0.000 A 
ATOM      4  N   UNL     1      48.542   6.542  15.962  0.00  0.00    +0.000 N 
ATOM      5  C   UNL     1      48.462   5.498  16.853  0.00  0.00    +0.000 A 
ATOM      6  C   UNL     1      48.940   5.392  18.165  0.00  0.00    +0.000 A 
ATOM      7  C   UNL     1      48.713   4.192  18.844  0.00  0.00    +0.000 A 
ATOM      8  C   UNL     1      48.056   3.132  18.224  0.00  0.00    +0.000 A 
ATOM      9  C   UNL     1      47.584   3.255  16.911  0.00  0.00    +0.000 A 
ATOM     10  C   UNL     1      47.773   4.466  16.212  0.00  0.00    +0.000 A 
ATOM     11  H   UNL     1      49.003   7.421  16.152  0.00  0.00    +0.000 HD
ENDBRANCH   1   2
BRANCH   1  15
ATOM     12  C   UNL     1      43.619   5.462  11.011  0.00  0.00    +0.000 C 
ATOM     13  C   UNL     1      44.968   6.191  11.050  0.00  0.00    +0.000 C 
ATOM     14  C   UNL     1      46.020   5.422  11.859  0.00  0.00    +0.000 C 
ATOM     15  N   UNL     1      45.574   5.114  13.226  0.00  0.00    +0.000 NA
ATOM     16  C   UNL     1      44.250   4.462  13.255  0.00  0.00    +0.000 C 
ATOM     17  C   UNL     1      43.185   5.217  12.460  0.00  0.00    +0.000 C 
BRANCH  12  18
ATOM     18  C   UNL     1      43.715   4.174  10.166  0.00  0.00    +0.000 C 
BRANCH  18  19
ATOM     19  N   UNL     1      44.105   4.445   8.788  0.00  0.00    +0.000 NA
ATOM     20  H   UNL     1      43.433   4.010   8.156  0.00  0.00    +0.000 HD
ATOM     21  H   UNL     1      45.003   4.002   8.594  0.00  0.00    +0.000 HD
ENDBRANCH  18  19
ENDBRANCH  12  18
ENDBRANCH   1  15
TORSDOF 4
ENDMDL
MODEL 9
REMARK VINA RESULT:    -5.773      3.833      5.726
REMARK INTER + INTRA:          -7.015
REMARK INTER:                  -6.757
REMARK INTRA:                  -0.258
REMARK UNBOUND:                -0.061
REMARK  Name = 
REMARK  4 active torsions:
REMARK  status: ('A' for Active; 'I' for Inactive)
REMARK    1  A    between atoms: N_1  and  C_2
REMARK    2  A    between atoms: C_2  and  C_3
REMARK    3  A    between atoms: N_6  and  C_7
REMARK    4  A    between atoms: C_7  and  C_8
REMARK                            x       y       z     vdW  Elec       q    Type
REMARK                         _______ _______ _______ _____ _____    ______ ____
ROOT
ATOM      1  C   UNL     1      47.624   5.526  13.811  0.00  0.00    +0.000 C 
ENDROOT
BRANCH   1   2
ATOM      2  C   UNL     1      46.318   5.953  13.213  0.00  0.00    +0.000 A 
ATOM      3  C   UNL     1      45.882   7.251  13.014  0.00  0.00    +0.000 A 
ATOM      4  N   UNL     1      44.671   7.209  12.380  0.00  0.00    +0.000 N 
ATOM      5  C   UNL     1      44.307   5.907  12.130  0.00  0.00    +0.000 A 
ATOM      6  C   UNL     1      43.186   5.395  11.465  0.00  0.00    +0.000 A 
ATOM      7  C   UNL     1      43.071   4.006  11.359  0.00  0.00    +0.000 A 
ATOM      8  C   UNL     1      44.029   3.164  11.918  0.00  0.00    +0.000 A 
ATOM      9  C   UNL     1      45.145   3.693  12.580  0.00  0.00    +0.000 A 
ATOM     10  C   UNL     1      45.301   5.092  12.676  0.00  0.00    +0.000 A 
ATOM     11  H   UNL     1      44.128   8.016  12.110  0.00  0.00    +0.000 HD
ENDBRANCH   1   2
BRANCH   1  15
ATOM     12  C   UNL     1      48.758   3.807  17.582  0.00  0.00    +0.000 C 
ATOM     13  C   UNL     1      47.567   3.199  16.829  0.00  0.00    +0.000 C 
ATOM     14  C   UNL     1      47.512   3.658  15.367  0.00  0.00    +0.000 C 
ATOM     15  N   UNL     1      47.500   5.122  15.228  0.00  0.00    +0.000 NA
ATOM     16  C   UNL     1      48.592   5.768  15.983  0.00  0.00    +0.000 C 
ATOM     17  C   UNL     1      48.661   5.330  17.445  0.00  0.00    +0.000 C 
BRANCH  12  18
ATOM     18  C   UNL     1      50.090   3.222  17.068  0.00  0.00    +0.000 C 
BRANCH  18  19
ATOM     19  N   UNL     1      49.947   1.847  16.605  0.00  0.00    +0.000 NA
ATOM     20  H   UNL     1      48.995   1.701  16.271  0.00  0.00    +0.000 HD
ATOM     21  H   UNL     1      50.072   1.208  17.390  0.00  0.00    +0.000 HD
ENDBRANCH  18  19
ENDBRANCH  12  18
ENDBRANCH   1  15
TORSDOF 4
ENDMDL
