MODEL 1
REMARK VINA RESULT:    -8.502      0.000      0.000
REMARK INTER + INTRA:          -9.530
REMARK INTER:                  -9.993
REMARK INTRA:                   0.463
REMARK UNBOUND:                 0.463
REMARK  Name = 
REMARK  3 active torsions:
REMARK  status: ('A' for Active; 'I' for Inactive)
REMARK    1  A    between atoms: C_2  and  C_4
REMARK    2  A    between atoms: N_8  and  C_9
REMARK    3  A    between atoms: C_9  and  C_10
REMARK                            x       y       z     vdW  Elec       q    Type
REMARK                         _______ _______ _______ _____ _____    ______ ____
ROOT
ATOM      1  C   UNL     1      46.347   2.128   7.892  0.00  0.00    +0.000 A 
ATOM      2  C   UNL     1      46.412   3.411   7.383  0.00  0.00    +0.000 A 
ATOM      3  C   UNL     1      45.650   4.414   7.975  0.00  0.00    +0.000 A 
ATOM      4  C   UNL     1      44.916   4.111   9.142  0.00  0.00    +0.000 A 
ATOM      5  N   UNL     1      44.262   5.182   9.793  0.00  0.00    +0.000 N 
ATOM      6  N   UNL     1      44.843   2.873   9.620  0.00  0.00    +0.000 NA
ATOM      7  C   UNL     1      45.525   1.886   8.973  0.00  0.00    +0.000 A 
ATOM      8  H   UNL     1      43.617   5.608   9.144  0.00  0.00    +0.000 HD
ENDROOT
BRANCH   1  10
ATOM      9  N   UNL     1      46.741  -0.242   7.664  0.00  0.00    +0.000 N 
ATOM     10  C   UNL     1      47.097   1.017   7.267  0.00  0.00    +0.000 C 
ATOM     11  O   UNL     1      47.970   1.216   6.443  0.00  0.00    +0.000 OA
ATOM     12  H   UNL     1      47.203  -1.017   7.213  0.00  0.00    +0.000 HD
ATOM     13  H   UNL     1      45.885  -0.431   8.169  0.00  0.00    +0.000 HD
ENDBRANCH   1  10
BRANCH   5  14
ATOM     14  C   UNL     1      43.863   5.209  11.236  0.00  0.00    +0.000 C 
ATOM     15  C   UNL     1      42.957   4.025  11.600  0.00  0.00    +0.000 C 
ATOM     16  C   UNL     1      42.432   5.416  11.745  0.00  0.00    +0.000 C 
BRANCH  14  17
ATOM     17  C   UNL     1      44.979   5.610  12.213  0.00  0.00    +0.000 C 
ATOM     18  C   UNL     1      45.895   6.663  11.569  0.00  0.00    +0.000 C 
ATOM     19  C   UNL     1      46.978   7.126  12.537  0.00  0.00    +0.000 C 
ATOM     20  C   UNL     1      47.800   5.952  13.054  0.00  0.00    +0.000 C 
ATOM     21  C   UNL     1      46.911   4.895  13.701  0.00  0.00    +0.000 C 
ATOM     22  C   UNL     1      45.812   4.424  12.745  0.00  0.00    +0.000 C 
ENDBRANCH  14  17
ENDBRANCH   5  14
TORSDOF 3
ENDMDL
MODEL 2
REMARK VINA RESULT:    -7.850      3.419      6.129
REMARK INTER + INTRA:          -8.763
REMARK INTER:                  -8.142
REMARK INTRA:                  -0.621
REMARK UNBOUND:                 0.463
REMARK  Name = 
REMARK  3 active torsions:
REMARK  status: ('A' for Active; 'I' for Inactive)
REMARK    1  A    between atoms: C_2  and  C_4
REMARK    2  A    between atoms: N_8  and  C_9
REMARK    3  A    between atoms: C_9  and  C_10
REMARK                            x       y       z     vdW  Elec       q    Type
REMARK                         _______ _______ _______ _____ _____    ______ ____
ROOT
ATOM      1  C   UNL     1      47.360   4.550  15.086  0.00  0.00    +0.000 A 
ATOM      2  C   UNL     1      47.496   5.835  14.598  0.00  0.00    +0.000 A 
ATOM      3  C   UNL     1      46.948   6.150  13.358  0.00  0.00    +0.000 A 
ATOM      4  C   UNL     1      46.179   5.174  12.687  0.00  0.00    +0.000 A 
ATOM      5  N   UNL     1      45.526   5.569  11.497  0.00  0.00    +0.000 N 
ATOM      6  N   UNL     1      46.063   3.934  13.152  0.00  0.00    +0.000 NA
ATOM      7  C   UNL     1      46.683   3.620  14.324  0.00  0.00    +0.000 A 
ATOM      8  H   UNL     1      46.221   5.896  10.842  0.00  0.00    +0.000 HD
ENDROOT
BRANCH   1  10
ATOM      9  N   UNL     1      47.214   3.327  17.162  0.00  0.00    +0.000 N 
ATOM     10  C   UNL     1      47.969   4.151  16.375  0.00  0.00    +0.000 C 
ATOM     11  O   UNL     1      49.078   4.529  16.704  0.00  0.00    +0.000 OA
ATOM     12  H   UNL     1      47.629   3.001  18.021  0.00  0.00    +0.000 HD
ATOM     13  H   UNL     1      46.402   2.835  16.813  0.00  0.00    +0.000 HD
ENDBRANCH   1  10
BRANCH   5  14
ATOM     14  C   UNL     1      44.320   4.908  10.906  0.00  0.00    +0.000 C 
ATOM     15  C   UNL     1      43.091   5.827  10.942  0.00  0.00    +0.000 C 
ATOM     16  C   UNL     1      43.055   4.534  11.688  0.00  0.00    +0.000 C 
BRANCH  14  17
ATOM     17  C   UNL     1      44.585   4.082   9.638  0.00  0.00    +0.000 C 
ATOM     18  C   UNL     1      44.839   2.612  10.007  0.00  0.00    +0.000 C 
ATOM     19  C   UNL     1      45.046   1.753   8.764  0.00  0.00    +0.000 C 
ATOM     20  C   UNL     1      46.183   2.288   7.902  0.00  0.00    +0.000 C 
ATOM     21  C   UNL     1      45.950   3.746   7.521  0.00  0.00    +0.000 C 
ATOM     22  C   UNL     1      45.732   4.622   8.758  0.00  0.00    +0.000 C 
ENDBRANCH  14  17
ENDBRANCH   5  14
TORSDOF 3
ENDMDL
MODEL 3
REMARK VINA RESULT:    -7.762      3.300      6.328
REMARK INTER + INTRA:          -8.661
REMARK INTER:                  -8.168
REMARK INTRA:                  -0.493
REMARK UNBOUND:                 0.463
REMARK  Name = 
REMARK  3 active torsions:
REMARK  status: ('A' for Active; 'I' for Inactive)
REMARK    1  A    between atoms: C_2  and  C_4
REMARK    2  A    between atoms: N_8  and  C_9
REMARK    3  A    between atoms: C_9  and  C_10
REMARK                            x       y       z     vdW  Elec       q    Type
REMARK                         _______ _______ _______ _____ _____    ______ ____
ROOT
ATOM      1  C   UNL     1      47.879   6.928  13.985  0.00  0.00    +0.000 A 
ATOM      2  C   UNL     1      47.418   7.980  13.217  0.00  0.00    +0.000 A 
ATOM      3  C   UNL     1      46.611   7.712  12.115  0.00  0.00    +0.000 A 
ATOM      4  C   UNL     1      46.204   6.381  11.879  0.00  0.00    +0.000 A 
ATOM      5  N   UNL     1      45.278   6.162  10.834  0.00  0.00    +0.000 N 
ATOM      6  N   UNL     1      46.661   5.370  12.610  0.00  0.00    +0.000 NA
ATOM      7  C   UNL     1      47.523   5.644  13.630  0.00  0.00    +0.000 A 
ATOM      8  H   UNL     1      45.678   6.503   9.972  0.00  0.00    +0.000 HD
ENDROOT
BRANCH   1  10
ATOM      9  N   UNL     1      48.288   7.953  16.131  0.00  0.00    +0.000 N 
ATOM     10  C   UNL     1      48.782   7.158  15.135  0.00  0.00    +0.000 C 
ATOM     11  O   UNL     1      49.890   6.658  15.189  0.00  0.00    +0.000 OA
ATOM     12  H   UNL     1      48.865   8.081  16.948  0.00  0.00    +0.000 HD
ATOM     13  H   UNL     1      47.307   8.189  16.204  0.00  0.00    +0.000 HD
ENDBRANCH   1  10
BRANCH   5  14
ATOM     14  C   UNL     1      44.360   4.985  10.716  0.00  0.00    +0.000 C 
ATOM     15  C   UNL     1      42.909   5.357  11.049  0.00  0.00    +0.000 C 
ATOM     16  C   UNL     1      43.610   4.339  11.887  0.00  0.00    +0.000 C 
BRANCH  14  17
ATOM     17  C   UNL     1      44.628   4.067   9.513  0.00  0.00    +0.000 C 
ATOM     18  C   UNL     1      44.925   2.638   9.992  0.00  0.00    +0.000 C 
ATOM     19  C   UNL     1      45.135   1.689   8.818  0.00  0.00    +0.000 C 
ATOM     20  C   UNL     1      46.246   2.181   7.898  0.00  0.00    +0.000 C 
ATOM     21  C   UNL     1      45.971   3.599   7.408  0.00  0.00    +0.000 C 
ATOM     22  C   UNL     1      45.749   4.564   8.575  0.00  0.00    +0.000 C 
ENDBRANCH  14  17
ENDBRANCH   5  14
TORSDOF 3
ENDMDL
MODEL 4
REMARK VINA RESULT:    -7.334      1.391      1.732
REMARK INTER + INTRA:          -8.157
REMARK INTER:                  -7.452
REMARK INTRA:                  -0.705
REMARK UNBOUND:                 0.463
REMARK  Name = 
REMARK  3 active torsions:
REMARK  status: ('A' for Active; 'I' for Inactive)
REMARK    1  A    between atoms: C_2  and  C_4
REMARK    2  A    between atoms: N_8  and  C_9
REMARK    3  A    between atoms: C_9  and  C_10
REMARK                            x       y       z     vdW  Elec       q    Type
REMARK                         _______ _______ _______ _____ _____    ______ ____
ROOT
ATOM      1  C   UNL     1      46.420   2.972   7.374  0.00  0.00    +0.000 A 
ATOM      2  C   UNL     1      45.754   1.943   8.013  0.00  0.00    +0.000 A 
ATOM      3  C   UNL     1      45.216   2.167   9.277  0.00  0.00    +0.000 A 
ATOM      4  C   UNL     1      45.276   3.468   9.821  0.00  0.00    +0.000 A 
ATOM      5  N   UNL     1      44.603   3.692  11.044  0.00  0.00    +0.000 N 
ATOM      6  N   UNL     1      45.930   4.452   9.211  0.00  0.00    +0.000 NA
ATOM      7  C   UNL     1      46.528   4.189   8.014  0.00  0.00    +0.000 A 
ATOM      8  H   UNL     1      44.983   3.066  11.739  0.00  0.00    +0.000 HD
ENDROOT
BRANCH   1  10
ATOM      9  N   UNL     1      48.394   2.497   6.070  0.00  0.00    +0.000 N 
ATOM     10  C   UNL     1      47.054   2.769   6.053  0.00  0.00    +0.000 C 
ATOM     11  O   UNL     1      46.416   2.833   5.019  0.00  0.00    +0.000 OA
ATOM     12  H   UNL     1      48.837   2.305   5.184  0.00  0.00    +0.000 HD
ATOM     13  H   UNL     1      48.884   2.226   6.912  0.00  0.00    +0.000 HD
ENDBRANCH   1  10
BRANCH   5  14
ATOM     14  C   UNL     1      44.120   5.019  11.542  0.00  0.00    +0.000 C 
ATOM     15  C   UNL     1      42.644   4.967  11.961  0.00  0.00    +0.000 C 
ATOM     16  C   UNL     1      43.055   5.878  10.851  0.00  0.00    +0.000 C 
BRANCH  14  17
ATOM     17  C   UNL     1      45.113   5.782  12.432  0.00  0.00    +0.000 C 
ATOM     18  C   UNL     1      45.712   6.969  11.661  0.00  0.00    +0.000 C 
ATOM     19  C   UNL     1      46.657   7.783  12.539  0.00  0.00    +0.000 C 
ATOM     20  C   UNL     1      47.766   6.912  13.117  0.00  0.00    +0.000 C 
ATOM     21  C   UNL     1      47.194   5.728  13.889  0.00  0.00    +0.000 C 
ATOM     22  C   UNL     1      46.236   4.904  13.026  0.00  0.00    +0.000 C 
ENDBRANCH  14  17
ENDBRANCH   5  14
TORSDOF 3
ENDMDL
MODEL 5
REMARK VINA RESULT:    -6.334      3.635      5.611
REMARK INTER + INTRA:          -6.982
REMARK INTER:                  -6.260
REMARK INTRA:                  -0.722
REMARK UNBOUND:                 0.463
REMARK  Name = 
REMARK  3 active torsions:
REMARK  status: ('A' for Active; 'I' for Inactive)
REMARK    1  A    between atoms: C_2  and  C_4
REMARK    2  A    between atoms: N_8  and  C_9
REMARK    3  A    between atoms: C_9  and  C_10
REMARK                            x       y       z     vdW  Elec       q    Type
REMARK                         _______ _______ _______ _____ _____    ______ ____
ROOT
ATOM      1  C   UNL     1      44.724   4.847  11.980  0.00  0.00    +0.000 A 
ATOM      2  C   UNL     1      44.252   6.048  11.486  0.00  0.00    +0.000 A 
ATOM      3  C   UNL     1      44.984   7.210  11.715  0.00  0.00    +0.000 A 
ATOM      4  C   UNL     1      46.239   7.107  12.355  0.00  0.00    +0.000 A 
ATOM      5  N   UNL     1      47.015   8.284  12.452  0.00  0.00    +0.000 N 
ATOM      6  N   UNL     1      46.683   5.953  12.842  0.00  0.00    +0.000 NA
ATOM      7  C   UNL     1      45.909   4.842  12.686  0.00  0.00    +0.000 A 
ATOM      8  H   UNL     1      46.485   8.979  12.957  0.00  0.00    +0.000 HD
ENDROOT
BRANCH   1  10
ATOM      9  N   UNL     1      44.391   2.523  12.539  0.00  0.00    +0.000 N 
ATOM     10  C   UNL     1      43.957   3.593  11.808  0.00  0.00    +0.000 C 
ATOM     11  O   UNL     1      42.995   3.527  11.066  0.00  0.00    +0.000 OA
ATOM     12  H   UNL     1      43.853   1.673  12.477  0.00  0.00    +0.000 HD
ATOM     13  H   UNL     1      45.038   2.618  13.312  0.00  0.00    +0.000 HD
ENDBRANCH   1  10
BRANCH   5  14
ATOM     14  C   UNL     1      48.501   8.335  12.621  0.00  0.00    +0.000 C 
ATOM     15  C   UNL     1      49.169   9.207  11.548  0.00  0.00    +0.000 C 
ATOM     16  C   UNL     1      49.516   7.757  11.628  0.00  0.00    +0.000 C 
BRANCH  14  17
ATOM     17  C   UNL     1      48.988   8.453  14.074  0.00  0.00    +0.000 C 
ATOM     18  C   UNL     1      49.528   7.100  14.564  0.00  0.00    +0.000 C 
ATOM     19  C   UNL     1      50.075   7.200  15.984  0.00  0.00    +0.000 C 
ATOM     20  C   UNL     1      49.022   7.732  16.948  0.00  0.00    +0.000 C 
ATOM     21  C   UNL     1      48.473   9.076  16.483  0.00  0.00    +0.000 C 
ATOM     22  C   UNL     1      47.927   8.997  15.055  0.00  0.00    +0.000 C 
ENDBRANCH  14  17
ENDBRANCH   5  14
TORSDOF 3
ENDMDL
MODEL 6
REMARK VINA RESULT:    -6.099      2.421      3.991
REMARK INTER + INTRA:          -6.705
REMARK INTER:                  -6.087
REMARK INTRA:                  -0.618
REMARK UNBOUND:                 0.463
REMARK  Name = 
REMARK  3 active torsions:
REMARK  status: ('A' for Active; 'I' for Inactive)
REMARK    1  A    between atoms: C_2  and  C_4
REMARK    2  A    between atoms: N_8  and  C_9
REMARK    3  A    between atoms: C_9  and  C_10
REMARK                            x       y       z     vdW  Elec       q    Type
REMARK                         _______ _______ _______ _____ _____    ______ ____
ROOT
ATOM      1  C   UNL     1      44.594   4.318   9.881  0.00  0.00    +0.000 A 
ATOM      2  C   UNL     1      43.556   4.495  10.776  0.00  0.00    +0.000 A 
ATOM      3  C   UNL     1      43.602   5.565  11.665  0.00  0.00    +0.000 A 
ATOM      4  C   UNL     1      44.657   6.496  11.552  0.00  0.00    +0.000 A 
ATOM      5  N   UNL     1      44.601   7.641  12.379  0.00  0.00    +0.000 N 
ATOM      6  N   UNL     1      45.662   6.316  10.701  0.00  0.00    +0.000 NA
ATOM      7  C   UNL     1      45.644   5.213   9.901  0.00  0.00    +0.000 A 
ATOM      8  H   UNL     1      44.577   7.342  13.343  0.00  0.00    +0.000 HD
ENDROOT
BRANCH   1  10
ATOM      9  N   UNL     1      44.542   1.931   9.531  0.00  0.00    +0.000 N 
ATOM     10  C   UNL     1      44.617   3.167   8.952  0.00  0.00    +0.000 C 
ATOM     11  O   UNL     1      44.689   3.318   7.746  0.00  0.00    +0.000 OA
ATOM     12  H   UNL     1      44.504   1.134   8.915  0.00  0.00    +0.000 HD
ATOM     13  H   UNL     1      44.264   1.797  10.494  0.00  0.00    +0.000 HD
ENDBRANCH   1  10
BRANCH   5  14
ATOM     14  C   UNL     1      45.288   8.944  12.109  0.00  0.00    +0.000 C 
ATOM     15  C   UNL     1      44.307  10.124  12.144  0.00  0.00    +0.000 C 
ATOM     16  C   UNL     1      45.043   9.825  10.879  0.00  0.00    +0.000 C 
BRANCH  14  17
ATOM     17  C   UNL     1      46.662   9.108  12.779  0.00  0.00    +0.000 C 
ATOM     18  C   UNL     1      47.735   9.410  11.721  0.00  0.00    +0.000 C 
ATOM     19  C   UNL     1      49.099   9.638  12.361  0.00  0.00    +0.000 C 
ATOM     20  C   UNL     1      49.518   8.448  13.216  0.00  0.00    +0.000 C 
ATOM     21  C   UNL     1      48.468   8.131  14.276  0.00  0.00    +0.000 C 
ATOM     22  C   UNL     1      47.088   7.907  13.651  0.00  0.00    +0.000 C 
ENDBRANCH  14  17
ENDBRANCH   5  14
TORSDOF 3
ENDMDL
MODEL 7
REMARK VINA RESULT:    -6.032      3.446      6.444
REMARK INTER + INTRA:          -6.627
REMARK INTER:                  -6.976
REMARK INTRA:                   0.349
REMARK UNBOUND:                 0.463
REMARK  Name = 
REMARK  3 active torsions:
REMARK  status: ('A' for Active; 'I' for Inactive)
REMARK    1  A    between atoms: C_2  and  C_4
REMARK    2  A    between atoms: N_8  and  C_9
REMARK    3  A    between atoms: C_9  and  C_10
REMARK                            x       y       z     vdW  Elec       q    Type
REMARK                         _______ _______ _______ _____ _____    ______ ____
ROOT
ATOM      1  C   UNL     1      47.587   8.567  12.647  0.00  0.00    +0.000 A 
ATOM      2  C   UNL     1      48.389   7.451  12.793  0.00  0.00    +0.000 A 
ATOM      3  C   UNL     1      47.792   6.199  12.908  0.00  0.00    +0.000 A 
ATOM      4  C   UNL     1      46.391   6.098  12.765  0.00  0.00    +0.000 A 
ATOM      5  N   UNL     1      45.833   4.800  12.753  0.00  0.00    +0.000 N 
ATOM      6  N   UNL     1      45.622   7.175  12.640  0.00  0.00    +0.000 NA
ATOM      7  C   UNL     1      46.218   8.400  12.620  0.00  0.00    +0.000 A 
ATOM      8  H   UNL     1      46.073   4.337  13.617  0.00  0.00    +0.000 HD
ENDROOT
BRANCH   1  10
ATOM      9  N   UNL     1      47.286  10.961  12.684  0.00  0.00    +0.000 N 
ATOM     10  C   UNL     1      48.171   9.925  12.573  0.00  0.00    +0.000 C 
ATOM     11  O   UNL     1      49.367  10.102  12.432  0.00  0.00    +0.000 OA
ATOM     12  H   UNL     1      47.667  11.895  12.688  0.00  0.00    +0.000 HD
ATOM     13  H   UNL     1      46.340  10.835  13.018  0.00  0.00    +0.000 HD
ENDBRANCH   1  10
BRANCH   5  14
ATOM     14  C   UNL     1      44.516   4.424  12.146  0.00  0.00    +0.000 C 
ATOM     15  C   UNL     1      43.358   5.230  12.753  0.00  0.00    +0.000 C 
ATOM     16  C   UNL     1      43.368   3.743  12.899  0.00  0.00    +0.000 C 
BRANCH  14  17
ATOM     17  C   UNL     1      44.540   4.198  10.626  0.00  0.00    +0.000 C 
ATOM     18  C   UNL     1      44.612   2.695  10.316  0.00  0.00    +0.000 C 
ATOM     19  C   UNL     1      44.576   2.434   8.814  0.00  0.00    +0.000 C 
ATOM     20  C   UNL     1      45.693   3.179   8.093  0.00  0.00    +0.000 C 
ATOM     21  C   UNL     1      45.639   4.675   8.386  0.00  0.00    +0.000 C 
ATOM     22  C   UNL     1      45.666   4.955   9.891  0.00  0.00    +0.000 C 
ENDBRANCH  14  17
ENDBRANCH   5  14
TORSDOF 3
ENDMDL
MODEL 8
REMARK VINA RESULT:    -5.847      5.374      8.080
REMARK INTER + INTRA:          -6.409
REMARK INTER:                  -6.633
REMARK INTRA:                   0.223
REMARK UNBOUND:                 0.463
REMARK  Name = 
REMARK  3 active torsions:
REMARK  status: ('A' for Active; 'I' for Inactive)
REMARK    1  A    between atoms: C_2  and  C_4
REMARK    2  A    between atoms: N_8  and  C_9
REMARK    3  A    between atoms: C_9  and  C_10
REMARK                            x       y       z     vdW  Elec       q    Type
REMARK                         _______ _______ _______ _____ _____    ______ ____
ROOT
ATOM      1  C   UNL     1      48.737   4.228  18.276  0.00  0.00    +0.000 A 
ATOM      2  C   UNL     1      48.707   3.009  17.627  0.00  0.00    +0.000 A 
ATOM      3  C   UNL     1      48.035   2.904  16.413  0.00  0.00    +0.000 A 
ATOM      4  C   UNL     1      47.494   4.073  15.833  0.00  0.00    +0.000 A 
ATOM      5  N   UNL     1      46.937   3.956  14.539  0.00  0.00    +0.000 N 
ATOM      6  N   UNL     1      47.511   5.241  16.467  0.00  0.00    +0.000 NA
ATOM      7  C   UNL     1      48.096   5.303  17.697  0.00  0.00    +0.000 A 
ATOM      8  H   UNL     1      46.194   3.273  14.569  0.00  0.00    +0.000 HD
ENDROOT
BRANCH   1  10
ATOM      9  N   UNL     1      48.639   4.031  20.680  0.00  0.00    +0.000 N 
ATOM     10  C   UNL     1      49.394   4.378  19.594  0.00  0.00    +0.000 C 
ATOM     11  O   UNL     1      50.539   4.777  19.697  0.00  0.00    +0.000 OA
ATOM     12  H   UNL     1      49.083   4.076  21.584  0.00  0.00    +0.000 HD
ATOM     13  H   UNL     1      47.783   3.499  20.600  0.00  0.00    +0.000 HD
ENDBRANCH   1  10
BRANCH   5  14
ATOM     14  C   UNL     1      46.766   5.076  13.561  0.00  0.00    +0.000 C 
ATOM     15  C   UNL     1      48.115   5.676  13.139  0.00  0.00    +0.000 C 
ATOM     16  C   UNL     1      47.119   6.542  13.838  0.00  0.00    +0.000 C 
BRANCH  14  17
ATOM     17  C   UNL     1      45.695   4.844  12.484  0.00  0.00    +0.000 C 
ATOM     18  C   UNL     1      44.459   5.712  12.769  0.00  0.00    +0.000 C 
ATOM     19  C   UNL     1      43.402   5.549  11.684  0.00  0.00    +0.000 C 
ATOM     20  C   UNL     1      42.997   4.090  11.517  0.00  0.00    +0.000 C 
ATOM     21  C   UNL     1      44.208   3.209  11.230  0.00  0.00    +0.000 C 
ATOM     22  C   UNL     1      45.285   3.366  12.307  0.00  0.00    +0.000 C 
ENDBRANCH  14  17
ENDBRANCH   5  14
TORSDOF 3
ENDMDL
MODEL 9
REMARK VINA RESULT:    -5.771      6.680      8.939
REMARK INTER + INTRA:          -6.320
REMARK INTER:                  -5.712
REMARK INTRA:                  -0.608
REMARK UNBOUND:                 0.463
REMARK  Name = 
REMARK  3 active torsions:
REMARK  status: ('A' for Active; 'I' for Inactive)
REMARK    1  A    between atoms: C_2  and  C_4
REMARK    2  A    between atoms: N_8  and  C_9
REMARK    3  A    between atoms: C_9  and  C_10
REMARK                            x       y       z     vdW  Elec       q    Type
REMARK                         _______ _______ _______ _____ _____    ______ ____
ROOT
ATOM      1  C   UNL     1      52.201   1.767  17.718  0.00  0.00    +0.000 A 
ATOM      2  C   UNL     1      52.641   2.961  18.256  0.00  0.00    +0.000 A 
ATOM      3  C   UNL     1      51.863   4.105  18.095  0.00  0.00    +0.000 A 
ATOM      4  C   UNL     1      50.599   3.985  17.478  0.00  0.00    +0.000 A 
ATOM      5  N   UNL     1      49.779   5.136  17.451  0.00  0.00    +0.000 N 
ATOM      6  N   UNL     1      50.185   2.838  16.948  0.00  0.00    +0.000 NA
ATOM      7  C   UNL     1      51.002   1.750  17.037  0.00  0.00    +0.000 A 
ATOM      8  H   UNL     1      50.273   5.871  16.967  0.00  0.00    +0.000 HD
ENDROOT
BRANCH   1  10
ATOM      9  N   UNL     1      52.451  -0.498  18.511  0.00  0.00    +0.000 N 
ATOM     10  C   UNL     1      53.015   0.536  17.818  0.00  0.00    +0.000 C 
ATOM     11  O   UNL     1      54.115   0.452  17.304  0.00  0.00    +0.000 OA
ATOM     12  H   UNL     1      52.966  -1.365  18.548  0.00  0.00    +0.000 HD
ATOM     13  H   UNL     1      51.468  -0.523  18.748  0.00  0.00    +0.000 HD
ENDBRANCH   1  10
BRANCH   5  14
ATOM     14  C   UNL     1      48.289   5.140  17.314  0.00  0.00    +0.000 C 
ATOM     15  C   UNL     1      47.598   5.585  18.611  0.00  0.00    +0.000 C 
ATOM     16  C   UNL     1      47.337   4.214  18.080  0.00  0.00    +0.000 C 
BRANCH  14  17
ATOM     17  C   UNL     1      47.758   5.677  15.976  0.00  0.00    +0.000 C 
ATOM     18  C   UNL     1      47.256   4.517  15.101  0.00  0.00    +0.000 C 
ATOM     19  C   UNL     1      46.667   5.023  13.789  0.00  0.00    +0.000 C 
ATOM     20  C   UNL     1      47.672   5.871  13.019  0.00  0.00    +0.000 C 
ATOM     21  C   UNL     1      48.182   7.031  13.868  0.00  0.00    +0.000 C 
ATOM     22  C   UNL     1      48.770   6.541  15.194  0.00  0.00    +0.000 C 
ENDBRANCH  14  17
ENDBRANCH   5  14
TORSDOF 3
ENDMDL
