MODEL 1
REMARK VINA RESULT:    -8.724      0.000      0.000
REMARK INTER + INTRA:         -11.964
REMARK INTER:                 -11.275
REMARK INTRA:                  -0.689
REMARK UNBOUND:                -0.689
REMARK  Name = 
REMARK  5 active torsions:
REMARK  status: ('A' for Active; 'I' for Inactive)
REMARK    1  A    between atoms: C_2  and  C_4
REMARK    2  A    between atoms: C_7  and  O_8
REMARK    3  A    between atoms: O_8  and  C_9
REMARK    4  A    between atoms: C_9  and  C_10
REMARK    5  A    between atoms: C_14  and  C_15
REMARK                            x       y       z     vdW  Elec       q    Type
REMARK                         _______ _______ _______ _____ _____    ______ ____
ROOT
ATOM      1  C   UNL     1      43.746   3.581  11.600  0.00  0.00    +0.000 C 
ENDROOT
BRANCH   1   2
ATOM      2  C   UNL     1      44.973   4.180  12.250  0.00  0.00    +0.000 A 
ATOM      3  N   UNL     1      45.760   3.367  12.984  0.00  0.00    +0.000 NA
ATOM      4  C   UNL     1      46.804   3.945  13.596  0.00  0.00    +0.000 A 
ATOM      5  C   UNL     1      47.096   5.285  13.503  0.00  0.00    +0.000 A 
ATOM      6  C   UNL     1      46.254   6.049  12.717  0.00  0.00    +0.000 A 
ATOM      7  N   UNL     1      45.182   5.505  12.097  0.00  0.00    +0.000 NA
BRANCH   6   8
ATOM      8  C   UNL     1      46.457   7.496  12.490  0.00  0.00    +0.000 A 
ATOM      9  C   UNL     1      47.740   8.047  12.311  0.00  0.00    +0.000 A 
ATOM     10  C   UNL     1      47.921   9.413  12.075  0.00  0.00    +0.000 A 
ATOM     11  C   UNL     1      46.821  10.263  12.012  0.00  0.00    +0.000 A 
ATOM     12  C   UNL     1      45.541   9.746  12.185  0.00  0.00    +0.000 A 
ATOM     13  C   UNL     1      45.363   8.379  12.420  0.00  0.00    +0.000 A 
ENDBRANCH   6   8
ENDBRANCH   1   2
BRANCH   1  14
ATOM     14  O   UNL     1      43.595   4.065  10.258  0.00  0.00    +0.000 OA
BRANCH  14  18
ATOM     15  C   UNL     1      46.409   2.451   7.722  0.00  0.00    +0.000 A 
ATOM     16  C   UNL     1      46.184   3.830   7.714  0.00  0.00    +0.000 A 
ATOM     17  C   UNL     1      45.222   4.366   8.574  0.00  0.00    +0.000 A 
ATOM     18  C   UNL     1      44.526   3.504   9.410  0.00  0.00    +0.000 A 
ATOM     19  N   UNL     1      44.718   2.166   9.426  0.00  0.00    +0.000 NA
ATOM     20  C   UNL     1      45.647   1.669   8.575  0.00  0.00    +0.000 A 
BRANCH  15  22
ATOM     21  N   UNL     1      48.486   2.511   6.459  0.00  0.00    +0.000 N 
ATOM     22  C   UNL     1      47.406   1.779   6.862  0.00  0.00    +0.000 C 
ATOM     23  O   UNL     1      47.293   0.598   6.559  0.00  0.00    +0.000 OA
ATOM     24  H   UNL     1      49.214   1.996   5.979  0.00  0.00    +0.000 HD
ATOM     25  H   UNL     1      48.744   3.384   6.897  0.00  0.00    +0.000 HD
ENDBRANCH  15  22
ENDBRANCH  14  18
ENDBRANCH   1  14
TORSDOF 5
ENDMDL
MODEL 2
REMARK VINA RESULT:    -8.219      1.285      2.014
REMARK INTER + INTRA:         -11.310
REMARK INTER:                 -10.662
REMARK INTRA:                  -0.648
REMARK UNBOUND:                -0.689
REMARK  Name = 
REMARK  5 active torsions:
REMARK  status: ('A' for Active; 'I' for Inactive)
REMARK    1  A    between atoms: C_2  and  C_4
REMARK    2  A    between atoms: C_7  and  O_8
REMARK    3  A    between atoms: O_8  and  C_9
REMARK    4  A    between atoms: C_9  and  C_10
REMARK    5  A    between atoms: C_14  and  C_15
REMARK                            x       y       z     vdW  Elec       q    Type
REMARK                         _______ _______ _______ _____ _____    ______ ____
ROOT
ATOM      1  C   UNL     1      43.957   5.241  10.655  0.00  0.00    +0.000 C 
ENDROOT
BRANCH   1   2
ATOM      2  C   UNL     1      45.089   5.389  11.646  0.00  0.00    +0.000 A 
ATOM      3  N   UNL     1      45.128   4.542  12.694  0.00  0.00    +0.000 NA
ATOM      4  C   UNL     1      46.111   4.742  13.585  0.00  0.00    +0.000 A 
ATOM      5  C   UNL     1      47.051   5.738  13.470  0.00  0.00    +0.000 A 
ATOM      6  C   UNL     1      46.957   6.554  12.358  0.00  0.00    +0.000 A 
ATOM      7  N   UNL     1      45.971   6.393  11.448  0.00  0.00    +0.000 NA
BRANCH   6   8
ATOM      8  C   UNL     1      47.915   7.645  12.078  0.00  0.00    +0.000 A 
ATOM      9  C   UNL     1      47.522   8.997  12.082  0.00  0.00    +0.000 A 
ATOM     10  C   UNL     1      48.439  10.024  11.837  0.00  0.00    +0.000 A 
ATOM     11  C   UNL     1      49.773   9.723  11.582  0.00  0.00    +0.000 A 
ATOM     12  C   UNL     1      50.190   8.395  11.571  0.00  0.00    +0.000 A 
ATOM     13  C   UNL     1      49.271   7.371  11.817  0.00  0.00    +0.000 A 
ENDBRANCH   6   8
ENDBRANCH   1   2
BRANCH   1  14
ATOM     14  O   UNL     1      43.777   3.865  10.290  0.00  0.00    +0.000 OA
BRANCH  14  18
ATOM     15  C   UNL     1      46.483   2.625   7.445  0.00  0.00    +0.000 A 
ATOM     16  C   UNL     1      46.000   1.709   8.384  0.00  0.00    +0.000 A 
ATOM     17  C   UNL     1      45.088   2.142   9.348  0.00  0.00    +0.000 A 
ATOM     18  C   UNL     1      44.691   3.472   9.335  0.00  0.00    +0.000 A 
ATOM     19  N   UNL     1      45.153   4.378   8.446  0.00  0.00    +0.000 NA
ATOM     20  C   UNL     1      46.045   3.937   7.528  0.00  0.00    +0.000 A 
BRANCH  15  22
ATOM     21  N   UNL     1      47.410   3.017   5.232  0.00  0.00    +0.000 N 
ATOM     22  C   UNL     1      47.444   2.275   6.378  0.00  0.00    +0.000 C 
ATOM     23  O   UNL     1      48.270   1.384   6.532  0.00  0.00    +0.000 OA
ATOM     24  H   UNL     1      48.157   2.842   4.571  0.00  0.00    +0.000 HD
ATOM     25  H   UNL     1      46.938   3.908   5.176  0.00  0.00    +0.000 HD
ENDBRANCH  15  22
ENDBRANCH  14  18
ENDBRANCH   1  14
TORSDOF 5
ENDMDL
MODEL 3
REMARK VINA RESULT:    -8.211      1.657      3.471
REMARK INTER + INTRA:         -11.300
REMARK INTER:                 -10.683
REMARK INTRA:                  -0.617
REMARK UNBOUND:                -0.689
REMARK  Name = 
REMARK  5 active torsions:
REMARK  status: ('A' for Active; 'I' for Inactive)
REMARK    1  A    between atoms: C_2  and  C_4
REMARK    2  A    between atoms: C_7  and  O_8
REMARK    3  A    between atoms: O_8  and  C_9
REMARK    4  A    between atoms: C_9  and  C_10
REMARK    5  A    between atoms: C_14  and  C_15
REMARK                            x       y       z     vdW  Elec       q    Type
REMARK                         _______ _______ _______ _____ _____    ______ ____
ROOT
ATOM      1  C   UNL     1      43.929   4.431  11.369  0.00  0.00    +0.000 C 
ENDROOT
BRANCH   1   2
ATOM      2  C   UNL     1      45.000   5.339  11.927  0.00  0.00    +0.000 A 
ATOM      3  N   UNL     1      45.254   6.492  11.276  0.00  0.00    +0.000 NA
ATOM      4  C   UNL     1      46.253   7.243  11.764  0.00  0.00    +0.000 A 
ATOM      5  C   UNL     1      46.996   6.898  12.867  0.00  0.00    +0.000 A 
ATOM      6  C   UNL     1      46.663   5.711  13.492  0.00  0.00    +0.000 A 
ATOM      7  N   UNL     1      45.673   4.920  13.020  0.00  0.00    +0.000 NA
BRANCH   6   8
ATOM      8  C   UNL     1      47.346   5.223  14.710  0.00  0.00    +0.000 A 
ATOM      9  C   UNL     1      48.223   6.040  15.447  0.00  0.00    +0.000 A 
ATOM     10  C   UNL     1      48.848   5.577  16.609  0.00  0.00    +0.000 A 
ATOM     11  C   UNL     1      48.609   4.283  17.063  0.00  0.00    +0.000 A 
ATOM     12  C   UNL     1      47.746   3.453  16.354  0.00  0.00    +0.000 A 
ATOM     13  C   UNL     1      47.122   3.919  15.192  0.00  0.00    +0.000 A 
ENDBRANCH   6   8
ENDBRANCH   1   2
BRANCH   1  14
ATOM     14  O   UNL     1      43.748   4.660   9.964  0.00  0.00    +0.000 OA
BRANCH  14  18
ATOM     15  C   UNL     1      46.410   2.450   7.732  0.00  0.00    +0.000 A 
ATOM     16  C   UNL     1      45.598   1.808   8.670  0.00  0.00    +0.000 A 
ATOM     17  C   UNL     1      44.703   2.569   9.427  0.00  0.00    +0.000 A 
ATOM     18  C   UNL     1      44.652   3.939   9.213  0.00  0.00    +0.000 A 
ATOM     19  N   UNL     1      45.437   4.583   8.322  0.00  0.00    +0.000 NA
ATOM     20  C   UNL     1      46.304   3.826   7.609  0.00  0.00    +0.000 A 
BRANCH  15  22
ATOM     21  N   UNL     1      48.462   2.457   6.428  0.00  0.00    +0.000 N 
ATOM     22  C   UNL     1      47.385   1.745   6.874  0.00  0.00    +0.000 C 
ATOM     23  O   UNL     1      47.259   0.555   6.611  0.00  0.00    +0.000 OA
ATOM     24  H   UNL     1      49.178   1.922   5.950  0.00  0.00    +0.000 HD
ATOM     25  H   UNL     1      48.734   3.340   6.834  0.00  0.00    +0.000 HD
ENDBRANCH  15  22
ENDBRANCH  14  18
ENDBRANCH   1  14
TORSDOF 5
ENDMDL
MODEL 4
REMARK VINA RESULT:    -7.705      2.775      6.579
REMARK INTER + INTRA:         -10.646
REMARK INTER:                  -9.897
REMARK INTRA:                  -0.749
REMARK UNBOUND:                -0.689
REMARK  Name = 
REMARK  5 active torsions:
REMARK  status: ('A' for Active; 'I' for Inactive)
REMARK    1  A    between atoms: C_2  and  C_4
REMARK    2  A    between atoms: C_7  and  O_8
REMARK    3  A    between atoms: O_8  and  C_9
REMARK    4  A    between atoms: C_9  and  C_10
REMARK    5  A    between atoms: C_14  and  C_15
REMARK                            x       y       z     vdW  Elec       q    Type
REMARK                         _______ _______ _______ _____ _____    ______ ____
ROOT
ATOM      1  C   UNL     1      44.157   6.555  11.450  0.00  0.00    +0.000 C 
ENDROOT
BRANCH   1   2
ATOM      2  C   UNL     1      44.074   5.088  11.095  0.00  0.00    +0.000 A 
ATOM      3  N   UNL     1      43.309   4.292  11.869  0.00  0.00    +0.000 NA
ATOM      4  C   UNL     1      43.308   2.986  11.562  0.00  0.00    +0.000 A 
ATOM      5  C   UNL     1      44.027   2.448  10.521  0.00  0.00    +0.000 A 
ATOM      6  C   UNL     1      44.772   3.331   9.761  0.00  0.00    +0.000 A 
ATOM      7  N   UNL     1      44.810   4.651  10.051  0.00  0.00    +0.000 NA
BRANCH   6   8
ATOM      8  C   UNL     1      45.568   2.910   8.588  0.00  0.00    +0.000 A 
ATOM      9  C   UNL     1      45.928   3.815   7.572  0.00  0.00    +0.000 A 
ATOM     10  C   UNL     1      46.700   3.413   6.478  0.00  0.00    +0.000 A 
ATOM     11  C   UNL     1      47.132   2.095   6.374  0.00  0.00    +0.000 A 
ATOM     12  C   UNL     1      46.792   1.178   7.364  0.00  0.00    +0.000 A 
ATOM     13  C   UNL     1      46.020   1.583   8.458  0.00  0.00    +0.000 A 
ENDBRANCH   6   8
ENDBRANCH   1   2
BRANCH   1  14
ATOM     14  O   UNL     1      44.734   6.732  12.752  0.00  0.00    +0.000 OA
BRANCH  14  18
ATOM     15  C   UNL     1      48.755   7.589  12.519  0.00  0.00    +0.000 A 
ATOM     16  C   UNL     1      47.823   8.534  12.084  0.00  0.00    +0.000 A 
ATOM     17  C   UNL     1      46.461   8.230  12.162  0.00  0.00    +0.000 A 
ATOM     18  C   UNL     1      46.086   6.996  12.674  0.00  0.00    +0.000 A 
ATOM     19  N   UNL     1      46.969   6.062  13.088  0.00  0.00    +0.000 NA
ATOM     20  C   UNL     1      48.283   6.375  12.992  0.00  0.00    +0.000 A 
BRANCH  15  22
ATOM     21  N   UNL     1      50.885   7.443  11.356  0.00  0.00    +0.000 N 
ATOM     22  C   UNL     1      50.217   7.807  12.490  0.00  0.00    +0.000 C 
ATOM     23  O   UNL     1      50.801   8.336  13.427  0.00  0.00    +0.000 OA
ATOM     24  H   UNL     1      51.859   7.717  11.310  0.00  0.00    +0.000 HD
ATOM     25  H   UNL     1      50.412   7.258  10.483  0.00  0.00    +0.000 HD
ENDBRANCH  15  22
ENDBRANCH  14  18
ENDBRANCH   1  14
TORSDOF 5
ENDMDL
MODEL 5
REMARK VINA RESULT:    -7.523      2.720      7.112
REMARK INTER + INTRA:         -10.411
REMARK INTER:                 -10.258
REMARK INTRA:                  -0.154
REMARK UNBOUND:                -0.689
REMARK  Name = 
REMARK  5 active torsions:
REMARK  status: ('A' for Active; 'I' for Inactive)
REMARK    1  A    between atoms: C_2  and  C_4
REMARK    2  A    between atoms: C_7  and  O_8
REMARK    3  A    between atoms: O_8  and  C_9
REMARK    4  A    between atoms: C_9  and  C_10
REMARK    5  A    between atoms: C_14  and  C_15
REMARK                            x       y       z     vdW  Elec       q    Type
REMARK                         _______ _______ _______ _____ _____    ______ ____
ROOT
ATOM      1  C   UNL     1      45.081   6.359  11.381  0.00  0.00    +0.000 C 
ENDROOT
BRANCH   1   2
ATOM      2  C   UNL     1      44.712   4.992  10.850  0.00  0.00    +0.000 A 
ATOM      3  N   UNL     1      43.742   4.307  11.488  0.00  0.00    +0.000 NA
ATOM      4  C   UNL     1      43.484   3.073  11.028  0.00  0.00    +0.000 A 
ATOM      5  C   UNL     1      44.143   2.504   9.965  0.00  0.00    +0.000 A 
ATOM      6  C   UNL     1      45.111   3.276   9.350  0.00  0.00    +0.000 A 
ATOM      7  N   UNL     1      45.409   4.518   9.796  0.00  0.00    +0.000 NA
BRANCH   6   8
ATOM      8  C   UNL     1      45.880   2.817   8.173  0.00  0.00    +0.000 A 
ATOM      9  C   UNL     1      46.162   3.672   7.092  0.00  0.00    +0.000 A 
ATOM     10  C   UNL     1      46.909   3.236   5.993  0.00  0.00    +0.000 A 
ATOM     11  C   UNL     1      47.392   1.932   5.950  0.00  0.00    +0.000 A 
ATOM     12  C   UNL     1      47.129   1.065   7.006  0.00  0.00    +0.000 A 
ATOM     13  C   UNL     1      46.382   1.504   8.104  0.00  0.00    +0.000 A 
ENDBRANCH   6   8
ENDBRANCH   1   2
BRANCH   1  14
ATOM     14  O   UNL     1      46.500   6.471  11.555  0.00  0.00    +0.000 OA
BRANCH  14  18
ATOM     15  C   UNL     1      47.694   5.181  15.278  0.00  0.00    +0.000 A 
ATOM     16  C   UNL     1      48.190   6.386  14.775  0.00  0.00    +0.000 A 
ATOM     17  C   UNL     1      47.783   6.811  13.508  0.00  0.00    +0.000 A 
ATOM     18  C   UNL     1      46.895   6.017  12.796  0.00  0.00    +0.000 A 
ATOM     19  N   UNL     1      46.413   4.842  13.256  0.00  0.00    +0.000 NA
ATOM     20  C   UNL     1      46.831   4.446  14.482  0.00  0.00    +0.000 A 
BRANCH  15  22
ATOM     21  N   UNL     1      47.174   4.858  17.631  0.00  0.00    +0.000 N 
ATOM     22  C   UNL     1      48.051   4.640  16.607  0.00  0.00    +0.000 C 
ATOM     23  O   UNL     1      49.070   3.981  16.774  0.00  0.00    +0.000 OA
ATOM     24  H   UNL     1      47.377   4.372  18.497  0.00  0.00    +0.000 HD
ATOM     25  H   UNL     1      46.222   5.155  17.476  0.00  0.00    +0.000 HD
ENDBRANCH  15  22
ENDBRANCH  14  18
ENDBRANCH   1  14
TORSDOF 5
ENDMDL
MODEL 6
REMARK VINA RESULT:    -7.375      3.927      7.970
REMARK INTER + INTRA:         -10.220
REMARK INTER:                  -9.735
REMARK INTRA:                  -0.485
REMARK UNBOUND:                -0.689
REMARK  Name = 
REMARK  5 active torsions:
REMARK  status: ('A' for Active; 'I' for Inactive)
REMARK    1  A    between atoms: C_2  and  C_4
REMARK    2  A    between atoms: C_7  and  O_8
REMARK    3  A    between atoms: O_8  and  C_9
REMARK    4  A    between atoms: C_9  and  C_10
REMARK    5  A    between atoms: C_14  and  C_15
REMARK                            x       y       z     vdW  Elec       q    Type
REMARK                         _______ _______ _______ _____ _____    ______ ____
ROOT
ATOM      1  C   UNL     1      46.085   5.218  13.911  0.00  0.00    +0.000 C 
ENDROOT
BRANCH   1   2
ATOM      2  C   UNL     1      45.129   5.010  12.758  0.00  0.00    +0.000 A 
ATOM      3  N   UNL     1      43.841   5.370  12.932  0.00  0.00    +0.000 NA
ATOM      4  C   UNL     1      43.009   5.115  11.911  0.00  0.00    +0.000 A 
ATOM      5  C   UNL     1      43.406   4.527  10.734  0.00  0.00    +0.000 A 
ATOM      6  C   UNL     1      44.746   4.204  10.623  0.00  0.00    +0.000 A 
ATOM      7  N   UNL     1      45.611   4.432  11.637  0.00  0.00    +0.000 NA
BRANCH   6   8
ATOM      8  C   UNL     1      45.331   3.600   9.407  0.00  0.00    +0.000 A 
ATOM      9  C   UNL     1      45.425   2.206   9.242  0.00  0.00    +0.000 A 
ATOM     10  C   UNL     1      45.960   1.644   8.079  0.00  0.00    +0.000 A 
ATOM     11  C   UNL     1      46.413   2.463   7.051  0.00  0.00    +0.000 A 
ATOM     12  C   UNL     1      46.332   3.846   7.186  0.00  0.00    +0.000 A 
ATOM     13  C   UNL     1      45.796   4.406   8.350  0.00  0.00    +0.000 A 
ENDBRANCH   6   8
ENDBRANCH   1   2
BRANCH   1  14
ATOM     14  O   UNL     1      46.525   3.959  14.440  0.00  0.00    +0.000 OA
BRANCH  14  18
ATOM     15  C   UNL     1      48.458   4.500  18.036  0.00  0.00    +0.000 A 
ATOM     16  C   UNL     1      48.527   5.496  17.059  0.00  0.00    +0.000 A 
ATOM     17  C   UNL     1      47.873   5.299  15.840  0.00  0.00    +0.000 A 
ATOM     18  C   UNL     1      47.173   4.117  15.647  0.00  0.00    +0.000 A 
ATOM     19  N   UNL     1      47.102   3.135  16.572  0.00  0.00    +0.000 NA
ATOM     20  C   UNL     1      47.753   3.343  17.740  0.00  0.00    +0.000 A 
BRANCH  15  22
ATOM     21  N   UNL     1      48.531   3.924  20.397  0.00  0.00    +0.000 N 
ATOM     22  C   UNL     1      49.104   4.605  19.361  0.00  0.00    +0.000 C 
ATOM     23  O   UNL     1      50.139   5.241  19.516  0.00  0.00    +0.000 OA
ATOM     24  H   UNL     1      49.060   3.908  21.261  0.00  0.00    +0.000 HD
ATOM     25  H   UNL     1      47.850   3.192  20.254  0.00  0.00    +0.000 HD
ENDBRANCH  15  22
ENDBRANCH  14  18
ENDBRANCH   1  14
TORSDOF 5
ENDMDL
MODEL 7
REMARK VINA RESULT:    -6.910      2.744      6.804
REMARK INTER + INTRA:          -9.619
REMARK INTER:                  -8.988
REMARK INTRA:                  -0.631
REMARK UNBOUND:                -0.689
REMARK  Name = 
REMARK  5 active torsions:
REMARK  status: ('A' for Active; 'I' for Inactive)
REMARK    1  A    between atoms: C_2  and  C_4
REMARK    2  A    between atoms: C_7  and  O_8
REMARK    3  A    between atoms: O_8  and  C_9
REMARK    4  A    between atoms: C_9  and  C_10
REMARK    5  A    between atoms: C_14  and  C_15
REMARK                            x       y       z     vdW  Elec       q    Type
REMARK                         _______ _______ _______ _____ _____    ______ ____
ROOT
ATOM      1  C   UNL     1      45.806   4.876  13.233  0.00  0.00    +0.000 C 
ENDROOT
BRANCH   1   2
ATOM      2  C   UNL     1      45.063   3.996  12.254  0.00  0.00    +0.000 A 
ATOM      3  N   UNL     1      43.903   3.440  12.658  0.00  0.00    +0.000 NA
ATOM      4  C   UNL     1      43.303   2.616  11.785  0.00  0.00    +0.000 A 
ATOM      5  C   UNL     1      43.804   2.333  10.537  0.00  0.00    +0.000 A 
ATOM      6  C   UNL     1      44.988   2.956  10.188  0.00  0.00    +0.000 A 
ATOM      7  N   UNL     1      45.630   3.781  11.048  0.00  0.00    +0.000 NA
BRANCH   6   8
ATOM      8  C   UNL     1      45.632   2.780   8.869  0.00  0.00    +0.000 A 
ATOM      9  C   UNL     1      45.885   3.870   8.015  0.00  0.00    +0.000 A 
ATOM     10  C   UNL     1      46.515   3.697   6.779  0.00  0.00    +0.000 A 
ATOM     11  C   UNL     1      46.909   2.428   6.367  0.00  0.00    +0.000 A 
ATOM     12  C   UNL     1      46.672   1.332   7.191  0.00  0.00    +0.000 A 
ATOM     13  C   UNL     1      46.043   1.508   8.427  0.00  0.00    +0.000 A 
ENDBRANCH   6   8
ENDBRANCH   1   2
BRANCH   1  14
ATOM     14  O   UNL     1      45.278   6.210  13.221  0.00  0.00    +0.000 OA
BRANCH  14  18
ATOM     15  C   UNL     1      48.122   8.882  11.905  0.00  0.00    +0.000 A 
ATOM     16  C   UNL     1      48.448   7.528  12.018  0.00  0.00    +0.000 A 
ATOM     17  C   UNL     1      47.478   6.631  12.472  0.00  0.00    +0.000 A 
ATOM     18  C   UNL     1      46.220   7.122  12.791  0.00  0.00    +0.000 A 
ATOM     19  N   UNL     1      45.885   8.428  12.701  0.00  0.00    +0.000 NA
ATOM     20  C   UNL     1      46.846   9.279  12.270  0.00  0.00    +0.000 A 
BRANCH  15  22
ATOM     21  N   UNL     1      48.537  11.050  10.886  0.00  0.00    +0.000 N 
ATOM     22  C   UNL     1      49.067   9.914  11.430  0.00  0.00    +0.000 C 
ATOM     23  O   UNL     1      50.277   9.780  11.560  0.00  0.00    +0.000 OA
ATOM     24  H   UNL     1      49.197  11.793  10.686  0.00  0.00    +0.000 HD
ATOM     25  H   UNL     1      47.568  11.307  11.004  0.00  0.00    +0.000 HD
ENDBRANCH  15  22
ENDBRANCH  14  18
ENDBRANCH   1  14
TORSDOF 5
ENDMDL
MODEL 8
REMARK VINA RESULT:    -6.834      5.019      7.323
REMARK INTER + INTRA:          -9.520
REMARK INTER:                  -9.016
REMARK INTRA:                  -0.504
REMARK UNBOUND:                -0.689
REMARK  Name = 
REMARK  5 active torsions:
REMARK  status: ('A' for Active; 'I' for Inactive)
REMARK    1  A    between atoms: C_2  and  C_4
REMARK    2  A    between atoms: C_7  and  O_8
REMARK    3  A    between atoms: O_8  and  C_9
REMARK    4  A    between atoms: C_9  and  C_10
REMARK    5  A    between atoms: C_14  and  C_15
REMARK                            x       y       z     vdW  Elec       q    Type
REMARK                         _______ _______ _______ _____ _____    ______ ____
ROOT
ATOM      1  C   UNL     1      47.309   4.367  15.892  0.00  0.00    +0.000 C 
ENDROOT
BRANCH   1   2
ATOM      2  C   UNL     1      48.358   4.579  16.959  0.00  0.00    +0.000 A 
ATOM      3  N   UNL     1      48.189   5.605  17.816  0.00  0.00    +0.000 NA
ATOM      4  C   UNL     1      49.171   5.801  18.710  0.00  0.00    +0.000 A 
ATOM      5  C   UNL     1      50.298   5.019  18.787  0.00  0.00    +0.000 A 
ATOM      6  C   UNL     1      50.390   3.975  17.886  0.00  0.00    +0.000 A 
ATOM      7  N   UNL     1      49.428   3.756  16.960  0.00  0.00    +0.000 NA
BRANCH   6   8
ATOM      8  C   UNL     1      51.524   3.025  17.867  0.00  0.00    +0.000 A 
ATOM      9  C   UNL     1      52.804   3.389  18.326  0.00  0.00    +0.000 A 
ATOM     10  C   UNL     1      53.865   2.478  18.324  0.00  0.00    +0.000 A 
ATOM     11  C   UNL     1      53.670   1.180  17.864  0.00  0.00    +0.000 A 
ATOM     12  C   UNL     1      52.415   0.792  17.404  0.00  0.00    +0.000 A 
ATOM     13  C   UNL     1      51.356   1.705  17.408  0.00  0.00    +0.000 A 
ENDBRANCH   6   8
ENDBRANCH   1   2
BRANCH   1  14
ATOM     14  O   UNL     1      47.730   4.934  14.643  0.00  0.00    +0.000 OA
BRANCH  14  18
ATOM     15  C   UNL     1      45.017   4.259  11.619  0.00  0.00    +0.000 A 
ATOM     16  C   UNL     1      45.497   5.553  11.839  0.00  0.00    +0.000 A 
ATOM     17  C   UNL     1      46.412   5.771  12.872  0.00  0.00    +0.000 A 
ATOM     18  C   UNL     1      46.814   4.689  13.641  0.00  0.00    +0.000 A 
ATOM     19  N   UNL     1      46.354   3.432  13.456  0.00  0.00    +0.000 NA
ATOM     20  C   UNL     1      45.459   3.248  12.457  0.00  0.00    +0.000 A 
BRANCH  15  22
ATOM     21  N   UNL     1      44.019   4.720   9.451  0.00  0.00    +0.000 N 
ATOM     22  C   UNL     1      44.054   3.914  10.553  0.00  0.00    +0.000 C 
ATOM     23  O   UNL     1      43.347   2.917  10.632  0.00  0.00    +0.000 OA
ATOM     24  H   UNL     1      43.446   4.392   8.683  0.00  0.00    +0.000 HD
ATOM     25  H   UNL     1      44.755   5.376   9.235  0.00  0.00    +0.000 HD
ENDBRANCH  15  22
ENDBRANCH  14  18
ENDBRANCH   1  14
TORSDOF 5
ENDMDL
MODEL 9
REMARK VINA RESULT:    -6.684      5.692      8.447
REMARK INTER + INTRA:          -9.327
REMARK INTER:                  -8.824
REMARK INTRA:                  -0.503
REMARK UNBOUND:                -0.689
REMARK  Name = 
REMARK  5 active torsions:
REMARK  status: ('A' for Active; 'I' for Inactive)
REMARK    1  A    between atoms: C_2  and  C_4
REMARK    2  A    between atoms: C_7  and  O_8
REMARK    3  A    between atoms: O_8  and  C_9
REMARK    4  A    between atoms: C_9  and  C_10
REMARK    5  A    between atoms: C_14  and  C_15
REMARK                            x       y       z     vdW  Elec       q    Type
REMARK                         _______ _______ _______ _____ _____    ______ ____
ROOT
ATOM      1  C   UNL     1      48.032   3.864  16.846  0.00  0.00    +0.000 C 
ENDROOT
BRANCH   1   2
ATOM      2  C   UNL     1      47.743   4.694  15.617  0.00  0.00    +0.000 A 
ATOM      3  N   UNL     1      48.552   5.740  15.355  0.00  0.00    +0.000 NA
ATOM      4  C   UNL     1      48.229   6.491  14.291  0.00  0.00    +0.000 A 
ATOM      5  C   UNL     1      47.147   6.240  13.482  0.00  0.00    +0.000 A 
ATOM      6  C   UNL     1      46.376   5.138  13.803  0.00  0.00    +0.000 A 
ATOM      7  N   UNL     1      46.661   4.367  14.877  0.00  0.00    +0.000 NA
BRANCH   6   8
ATOM      8  C   UNL     1      45.201   4.718  13.009  0.00  0.00    +0.000 A 
ATOM      9  C   UNL     1      44.035   5.503  12.936  0.00  0.00    +0.000 A 
ATOM     10  C   UNL     1      42.938   5.108  12.164  0.00  0.00    +0.000 A 
ATOM     11  C   UNL     1      42.981   3.918  11.446  0.00  0.00    +0.000 A 
ATOM     12  C   UNL     1      44.120   3.122  11.499  0.00  0.00    +0.000 A 
ATOM     13  C   UNL     1      45.217   3.519  12.271  0.00  0.00    +0.000 A 
ENDBRANCH   6   8
ENDBRANCH   1   2
BRANCH   1  14
ATOM     14  O   UNL     1      48.655   2.623  16.487  0.00  0.00    +0.000 OA
BRANCH  14  18
ATOM     15  C   UNL     1      52.443   2.389  18.085  0.00  0.00    +0.000 A 
ATOM     16  C   UNL     1      51.721   3.580  18.195  0.00  0.00    +0.000 A 
ATOM     17  C   UNL     1      50.439   3.650  17.643  0.00  0.00    +0.000 A 
ATOM     18  C   UNL     1      49.929   2.527  17.007  0.00  0.00    +0.000 A 
ATOM     19  N   UNL     1      50.614   1.370  16.878  0.00  0.00    +0.000 NA
ATOM     20  C   UNL     1      51.858   1.330  17.410  0.00  0.00    +0.000 A 
BRANCH  15  22
ATOM     21  N   UNL     1      53.989   2.486  19.959  0.00  0.00    +0.000 N 
ATOM     22  C   UNL     1      53.802   2.202  18.636  0.00  0.00    +0.000 C 
ATOM     23  O   UNL     1      54.715   1.764  17.947  0.00  0.00    +0.000 OA
ATOM     24  H   UNL     1      54.891   2.229  20.342  0.00  0.00    +0.000 HD
ATOM     25  H   UNL     1      53.220   2.588  20.606  0.00  0.00    +0.000 HD
ENDBRANCH  15  22
ENDBRANCH  14  18
ENDBRANCH   1  14
TORSDOF 5
ENDMDL
