MODEL 1
REMARK VINA RESULT:    -8.424      0.000      0.000
REMARK INTER + INTRA:         -14.032
REMARK INTER:                 -12.364
REMARK INTRA:                  -1.669
REMARK UNBOUND:                -1.669
REMARK  Name = 
REMARK  9 active torsions:
REMARK  status: ('A' for Active; 'I' for Inactive)
REMARK    1  A    between atoms: C_1  and  O_2
REMARK    2  A    between atoms: O_2  and  C_3
REMARK    3  A    between atoms: C_10  and  C_11
REMARK    4  A    between atoms: N_13  and  C_14
REMARK    5  A    between atoms: C_14  and  C_15
REMARK    6  A    between atoms: C_18  and  C_19
REMARK    7  A    between atoms: C_19  and  O_20
REMARK    8  A    between atoms: O_20  and  C_21
REMARK    9  A    between atoms: C_21  and  C_22
REMARK                            x       y       z     vdW  Elec       q    Type
REMARK                         _______ _______ _______ _____ _____    ______ ____
ROOT
ATOM      1  C   UNL     1      46.996   8.045  13.232  0.00  0.00    +0.000 C 
ENDROOT
BRANCH   1   2
ATOM      2  C   UNL     1      46.097   7.141  12.419  0.00  0.00    +0.000 A 
ATOM      3  C   UNL     1      44.856   6.726  12.923  0.00  0.00    +0.000 A 
ATOM      4  C   UNL     1      44.031   5.870  12.181  0.00  0.00    +0.000 A 
ATOM      5  C   UNL     1      44.432   5.391  10.927  0.00  0.00    +0.000 A 
ATOM      6  C   UNL     1      45.673   5.807  10.423  0.00  0.00    +0.000 A 
ATOM      7  C   UNL     1      46.494   6.670  11.160  0.00  0.00    +0.000 A 
BRANCH   5   8
ATOM      8  C   UNL     1      43.561   4.442  10.138  0.00  0.00    +0.000 C 
BRANCH   8   9
ATOM      9  O   UNL     1      44.205   4.134   8.909  0.00  0.00    +0.000 OA
BRANCH   9  10
ATOM     10  C   UNL     1      44.567   2.754   8.821  0.00  0.00    +0.000 C 
BRANCH  10  11
ATOM     11  C   UNL     1      45.797   2.611   7.964  0.00  0.00    +0.000 A 
ATOM     12  C   UNL     1      46.411   3.723   7.370  0.00  0.00    +0.000 A 
ATOM     13  C   UNL     1      47.580   3.578   6.621  0.00  0.00    +0.000 A 
ATOM     14  C   UNL     1      48.160   2.321   6.467  0.00  0.00    +0.000 A 
ATOM     15  C   UNL     1      47.565   1.206   7.056  0.00  0.00    +0.000 A 
ATOM     16  C   UNL     1      46.396   1.359   7.800  0.00  0.00    +0.000 A 
ATOM     17  F   UNL     1      45.846   0.274   8.365  0.00  0.00    +0.000 F 
ENDBRANCH  10  11
ENDBRANCH   9  10
ENDBRANCH   8   9
ENDBRANCH   5   8
ENDBRANCH   1   2
BRANCH   1  20
ATOM     18  C   UNL     1      48.700   6.842  14.563  0.00  0.00    +0.000 C 
ATOM     19  O   UNL     1      49.520   6.887  13.647  0.00  0.00    +0.000 OA
ATOM     20  N   UNL     1      47.455   7.391  14.435  0.00  0.00    +0.000 N 
ATOM     21  H   UNL     1      46.804   7.348  15.206  0.00  0.00    +0.000 HD
BRANCH  18  29
ATOM     22  C   UNL     1      47.316   4.184  16.256  0.00  0.00    +0.000 A 
ATOM     23  N   UNL     1      47.011   3.159  17.075  0.00  0.00    +0.000 NA
ATOM     24  C   UNL     1      47.763   2.984  18.165  0.00  0.00    +0.000 A 
ATOM     25  N   UNL     1      48.794   3.730  18.555  0.00  0.00    +0.000 NA
ATOM     26  C   UNL     1      49.068   4.734  17.704  0.00  0.00    +0.000 A 
ATOM     27  S   UNL     1      50.348   5.796  18.044  0.00  0.00    +0.000 S 
ATOM     28  C   UNL     1      50.069   6.673  16.615  0.00  0.00    +0.000 A 
ATOM     29  C   UNL     1      49.018   6.181  15.846  0.00  0.00    +0.000 A 
ATOM     30  C   UNL     1      48.403   5.035  16.519  0.00  0.00    +0.000 A 
BRANCH  22  32
ATOM     31  C   UNL     1      47.053   3.629  14.001  0.00  0.00    +0.000 C 
ATOM     32  O   UNL     1      46.552   4.349  15.121  0.00  0.00    +0.000 OA
ENDBRANCH  22  32
ENDBRANCH  18  29
ENDBRANCH   1  20
TORSDOF 8
ENDMDL
MODEL 2
REMARK VINA RESULT:    -8.018      1.835      2.237
REMARK INTER + INTRA:         -13.436
REMARK INTER:                 -12.064
REMARK INTRA:                  -1.372
REMARK UNBOUND:                -1.669
REMARK  Name = 
REMARK  9 active torsions:
REMARK  status: ('A' for Active; 'I' for Inactive)
REMARK    1  A    between atoms: C_1  and  O_2
REMARK    2  A    between atoms: O_2  and  C_3
REMARK    3  A    between atoms: C_10  and  C_11
REMARK    4  A    between atoms: N_13  and  C_14
REMARK    5  A    between atoms: C_14  and  C_15
REMARK    6  A    between atoms: C_18  and  C_19
REMARK    7  A    between atoms: C_19  and  O_20
REMARK    8  A    between atoms: O_20  and  C_21
REMARK    9  A    between atoms: C_21  and  C_22
REMARK                            x       y       z     vdW  Elec       q    Type
REMARK                         _______ _______ _______ _____ _____    ______ ____
ROOT
ATOM      1  C   UNL     1      48.155   7.437  13.496  0.00  0.00    +0.000 C 
ENDROOT
BRANCH   1   2
ATOM      2  C   UNL     1      47.118   6.519  12.889  0.00  0.00    +0.000 A 
ATOM      3  C   UNL     1      46.657   5.397  13.592  0.00  0.00    +0.000 A 
ATOM      4  C   UNL     1      45.713   4.531  13.023  0.00  0.00    +0.000 A 
ATOM      5  C   UNL     1      45.222   4.753  11.729  0.00  0.00    +0.000 A 
ATOM      6  C   UNL     1      45.683   5.875  11.026  0.00  0.00    +0.000 A 
ATOM      7  C   UNL     1      46.619   6.745  11.599  0.00  0.00    +0.000 A 
BRANCH   5   8
ATOM      8  C   UNL     1      44.229   3.805  11.099  0.00  0.00    +0.000 C 
BRANCH   8   9
ATOM      9  O   UNL     1      44.916   2.644  10.651  0.00  0.00    +0.000 OA
BRANCH   9  10
ATOM     10  C   UNL     1      44.463   2.211   9.366  0.00  0.00    +0.000 C 
BRANCH  10  11
ATOM     11  C   UNL     1      45.598   2.286   8.380  0.00  0.00    +0.000 A 
ATOM     12  C   UNL     1      46.361   1.156   8.051  0.00  0.00    +0.000 A 
ATOM     13  C   UNL     1      47.377   1.234   7.096  0.00  0.00    +0.000 A 
ATOM     14  C   UNL     1      47.635   2.440   6.447  0.00  0.00    +0.000 A 
ATOM     15  C   UNL     1      46.882   3.571   6.760  0.00  0.00    +0.000 A 
ATOM     16  C   UNL     1      45.872   3.485   7.716  0.00  0.00    +0.000 A 
ATOM     17  F   UNL     1      45.154   4.584   7.995  0.00  0.00    +0.000 F 
ENDBRANCH  10  11
ENDBRANCH   9  10
ENDBRANCH   8   9
ENDBRANCH   5   8
ENDBRANCH   1   2
BRANCH   1  20
ATOM     18  C   UNL     1      49.084   7.036  15.755  0.00  0.00    +0.000 C 
ATOM     19  O   UNL     1      50.152   6.631  15.298  0.00  0.00    +0.000 OA
ATOM     20  N   UNL     1      48.070   7.451  14.938  0.00  0.00    +0.000 N 
ATOM     21  H   UNL     1      47.206   7.787  15.339  0.00  0.00    +0.000 HD
BRANCH  18  29
ATOM     22  C   UNL     1      48.880   4.615  18.193  0.00  0.00    +0.000 A 
ATOM     23  N   UNL     1      48.817   3.889  19.326  0.00  0.00    +0.000 NA
ATOM     24  C   UNL     1      48.631   4.541  20.477  0.00  0.00    +0.000 A 
ATOM     25  N   UNL     1      48.484   5.852  20.639  0.00  0.00    +0.000 NA
ATOM     26  C   UNL     1      48.563   6.538  19.486  0.00  0.00    +0.000 A 
ATOM     27  S   UNL     1      48.389   8.226  19.500  0.00  0.00    +0.000 S 
ATOM     28  C   UNL     1      48.617   8.315  17.817  0.00  0.00    +0.000 A 
ATOM     29  C   UNL     1      48.840   7.082  17.211  0.00  0.00    +0.000 A 
ATOM     30  C   UNL     1      48.779   6.017  18.213  0.00  0.00    +0.000 A 
BRANCH  22  32
ATOM     31  C   UNL     1      47.925   3.293  16.518  0.00  0.00    +0.000 C 
ATOM     32  O   UNL     1      49.093   3.943  17.009  0.00  0.00    +0.000 OA
ENDBRANCH  22  32
ENDBRANCH  18  29
ENDBRANCH   1  20
TORSDOF 8
ENDMDL
MODEL 3
REMARK VINA RESULT:    -7.655      2.271      2.959
REMARK INTER + INTRA:         -12.904
REMARK INTER:                 -11.554
REMARK INTRA:                  -1.350
REMARK UNBOUND:                -1.669
REMARK  Name = 
REMARK  9 active torsions:
REMARK  status: ('A' for Active; 'I' for Inactive)
REMARK    1  A    between atoms: C_1  and  O_2
REMARK    2  A    between atoms: O_2  and  C_3
REMARK    3  A    between atoms: C_10  and  C_11
REMARK    4  A    between atoms: N_13  and  C_14
REMARK    5  A    between atoms: C_14  and  C_15
REMARK    6  A    between atoms: C_18  and  C_19
REMARK    7  A    between atoms: C_19  and  O_20
REMARK    8  A    between atoms: O_20  and  C_21
REMARK    9  A    between atoms: C_21  and  C_22
REMARK                            x       y       z     vdW  Elec       q    Type
REMARK                         _______ _______ _______ _____ _____    ______ ____
ROOT
ATOM      1  C   UNL     1      47.963   6.852  13.655  0.00  0.00    +0.000 C 
ENDROOT
BRANCH   1   2
ATOM      2  C   UNL     1      46.883   6.066  12.945  0.00  0.00    +0.000 A 
ATOM      3  C   UNL     1      46.385   6.492  11.706  0.00  0.00    +0.000 A 
ATOM      4  C   UNL     1      45.368   5.778  11.057  0.00  0.00    +0.000 A 
ATOM      5  C   UNL     1      44.810   4.632  11.638  0.00  0.00    +0.000 A 
ATOM      6  C   UNL     1      45.308   4.206  12.877  0.00  0.00    +0.000 A 
ATOM      7  C   UNL     1      46.331   4.913  13.522  0.00  0.00    +0.000 A 
BRANCH   5   8
ATOM      8  C   UNL     1      43.692   3.878  10.958  0.00  0.00    +0.000 C 
BRANCH   8   9
ATOM      9  O   UNL     1      44.072   3.596   9.617  0.00  0.00    +0.000 OA
BRANCH   9  10
ATOM     10  C   UNL     1      44.839   2.394   9.515  0.00  0.00    +0.000 C 
BRANCH  10  11
ATOM     11  C   UNL     1      45.757   2.483   8.325  0.00  0.00    +0.000 A 
ATOM     12  C   UNL     1      46.102   3.718   7.756  0.00  0.00    +0.000 A 
ATOM     13  C   UNL     1      46.996   3.785   6.685  0.00  0.00    +0.000 A 
ATOM     14  C   UNL     1      47.568   2.620   6.178  0.00  0.00    +0.000 A 
ATOM     15  C   UNL     1      47.240   1.385   6.737  0.00  0.00    +0.000 A 
ATOM     16  C   UNL     1      46.344   1.327   7.804  0.00  0.00    +0.000 A 
ATOM     17  F   UNL     1      46.049   0.130   8.332  0.00  0.00    +0.000 F 
ENDBRANCH  10  11
ENDBRANCH   9  10
ENDBRANCH   8   9
ENDBRANCH   5   8
ENDBRANCH   1   2
BRANCH   1  20
ATOM     18  C   UNL     1      48.987   6.478  15.877  0.00  0.00    +0.000 C 
ATOM     19  O   UNL     1      50.122   6.452  15.404  0.00  0.00    +0.000 OA
ATOM     20  N   UNL     1      47.889   6.675  15.086  0.00  0.00    +0.000 N 
ATOM     21  H   UNL     1      46.969   6.702  15.502  0.00  0.00    +0.000 HD
BRANCH  18  29
ATOM     22  C   UNL     1      47.803   8.535  18.370  0.00  0.00    +0.000 A 
ATOM     23  N   UNL     1      47.320   9.098  19.494  0.00  0.00    +0.000 NA
ATOM     24  C   UNL     1      47.278   8.349  20.600  0.00  0.00    +0.000 A 
ATOM     25  N   UNL     1      47.678   7.088  20.728  0.00  0.00    +0.000 NA
ATOM     26  C   UNL     1      48.142   6.563  19.581  0.00  0.00    +0.000 A 
ATOM     27  S   UNL     1      48.706   4.962  19.558  0.00  0.00    +0.000 S 
ATOM     28  C   UNL     1      49.061   5.057  17.897  0.00  0.00    +0.000 A 
ATOM     29  C   UNL     1      48.753   6.286  17.323  0.00  0.00    +0.000 A 
ATOM     30  C   UNL     1      48.229   7.195  18.344  0.00  0.00    +0.000 A 
BRANCH  22  32
ATOM     31  C   UNL     1      49.054  10.001  17.048  0.00  0.00    +0.000 C 
ATOM     32  O   UNL     1      47.827   9.302  17.225  0.00  0.00    +0.000 OA
ENDBRANCH  22  32
ENDBRANCH  18  29
ENDBRANCH   1  20
TORSDOF 8
ENDMDL
MODEL 4
REMARK VINA RESULT:    -7.466      1.549      1.782
REMARK INTER + INTRA:         -12.626
REMARK INTER:                 -11.306
REMARK INTRA:                  -1.320
REMARK UNBOUND:                -1.669
REMARK  Name = 
REMARK  9 active torsions:
REMARK  status: ('A' for Active; 'I' for Inactive)
REMARK    1  A    between atoms: C_1  and  O_2
REMARK    2  A    between atoms: O_2  and  C_3
REMARK    3  A    between atoms: C_10  and  C_11
REMARK    4  A    between atoms: N_13  and  C_14
REMARK    5  A    between atoms: C_14  and  C_15
REMARK    6  A    between atoms: C_18  and  C_19
REMARK    7  A    between atoms: C_19  and  O_20
REMARK    8  A    between atoms: O_20  and  C_21
REMARK    9  A    between atoms: C_21  and  C_22
REMARK                            x       y       z     vdW  Elec       q    Type
REMARK                         _______ _______ _______ _____ _____    ______ ____
ROOT
ATOM      1  C   UNL     1      47.630   7.566  13.701  0.00  0.00    +0.000 C 
ENDROOT
BRANCH   1   2
ATOM      2  C   UNL     1      46.729   6.566  13.011  0.00  0.00    +0.000 A 
ATOM      3  C   UNL     1      46.425   5.339  13.618  0.00  0.00    +0.000 A 
ATOM      4  C   UNL     1      45.609   4.401  12.970  0.00  0.00    +0.000 A 
ATOM      5  C   UNL     1      45.093   4.657  11.693  0.00  0.00    +0.000 A 
ATOM      6  C   UNL     1      45.397   5.884  11.086  0.00  0.00    +0.000 A 
ATOM      7  C   UNL     1      46.205   6.825  11.737  0.00  0.00    +0.000 A 
BRANCH   5   8
ATOM      8  C   UNL     1      44.240   3.636  10.977  0.00  0.00    +0.000 C 
BRANCH   8   9
ATOM      9  O   UNL     1      45.073   2.586  10.503  0.00  0.00    +0.000 OA
BRANCH   9  10
ATOM     10  C   UNL     1      44.651   2.098   9.227  0.00  0.00    +0.000 C 
BRANCH  10  11
ATOM     11  C   UNL     1      45.749   2.312   8.219  0.00  0.00    +0.000 A 
ATOM     12  C   UNL     1      46.075   3.593   7.749  0.00  0.00    +0.000 A 
ATOM     13  C   UNL     1      47.130   3.778   6.853  0.00  0.00    +0.000 A 
ATOM     14  C   UNL     1      47.884   2.686   6.426  0.00  0.00    +0.000 A 
ATOM     15  C   UNL     1      47.576   1.407   6.889  0.00  0.00    +0.000 A 
ATOM     16  C   UNL     1      46.519   1.232   7.780  0.00  0.00    +0.000 A 
ATOM     17  F   UNL     1      46.246  -0.007   8.218  0.00  0.00    +0.000 F 
ENDBRANCH  10  11
ENDBRANCH   9  10
ENDBRANCH   8   9
ENDBRANCH   5   8
ENDBRANCH   1   2
BRANCH   1  20
ATOM     18  C   UNL     1      49.049   7.374  15.720  0.00  0.00    +0.000 C 
ATOM     19  O   UNL     1      48.574   8.397  16.212  0.00  0.00    +0.000 OA
ATOM     20  N   UNL     1      48.633   6.906  14.505  0.00  0.00    +0.000 N 
ATOM     21  H   UNL     1      49.033   6.058  14.128  0.00  0.00    +0.000 HD
BRANCH  18  29
ATOM     22  C   UNL     1      49.317   4.085  16.699  0.00  0.00    +0.000 A 
ATOM     23  N   UNL     1      49.696   2.863  17.122  0.00  0.00    +0.000 NA
ATOM     24  C   UNL     1      50.912   2.738  17.662  0.00  0.00    +0.000 A 
ATOM     25  N   UNL     1      51.808   3.702  17.849  0.00  0.00    +0.000 NA
ATOM     26  C   UNL     1      51.393   4.901  17.403  0.00  0.00    +0.000 A 
ATOM     27  S   UNL     1      52.405   6.253  17.567  0.00  0.00    +0.000 S 
ATOM     28  C   UNL     1      51.263   7.264  16.815  0.00  0.00    +0.000 A 
ATOM     29  C   UNL     1      50.103   6.606  16.415  0.00  0.00    +0.000 A 
ATOM     30  C   UNL     1      50.175   5.194  16.796  0.00  0.00    +0.000 A 
BRANCH  22  32
ATOM     31  C   UNL     1      47.013   4.190  17.075  0.00  0.00    +0.000 C 
ATOM     32  O   UNL     1      48.071   4.208  16.123  0.00  0.00    +0.000 OA
ENDBRANCH  22  32
ENDBRANCH  18  29
ENDBRANCH   1  20
TORSDOF 8
ENDMDL
MODEL 5
REMARK VINA RESULT:    -7.408      2.486      3.626
REMARK INTER + INTRA:         -12.541
REMARK INTER:                 -11.312
REMARK INTRA:                  -1.229
REMARK UNBOUND:                -1.669
REMARK  Name = 
REMARK  9 active torsions:
REMARK  status: ('A' for Active; 'I' for Inactive)
REMARK    1  A    between atoms: C_1  and  O_2
REMARK    2  A    between atoms: O_2  and  C_3
REMARK    3  A    between atoms: C_10  and  C_11
REMARK    4  A    between atoms: N_13  and  C_14
REMARK    5  A    between atoms: C_14  and  C_15
REMARK    6  A    between atoms: C_18  and  C_19
REMARK    7  A    between atoms: C_19  and  O_20
REMARK    8  A    between atoms: O_20  and  C_21
REMARK    9  A    between atoms: C_21  and  C_22
REMARK                            x       y       z     vdW  Elec       q    Type
REMARK                         _______ _______ _______ _____ _____    ______ ____
ROOT
ATOM      1  C   UNL     1      47.520   3.879  15.405  0.00  0.00    +0.000 C 
ENDROOT
BRANCH   1   2
ATOM      2  C   UNL     1      46.862   4.391  14.143  0.00  0.00    +0.000 A 
ATOM      3  C   UNL     1      46.110   3.533  13.329  0.00  0.00    +0.000 A 
ATOM      4  C   UNL     1      45.518   3.999  12.147  0.00  0.00    +0.000 A 
ATOM      5  C   UNL     1      45.681   5.329  11.738  0.00  0.00    +0.000 A 
ATOM      6  C   UNL     1      46.433   6.188  12.552  0.00  0.00    +0.000 A 
ATOM      7  C   UNL     1      47.016   5.724  13.738  0.00  0.00    +0.000 A 
BRANCH   5   8
ATOM      8  C   UNL     1      45.073   5.829  10.449  0.00  0.00    +0.000 C 
BRANCH   8   9
ATOM      9  O   UNL     1      45.756   5.234   9.353  0.00  0.00    +0.000 OA
BRANCH   9  10
ATOM     10  C   UNL     1      44.908   4.367   8.595  0.00  0.00    +0.000 C 
BRANCH  10  11
ATOM     11  C   UNL     1      45.738   3.280   7.964  0.00  0.00    +0.000 A 
ATOM     12  C   UNL     1      46.610   3.547   6.899  0.00  0.00    +0.000 A 
ATOM     13  C   UNL     1      47.409   2.536   6.360  0.00  0.00    +0.000 A 
ATOM     14  C   UNL     1      47.358   1.248   6.888  0.00  0.00    +0.000 A 
ATOM     15  C   UNL     1      46.500   0.968   7.951  0.00  0.00    +0.000 A 
ATOM     16  C   UNL     1      45.703   1.982   8.481  0.00  0.00    +0.000 A 
ATOM     17  F   UNL     1      44.891   1.692   9.508  0.00  0.00    +0.000 F 
ENDBRANCH  10  11
ENDBRANCH   9  10
ENDBRANCH   8   9
ENDBRANCH   5   8
ENDBRANCH   1   2
BRANCH   1  20
ATOM     18  C   UNL     1      48.494   5.457  17.044  0.00  0.00    +0.000 C 
ATOM     19  O   UNL     1      49.638   5.240  16.649  0.00  0.00    +0.000 OA
ATOM     20  N   UNL     1      47.414   4.836  16.481  0.00  0.00    +0.000 N 
ATOM     21  H   UNL     1      46.484   5.040  16.819  0.00  0.00    +0.000 HD
BRANCH  18  29
ATOM     22  C   UNL     1      48.190   8.881  17.227  0.00  0.00    +0.000 A 
ATOM     23  N   UNL     1      47.967  10.167  17.558  0.00  0.00    +0.000 NA
ATOM     24  C   UNL     1      47.672  10.444  18.832  0.00  0.00    +0.000 A 
ATOM     25  N   UNL     1      47.584   9.579  19.838  0.00  0.00    +0.000 NA
ATOM     26  C   UNL     1      47.804   8.307  19.461  0.00  0.00    +0.000 A 
ATOM     27  S   UNL     1      47.741   7.066  20.618  0.00  0.00    +0.000 S 
ATOM     28  C   UNL     1      48.077   5.884  19.443  0.00  0.00    +0.000 A 
ATOM     29  C   UNL     1      48.231   6.393  18.157  0.00  0.00    +0.000 A 
ATOM     30  C   UNL     1      48.094   7.851  18.179  0.00  0.00    +0.000 A 
BRANCH  22  32
ATOM     31  C   UNL     1      49.850   8.758  15.586  0.00  0.00    +0.000 C 
ATOM     32  O   UNL     1      48.473   8.596  15.909  0.00  0.00    +0.000 OA
ENDBRANCH  22  32
ENDBRANCH  18  29
ENDBRANCH   1  20
TORSDOF 8
ENDMDL
MODEL 6
REMARK VINA RESULT:    -7.176      2.170      3.770
REMARK INTER + INTRA:         -12.200
REMARK INTER:                 -10.723
REMARK INTRA:                  -1.477
REMARK UNBOUND:                -1.669
REMARK  Name = 
REMARK  9 active torsions:
REMARK  status: ('A' for Active; 'I' for Inactive)
REMARK    1  A    between atoms: C_1  and  O_2
REMARK    2  A    between atoms: O_2  and  C_3
REMARK    3  A    between atoms: C_10  and  C_11
REMARK    4  A    between atoms: N_13  and  C_14
REMARK    5  A    between atoms: C_14  and  C_15
REMARK    6  A    between atoms: C_18  and  C_19
REMARK    7  A    between atoms: C_19  and  O_20
REMARK    8  A    between atoms: O_20  and  C_21
REMARK    9  A    between atoms: C_21  and  C_22
REMARK                            x       y       z     vdW  Elec       q    Type
REMARK                         _______ _______ _______ _____ _____    ______ ____
ROOT
ATOM      1  C   UNL     1      47.325   4.311  14.958  0.00  0.00    +0.000 C 
ENDROOT
BRANCH   1   2
ATOM      2  C   UNL     1      46.424   4.427  13.749  0.00  0.00    +0.000 A 
ATOM      3  C   UNL     1      45.952   5.677  13.326  0.00  0.00    +0.000 A 
ATOM      4  C   UNL     1      45.099   5.785  12.219  0.00  0.00    +0.000 A 
ATOM      5  C   UNL     1      44.680   4.645  11.520  0.00  0.00    +0.000 A 
ATOM      6  C   UNL     1      45.152   3.395  11.943  0.00  0.00    +0.000 A 
ATOM      7  C   UNL     1      46.012   3.288  13.043  0.00  0.00    +0.000 A 
BRANCH   5   8
ATOM      8  C   UNL     1      43.735   4.754  10.346  0.00  0.00    +0.000 C 
BRANCH   8   9
ATOM      9  O   UNL     1      43.970   3.667   9.460  0.00  0.00    +0.000 OA
BRANCH   9  10
ATOM     10  C   UNL     1      44.693   4.069   8.294  0.00  0.00    +0.000 C 
BRANCH  10  11
ATOM     11  C   UNL     1      45.673   2.990   7.915  0.00  0.00    +0.000 A 
ATOM     12  C   UNL     1      45.593   1.701   8.461  0.00  0.00    +0.000 A 
ATOM     13  C   UNL     1      46.479   0.699   8.059  0.00  0.00    +0.000 A 
ATOM     14  C   UNL     1      47.448   0.969   7.095  0.00  0.00    +0.000 A 
ATOM     15  C   UNL     1      47.537   2.244   6.539  0.00  0.00    +0.000 A 
ATOM     16  C   UNL     1      46.651   3.239   6.948  0.00  0.00    +0.000 A 
ATOM     17  F   UNL     1      46.750   4.457   6.394  0.00  0.00    +0.000 F 
ENDBRANCH  10  11
ENDBRANCH   9  10
ENDBRANCH   8   9
ENDBRANCH   5   8
ENDBRANCH   1   2
BRANCH   1  20
ATOM     18  C   UNL     1      48.708   5.799  16.372  0.00  0.00    +0.000 C 
ATOM     19  O   UNL     1      49.352   4.854  16.824  0.00  0.00    +0.000 OA
ATOM     20  N   UNL     1      47.711   5.611  15.455  0.00  0.00    +0.000 N 
ATOM     21  H   UNL     1      47.204   6.406  15.093  0.00  0.00    +0.000 HD
BRANCH  18  29
ATOM     22  C   UNL     1      48.884   8.804  14.702  0.00  0.00    +0.000 A 
ATOM     23  N   UNL     1      48.944  10.092  14.311  0.00  0.00    +0.000 NA
ATOM     24  C   UNL     1      49.162  11.021  15.246  0.00  0.00    +0.000 A 
ATOM     25  N   UNL     1      49.345  10.818  16.548  0.00  0.00    +0.000 NA
ATOM     26  C   UNL     1      49.266   9.521  16.895  0.00  0.00    +0.000 A 
ATOM     27  S   UNL     1      49.483   9.073  18.518  0.00  0.00    +0.000 S 
ATOM     28  C   UNL     1      49.235   7.432  18.151  0.00  0.00    +0.000 A 
ATOM     29  C   UNL     1      48.973   7.186  16.807  0.00  0.00    +0.000 A 
ATOM     30  C   UNL     1      49.021   8.440  16.054  0.00  0.00    +0.000 A 
BRANCH  22  32
ATOM     31  C   UNL     1      49.683   7.746  12.777  0.00  0.00    +0.000 C 
ATOM     32  O   UNL     1      48.639   7.850  13.739  0.00  0.00    +0.000 OA
ENDBRANCH  22  32
ENDBRANCH  18  29
ENDBRANCH   1  20
TORSDOF 8
ENDMDL
MODEL 7
REMARK VINA RESULT:    -7.134      2.138      2.726
REMARK INTER + INTRA:         -12.140
REMARK INTER:                 -10.946
REMARK INTRA:                  -1.194
REMARK UNBOUND:                -1.669
REMARK  Name = 
REMARK  9 active torsions:
REMARK  status: ('A' for Active; 'I' for Inactive)
REMARK    1  A    between atoms: C_1  and  O_2
REMARK    2  A    between atoms: O_2  and  C_3
REMARK    3  A    between atoms: C_10  and  C_11
REMARK    4  A    between atoms: N_13  and  C_14
REMARK    5  A    between atoms: C_14  and  C_15
REMARK    6  A    between atoms: C_18  and  C_19
REMARK    7  A    between atoms: C_19  and  O_20
REMARK    8  A    between atoms: O_20  and  C_21
REMARK    9  A    between atoms: C_21  and  C_22
REMARK                            x       y       z     vdW  Elec       q    Type
REMARK                         _______ _______ _______ _____ _____    ______ ____
ROOT
ATOM      1  C   UNL     1      47.577   7.610  13.760  0.00  0.00    +0.000 C 
ENDROOT
BRANCH   1   2
ATOM      2  C   UNL     1      46.661   6.647  13.038  0.00  0.00    +0.000 A 
ATOM      3  C   UNL     1      46.184   5.496  13.680  0.00  0.00    +0.000 A 
ATOM      4  C   UNL     1      45.354   4.590  13.006  0.00  0.00    +0.000 A 
ATOM      5  C   UNL     1      44.996   4.801  11.668  0.00  0.00    +0.000 A 
ATOM      6  C   UNL     1      45.472   5.952  11.026  0.00  0.00    +0.000 A 
ATOM      7  C   UNL     1      46.294   6.863  11.702  0.00  0.00    +0.000 A 
BRANCH   5   8
ATOM      8  C   UNL     1      44.128   3.811  10.927  0.00  0.00    +0.000 C 
BRANCH   8   9
ATOM      9  O   UNL     1      44.922   2.698  10.538  0.00  0.00    +0.000 OA
BRANCH   9  10
ATOM     10  C   UNL     1      44.524   2.167   9.271  0.00  0.00    +0.000 C 
BRANCH  10  11
ATOM     11  C   UNL     1      45.677   2.252   8.307  0.00  0.00    +0.000 A 
ATOM     12  C   UNL     1      46.429   1.120   7.960  0.00  0.00    +0.000 A 
ATOM     13  C   UNL     1      47.462   1.208   7.025  0.00  0.00    +0.000 A 
ATOM     14  C   UNL     1      47.749   2.427   6.413  0.00  0.00    +0.000 A 
ATOM     15  C   UNL     1      47.007   3.560   6.742  0.00  0.00    +0.000 A 
ATOM     16  C   UNL     1      45.980   3.464   7.679  0.00  0.00    +0.000 A 
ATOM     17  F   UNL     1      45.273   4.565   7.975  0.00  0.00    +0.000 F 
ENDBRANCH  10  11
ENDBRANCH   9  10
ENDBRANCH   8   9
ENDBRANCH   5   8
ENDBRANCH   1   2
BRANCH   1  20
ATOM     18  C   UNL     1      48.811   7.612  15.906  0.00  0.00    +0.000 C 
ATOM     19  O   UNL     1      48.659   8.824  16.049  0.00  0.00    +0.000 OA
ATOM     20  N   UNL     1      48.305   6.953  14.820  0.00  0.00    +0.000 N 
ATOM     21  H   UNL     1      48.436   5.955  14.731  0.00  0.00    +0.000 HD
BRANCH  18  29
ATOM     22  C   UNL     1      48.232   6.789  19.197  0.00  0.00    +0.000 A 
ATOM     23  N   UNL     1      48.215   6.279  20.444  0.00  0.00    +0.000 NA
ATOM     24  C   UNL     1      49.220   5.475  20.805  0.00  0.00    +0.000 A 
ATOM     25  N   UNL     1      50.267   5.123  20.065  0.00  0.00    +0.000 NA
ATOM     26  C   UNL     1      50.239   5.646  18.827  0.00  0.00    +0.000 A 
ATOM     27  S   UNL     1      51.502   5.310  17.745  0.00  0.00    +0.000 S 
ATOM     28  C   UNL     1      50.770   6.237  16.522  0.00  0.00    +0.000 A 
ATOM     29  C   UNL     1      49.557   6.809  16.896  0.00  0.00    +0.000 A 
ATOM     30  C   UNL     1      49.258   6.474  18.289  0.00  0.00    +0.000 A 
BRANCH  22  32
ATOM     31  C   UNL     1      47.314   8.937  19.294  0.00  0.00    +0.000 C 
ATOM     32  O   UNL     1      47.185   7.601  18.820  0.00  0.00    +0.000 OA
ENDBRANCH  22  32
ENDBRANCH  18  29
ENDBRANCH   1  20
TORSDOF 8
ENDMDL
MODEL 8
REMARK VINA RESULT:    -7.103      2.616      3.519
REMARK INTER + INTRA:         -12.093
REMARK INTER:                 -10.835
REMARK INTRA:                  -1.258
REMARK UNBOUND:                -1.669
REMARK  Name = 
REMARK  9 active torsions:
REMARK  status: ('A' for Active; 'I' for Inactive)
REMARK    1  A    between atoms: C_1  and  O_2
REMARK    2  A    between atoms: O_2  and  C_3
REMARK    3  A    between atoms: C_10  and  C_11
REMARK    4  A    between atoms: N_13  and  C_14
REMARK    5  A    between atoms: C_14  and  C_15
REMARK    6  A    between atoms: C_18  and  C_19
REMARK    7  A    between atoms: C_19  and  O_20
REMARK    8  A    between atoms: O_20  and  C_21
REMARK    9  A    between atoms: C_21  and  C_22
REMARK                            x       y       z     vdW  Elec       q    Type
REMARK                         _______ _______ _______ _____ _____    ______ ____
ROOT
ATOM      1  C   UNL     1      47.551   4.461  15.785  0.00  0.00    +0.000 C 
ENDROOT
BRANCH   1   2
ATOM      2  C   UNL     1      46.953   4.693  14.415  0.00  0.00    +0.000 A 
ATOM      3  C   UNL     1      46.221   3.685  13.773  0.00  0.00    +0.000 A 
ATOM      4  C   UNL     1      45.686   3.890  12.494  0.00  0.00    +0.000 A 
ATOM      5  C   UNL     1      45.886   5.100  11.816  0.00  0.00    +0.000 A 
ATOM      6  C   UNL     1      46.618   6.108  12.458  0.00  0.00    +0.000 A 
ATOM      7  C   UNL     1      47.145   5.907  13.740  0.00  0.00    +0.000 A 
BRANCH   5   8
ATOM      8  C   UNL     1      45.339   5.314  10.424  0.00  0.00    +0.000 C 
BRANCH   8   9
ATOM      9  O   UNL     1      44.695   4.123   9.991  0.00  0.00    +0.000 OA
BRANCH   9  10
ATOM     10  C   UNL     1      44.568   4.065   8.568  0.00  0.00    +0.000 C 
BRANCH  10  11
ATOM     11  C   UNL     1      45.603   3.125   8.010  0.00  0.00    +0.000 A 
ATOM     12  C   UNL     1      46.649   3.585   7.195  0.00  0.00    +0.000 A 
ATOM     13  C   UNL     1      47.629   2.706   6.729  0.00  0.00    +0.000 A 
ATOM     14  C   UNL     1      47.586   1.359   7.082  0.00  0.00    +0.000 A 
ATOM     15  C   UNL     1      46.556   0.888   7.895  0.00  0.00    +0.000 A 
ATOM     16  C   UNL     1      45.580   1.771   8.354  0.00  0.00    +0.000 A 
ATOM     17  F   UNL     1      44.603   1.297   9.142  0.00  0.00    +0.000 F 
ENDBRANCH  10  11
ENDBRANCH   9  10
ENDBRANCH   8   9
ENDBRANCH   5   8
ENDBRANCH   1   2
BRANCH   1  20
ATOM     18  C   UNL     1      49.403   5.720  16.840  0.00  0.00    +0.000 C 
ATOM     19  O   UNL     1      50.123   4.724  16.878  0.00  0.00    +0.000 OA
ATOM     20  N   UNL     1      48.141   5.668  16.315  0.00  0.00    +0.000 N 
ATOM     21  H   UNL     1      47.573   6.503  16.287  0.00  0.00    +0.000 HD
BRANCH  18  29
ATOM     22  C   UNL     1      48.130   7.894  19.185  0.00  0.00    +0.000 A 
ATOM     23  N   UNL     1      47.889   8.866  20.086  0.00  0.00    +0.000 NA
ATOM     24  C   UNL     1      48.776   9.860  20.186  0.00  0.00    +0.000 A 
ATOM     25  N   UNL     1      49.887  10.015  19.473  0.00  0.00    +0.000 NA
ATOM     26  C   UNL     1      50.093   9.019  18.594  0.00  0.00    +0.000 A 
ATOM     27  S   UNL     1      51.461   9.055  17.590  0.00  0.00    +0.000 S 
ATOM     28  C   UNL     1      51.032   7.578  16.866  0.00  0.00    +0.000 A 
ATOM     29  C   UNL     1      49.861   7.021  17.369  0.00  0.00    +0.000 A 
ATOM     30  C   UNL     1      49.286   7.904  18.386  0.00  0.00    +0.000 A 
BRANCH  22  32
ATOM     31  C   UNL     1      47.483   5.813  20.029  0.00  0.00    +0.000 C 
ATOM     32  O   UNL     1      47.225   6.858  19.098  0.00  0.00    +0.000 OA
ENDBRANCH  22  32
ENDBRANCH  18  29
ENDBRANCH   1  20
TORSDOF 8
ENDMDL
MODEL 9
REMARK VINA RESULT:    -6.662      3.296      5.742
REMARK INTER + INTRA:         -11.447
REMARK INTER:                  -9.787
REMARK INTRA:                  -1.660
REMARK UNBOUND:                -1.669
REMARK  Name = 
REMARK  9 active torsions:
REMARK  status: ('A' for Active; 'I' for Inactive)
REMARK    1  A    between atoms: C_1  and  O_2
REMARK    2  A    between atoms: O_2  and  C_3
REMARK    3  A    between atoms: C_10  and  C_11
REMARK    4  A    between atoms: N_13  and  C_14
REMARK    5  A    between atoms: C_14  and  C_15
REMARK    6  A    between atoms: C_18  and  C_19
REMARK    7  A    between atoms: C_19  and  O_20
REMARK    8  A    between atoms: O_20  and  C_21
REMARK    9  A    between atoms: C_21  and  C_22
REMARK                            x       y       z     vdW  Elec       q    Type
REMARK                         _______ _______ _______ _____ _____    ______ ____
ROOT
ATOM      1  C   UNL     1      48.008   3.488  17.557  0.00  0.00    +0.000 C 
ENDROOT
BRANCH   1   2
ATOM      2  C   UNL     1      47.826   4.376  16.347  0.00  0.00    +0.000 A 
ATOM      3  C   UNL     1      47.069   3.944  15.249  0.00  0.00    +0.000 A 
ATOM      4  C   UNL     1      46.918   4.756  14.117  0.00  0.00    +0.000 A 
ATOM      5  C   UNL     1      47.536   6.011  14.044  0.00  0.00    +0.000 A 
ATOM      6  C   UNL     1      48.294   6.443  15.142  0.00  0.00    +0.000 A 
ATOM      7  C   UNL     1      48.437   5.636  16.277  0.00  0.00    +0.000 A 
BRANCH   5   8
ATOM      8  C   UNL     1      47.403   6.876  12.813  0.00  0.00    +0.000 C 
BRANCH   8   9
ATOM      9  O   UNL     1      46.160   7.564  12.862  0.00  0.00    +0.000 OA
BRANCH   9  10
ATOM     10  C   UNL     1      45.408   7.406  11.656  0.00  0.00    +0.000 C 
BRANCH  10  11
ATOM     11  C   UNL     1      44.697   6.079  11.677  0.00  0.00    +0.000 A 
ATOM     12  C   UNL     1      43.799   5.744  12.700  0.00  0.00    +0.000 A 
ATOM     13  C   UNL     1      43.109   4.530  12.675  0.00  0.00    +0.000 A 
ATOM     14  C   UNL     1      43.298   3.640  11.620  0.00  0.00    +0.000 A 
ATOM     15  C   UNL     1      44.184   3.961  10.592  0.00  0.00    +0.000 A 
ATOM     16  C   UNL     1      44.870   5.174  10.626  0.00  0.00    +0.000 A 
ATOM     17  F   UNL     1      45.711   5.466   9.622  0.00  0.00    +0.000 F 
ENDBRANCH  10  11
ENDBRANCH   9  10
ENDBRANCH   8   9
ENDBRANCH   5   8
ENDBRANCH   1   2
BRANCH   1  20
ATOM     18  C   UNL     1      50.133   2.307  17.089  0.00  0.00    +0.000 C 
ATOM     19  O   UNL     1      49.632   1.669  16.165  0.00  0.00    +0.000 OA
ATOM     20  N   UNL     1      49.404   3.215  17.807  0.00  0.00    +0.000 N 
ATOM     21  H   UNL     1      49.842   3.732  18.555  0.00  0.00    +0.000 HD
BRANCH  18  29
ATOM     22  C   UNL     1      52.725   4.483  17.714  0.00  0.00    +0.000 A 
ATOM     23  N   UNL     1      53.867   5.104  18.067  0.00  0.00    +0.000 NA
ATOM     24  C   UNL     1      54.904   4.346  18.433  0.00  0.00    +0.000 A 
ATOM     25  N   UNL     1      54.948   3.018  18.477  0.00  0.00    +0.000 NA
ATOM     26  C   UNL     1      53.786   2.440  18.128  0.00  0.00    +0.000 A 
ATOM     27  S   UNL     1      53.659   0.748  18.118  0.00  0.00    +0.000 S 
ATOM     28  C   UNL     1      52.031   0.821  17.632  0.00  0.00    +0.000 A 
ATOM     29  C   UNL     1      51.545   2.116  17.478  0.00  0.00    +0.000 A 
ATOM     30  C   UNL     1      52.610   3.082  17.749  0.00  0.00    +0.000 A 
BRANCH  22  32
ATOM     31  C   UNL     1      52.031   6.471  16.700  0.00  0.00    +0.000 C 
ATOM     32  O   UNL     1      51.650   5.268  17.358  0.00  0.00    +0.000 OA
ENDBRANCH  22  32
ENDBRANCH  18  29
ENDBRANCH   1  20
TORSDOF 8
ENDMDL
