MODEL 1
REMARK VINA RESULT:    -8.403      0.000      0.000
REMARK INTER + INTRA:         -13.082
REMARK INTER:                 -11.841
REMARK INTRA:                  -1.241
REMARK UNBOUND:                -1.241
REMARK  Name = 
REMARK  7 active torsions:
REMARK  status: ('A' for Active; 'I' for Inactive)
REMARK    1  A    between atoms: C_2  and  C_20
REMARK    2  A    between atoms: N_3  and  C_4
REMARK    3  A    between atoms: C_4  and  C_5
REMARK    4  A    between atoms: C_8  and  C_9
REMARK    5  A    between atoms: C_9  and  O_10
REMARK    6  A    between atoms: O_10  and  C_11
REMARK    7  A    between atoms: C_11  and  C_12
REMARK                            x       y       z     vdW  Elec       q    Type
REMARK                         _______ _______ _______ _____ _____    ______ ____
ROOT
ATOM      1  C   UNL     1      47.154   7.404  13.163  0.00  0.00    +0.000 C 
ENDROOT
BRANCH   1   2
ATOM      2  C   UNL     1      46.335   6.341  12.465  0.00  0.00    +0.000 A 
ATOM      3  C   UNL     1      46.208   6.338  11.077  0.00  0.00    +0.000 A 
ATOM      4  C   UNL     1      45.403   5.370  10.471  0.00  0.00    +0.000 A 
ATOM      5  C   UNL     1      44.736   4.427  11.254  0.00  0.00    +0.000 A 
ATOM      6  C   UNL     1      44.932   4.501  12.629  0.00  0.00    +0.000 A 
ATOM      7  N   UNL     1      45.720   5.416  13.243  0.00  0.00    +0.000 NA
BRANCH   5   8
ATOM      8  C   UNL     1      43.847   3.371  10.662  0.00  0.00    +0.000 C 
BRANCH   8   9
ATOM      9  O   UNL     1      44.249   3.143   9.317  0.00  0.00    +0.000 OA
BRANCH   9  10
ATOM     10  C   UNL     1      45.076   1.989   9.172  0.00  0.00    +0.000 C 
BRANCH  10  11
ATOM     11  C   UNL     1      46.006   2.157   8.000  0.00  0.00    +0.000 A 
ATOM     12  C   UNL     1      46.032   3.311   7.210  0.00  0.00    +0.000 A 
ATOM     13  C   UNL     1      46.917   3.406   6.140  0.00  0.00    +0.000 A 
ATOM     14  C   UNL     1      47.757   2.335   5.891  0.00  0.00    +0.000 A 
ATOM     15  N   UNL     1      47.766   1.201   6.626  0.00  0.00    +0.000 NA
ATOM     16  C   UNL     1      46.893   1.140   7.658  0.00  0.00    +0.000 A 
ENDBRANCH  10  11
ENDBRANCH   9  10
ENDBRANCH   8   9
ENDBRANCH   5   8
ENDBRANCH   1   2
BRANCH   1  19
ATOM     17  O   UNL     1      49.758   6.957  14.021  0.00  0.00    +0.000 OA
ATOM     18  C   UNL     1      48.850   6.905  14.851  0.00  0.00    +0.000 C 
ATOM     19  N   UNL     1      47.527   7.050  14.510  0.00  0.00    +0.000 N 
ATOM     20  H   UNL     1      46.875   7.344  15.231  0.00  0.00    +0.000 HD
BRANCH  18  21
ATOM     21  C   UNL     1      49.119   6.638  16.261  0.00  0.00    +0.000 A 
ATOM     22  C   UNL     1      49.747   7.570  17.077  0.00  0.00    +0.000 A 
ATOM     23  S   UNL     1      49.963   7.020  18.684  0.00  0.00    +0.000 S 
ATOM     24  C   UNL     1      49.194   5.543  18.340  0.00  0.00    +0.000 A 
ATOM     25  N   UNL     1      49.026   4.587  19.295  0.00  0.00    +0.000 NA
ATOM     26  C   UNL     1      48.402   3.531  18.889  0.00  0.00    +0.000 A 
ATOM     27  N   UNL     1      47.933   3.334  17.620  0.00  0.00    +0.000 N 
ATOM     28  C   UNL     1      48.131   4.240  16.612  0.00  0.00    +0.000 A 
ATOM     29  O   UNL     1      47.796   3.973  15.467  0.00  0.00    +0.000 OA
ATOM     30  C   UNL     1      48.799   5.457  17.021  0.00  0.00    +0.000 A 
ATOM     31  H   UNL     1      47.482   2.476  17.347  0.00  0.00    +0.000 HD
ENDBRANCH  18  21
ENDBRANCH   1  19
TORSDOF 7
ENDMDL
MODEL 2
REMARK VINA RESULT:    -7.869      1.929      3.164
REMARK INTER + INTRA:         -12.330
REMARK INTER:                 -11.205
REMARK INTRA:                  -1.126
REMARK UNBOUND:                -1.241
REMARK  Name = 
REMARK  7 active torsions:
REMARK  status: ('A' for Active; 'I' for Inactive)
REMARK    1  A    between atoms: C_2  and  C_20
REMARK    2  A    between atoms: N_3  and  C_4
REMARK    3  A    between atoms: C_4  and  C_5
REMARK    4  A    between atoms: C_8  and  C_9
REMARK    5  A    between atoms: C_9  and  O_10
REMARK    6  A    between atoms: O_10  and  C_11
REMARK    7  A    between atoms: C_11  and  C_12
REMARK                            x       y       z     vdW  Elec       q    Type
REMARK                         _______ _______ _______ _____ _____    ______ ____
ROOT
ATOM      1  C   UNL     1      47.449   4.082  15.091  0.00  0.00    +0.000 C 
ENDROOT
BRANCH   1   2
ATOM      2  C   UNL     1      46.524   4.290  13.912  0.00  0.00    +0.000 A 
ATOM      3  C   UNL     1      46.104   5.569  13.554  0.00  0.00    +0.000 A 
ATOM      4  C   UNL     1      45.210   5.718  12.491  0.00  0.00    +0.000 A 
ATOM      5  C   UNL     1      44.746   4.593  11.806  0.00  0.00    +0.000 A 
ATOM      6  C   UNL     1      45.228   3.359  12.227  0.00  0.00    +0.000 A 
ATOM      7  N   UNL     1      46.109   3.185  13.243  0.00  0.00    +0.000 NA
BRANCH   5   8
ATOM      8  C   UNL     1      43.775   4.688  10.664  0.00  0.00    +0.000 C 
BRANCH   8   9
ATOM      9  O   UNL     1      44.033   3.621   9.760  0.00  0.00    +0.000 OA
BRANCH   9  10
ATOM     10  C   UNL     1      44.567   4.065   8.513  0.00  0.00    +0.000 C 
BRANCH  10  11
ATOM     11  C   UNL     1      45.594   3.088   8.008  0.00  0.00    +0.000 A 
ATOM     12  C   UNL     1      46.572   3.430   7.068  0.00  0.00    +0.000 A 
ATOM     13  C   UNL     1      47.495   2.480   6.642  0.00  0.00    +0.000 A 
ATOM     14  C   UNL     1      47.411   1.205   7.172  0.00  0.00    +0.000 A 
ATOM     15  N   UNL     1      46.483   0.829   8.079  0.00  0.00    +0.000 NA
ATOM     16  C   UNL     1      45.600   1.775   8.473  0.00  0.00    +0.000 A 
ENDBRANCH  10  11
ENDBRANCH   9  10
ENDBRANCH   8   9
ENDBRANCH   5   8
ENDBRANCH   1   2
BRANCH   1  19
ATOM     17  O   UNL     1      49.651   4.761  16.641  0.00  0.00    +0.000 OA
ATOM     18  C   UNL     1      48.668   5.501  16.663  0.00  0.00    +0.000 C 
ATOM     19  N   UNL     1      47.511   5.216  15.980  0.00  0.00    +0.000 N 
ATOM     20  H   UNL     1      46.889   5.983  15.746  0.00  0.00    +0.000 HD
BRANCH  18  21
ATOM     21  C   UNL     1      48.649   6.724  17.463  0.00  0.00    +0.000 A 
ATOM     22  C   UNL     1      48.682   6.692  18.850  0.00  0.00    +0.000 A 
ATOM     23  S   UNL     1      48.637   8.249  19.560  0.00  0.00    +0.000 S 
ATOM     24  C   UNL     1      48.609   9.003  18.036  0.00  0.00    +0.000 A 
ATOM     25  N   UNL     1      48.577  10.358  17.911  0.00  0.00    +0.000 NA
ATOM     26  C   UNL     1      48.584  10.782  16.691  0.00  0.00    +0.000 A 
ATOM     27  N   UNL     1      48.615   9.984  15.582  0.00  0.00    +0.000 N 
ATOM     28  C   UNL     1      48.587   8.616  15.656  0.00  0.00    +0.000 A 
ATOM     29  O   UNL     1      48.500   7.943  14.639  0.00  0.00    +0.000 OA
ATOM     30  C   UNL     1      48.610   8.088  17.003  0.00  0.00    +0.000 A 
ATOM     31  H   UNL     1      48.585  10.366  14.650  0.00  0.00    +0.000 HD
ENDBRANCH  18  21
ENDBRANCH   1  19
TORSDOF 7
ENDMDL
MODEL 3
REMARK VINA RESULT:    -7.707      2.180      2.682
REMARK INTER + INTRA:         -12.102
REMARK INTER:                 -11.207
REMARK INTRA:                  -0.895
REMARK UNBOUND:                -1.241
REMARK  Name = 
REMARK  7 active torsions:
REMARK  status: ('A' for Active; 'I' for Inactive)
REMARK    1  A    between atoms: C_2  and  C_20
REMARK    2  A    between atoms: N_3  and  C_4
REMARK    3  A    between atoms: C_4  and  C_5
REMARK    4  A    between atoms: C_8  and  C_9
REMARK    5  A    between atoms: C_9  and  O_10
REMARK    6  A    between atoms: O_10  and  C_11
REMARK    7  A    between atoms: C_11  and  C_12
REMARK                            x       y       z     vdW  Elec       q    Type
REMARK                         _______ _______ _______ _____ _____    ______ ____
ROOT
ATOM      1  C   UNL     1      47.546   4.433  14.817  0.00  0.00    +0.000 C 
ENDROOT
BRANCH   1   2
ATOM      2  C   UNL     1      46.505   4.467  13.719  0.00  0.00    +0.000 A 
ATOM      3  C   UNL     1      45.972   5.678  13.281  0.00  0.00    +0.000 A 
ATOM      4  C   UNL     1      44.977   5.667  12.300  0.00  0.00    +0.000 A 
ATOM      5  C   UNL     1      44.526   4.454  11.777  0.00  0.00    +0.000 A 
ATOM      6  C   UNL     1      45.124   3.298  12.266  0.00  0.00    +0.000 A 
ATOM      7  N   UNL     1      46.103   3.279  13.204  0.00  0.00    +0.000 NA
BRANCH   5   8
ATOM      8  C   UNL     1      43.451   4.378  10.731  0.00  0.00    +0.000 C 
BRANCH   8   9
ATOM      9  O   UNL     1      43.866   3.467   9.720  0.00  0.00    +0.000 OA
BRANCH   9  10
ATOM     10  C   UNL     1      44.647   4.087   8.699  0.00  0.00    +0.000 C 
BRANCH  10  11
ATOM     11  C   UNL     1      45.614   3.097   8.108  0.00  0.00    +0.000 A 
ATOM     12  C   UNL     1      46.516   3.428   7.091  0.00  0.00    +0.000 A 
ATOM     13  C   UNL     1      47.386   2.467   6.587  0.00  0.00    +0.000 A 
ATOM     14  C   UNL     1      47.327   1.191   7.119  0.00  0.00    +0.000 A 
ATOM     15  N   UNL     1      46.472   0.825   8.099  0.00  0.00    +0.000 NA
ATOM     16  C   UNL     1      45.639   1.783   8.567  0.00  0.00    +0.000 A 
ENDBRANCH  10  11
ENDBRANCH   9  10
ENDBRANCH   8   9
ENDBRANCH   5   8
ENDBRANCH   1   2
BRANCH   1  19
ATOM     17  O   UNL     1      49.544   5.073  16.636  0.00  0.00    +0.000 OA
ATOM     18  C   UNL     1      48.639   5.886  16.449  0.00  0.00    +0.000 C 
ATOM     19  N   UNL     1      47.576   5.632  15.618  0.00  0.00    +0.000 N 
ATOM     20  H   UNL     1      47.068   6.422  15.233  0.00  0.00    +0.000 HD
BRANCH  18  21
ATOM     21  C   UNL     1      48.613   7.171  17.142  0.00  0.00    +0.000 A 
ATOM     22  C   UNL     1      48.950   8.356  16.502  0.00  0.00    +0.000 A 
ATOM     23  S   UNL     1      48.856   9.725  17.526  0.00  0.00    +0.000 S 
ATOM     24  C   UNL     1      48.330   8.777  18.836  0.00  0.00    +0.000 A 
ATOM     25  N   UNL     1      48.049   9.329  20.048  0.00  0.00    +0.000 NA
ATOM     26  C   UNL     1      47.638   8.485  20.936  0.00  0.00    +0.000 A 
ATOM     27  N   UNL     1      47.484   7.142  20.733  0.00  0.00    +0.000 N 
ATOM     28  C   UNL     1      47.812   6.533  19.551  0.00  0.00    +0.000 A 
ATOM     29  O   UNL     1      47.768   5.316  19.449  0.00  0.00    +0.000 OA
ATOM     30  C   UNL     1      48.249   7.438  18.510  0.00  0.00    +0.000 A 
ATOM     31  H   UNL     1      47.192   6.522  21.471  0.00  0.00    +0.000 HD
ENDBRANCH  18  21
ENDBRANCH   1  19
TORSDOF 7
ENDMDL
MODEL 4
REMARK VINA RESULT:    -7.546      2.593      3.204
REMARK INTER + INTRA:         -11.875
REMARK INTER:                 -11.169
REMARK INTRA:                  -0.706
REMARK UNBOUND:                -1.241
REMARK  Name = 
REMARK  7 active torsions:
REMARK  status: ('A' for Active; 'I' for Inactive)
REMARK    1  A    between atoms: C_2  and  C_20
REMARK    2  A    between atoms: N_3  and  C_4
REMARK    3  A    between atoms: C_4  and  C_5
REMARK    4  A    between atoms: C_8  and  C_9
REMARK    5  A    between atoms: C_9  and  O_10
REMARK    6  A    between atoms: O_10  and  C_11
REMARK    7  A    between atoms: C_11  and  C_12
REMARK                            x       y       z     vdW  Elec       q    Type
REMARK                         _______ _______ _______ _____ _____    ______ ____
ROOT
ATOM      1  C   UNL     1      46.960   4.155  15.751  0.00  0.00    +0.000 C 
ENDROOT
BRANCH   1   2
ATOM      2  C   UNL     1      46.590   4.635  14.365  0.00  0.00    +0.000 A 
ATOM      3  C   UNL     1      47.232   5.733  13.796  0.00  0.00    +0.000 A 
ATOM      4  C   UNL     1      46.830   6.177  12.535  0.00  0.00    +0.000 A 
ATOM      5  C   UNL     1      45.793   5.527  11.864  0.00  0.00    +0.000 A 
ATOM      6  C   UNL     1      45.219   4.434  12.504  0.00  0.00    +0.000 A 
ATOM      7  N   UNL     1      45.600   3.969  13.719  0.00  0.00    +0.000 NA
BRANCH   5   8
ATOM      8  C   UNL     1      45.307   5.966  10.512  0.00  0.00    +0.000 C 
BRANCH   8   9
ATOM      9  O   UNL     1      45.963   5.186   9.520  0.00  0.00    +0.000 OA
BRANCH   9  10
ATOM     10  C   UNL     1      45.063   4.372   8.768  0.00  0.00    +0.000 C 
BRANCH  10  11
ATOM     11  C   UNL     1      45.805   3.227   8.131  0.00  0.00    +0.000 A 
ATOM     12  C   UNL     1      46.629   3.383   7.012  0.00  0.00    +0.000 A 
ATOM     13  C   UNL     1      47.288   2.284   6.470  0.00  0.00    +0.000 A 
ATOM     14  C   UNL     1      47.102   1.051   7.069  0.00  0.00    +0.000 A 
ATOM     15  N   UNL     1      46.315   0.853   8.149  0.00  0.00    +0.000 NA
ATOM     16  C   UNL     1      45.687   1.941   8.651  0.00  0.00    +0.000 A 
ENDBRANCH  10  11
ENDBRANCH   9  10
ENDBRANCH   8   9
ENDBRANCH   5   8
ENDBRANCH   1   2
BRANCH   1  19
ATOM     17  O   UNL     1      48.160   3.413  18.144  0.00  0.00    +0.000 OA
ATOM     18  C   UNL     1      48.829   4.040  17.322  0.00  0.00    +0.000 C 
ATOM     19  N   UNL     1      48.305   4.503  16.140  0.00  0.00    +0.000 N 
ATOM     20  H   UNL     1      48.942   4.691  15.372  0.00  0.00    +0.000 HD
BRANCH  18  21
ATOM     21  C   UNL     1      50.228   4.375  17.572  0.00  0.00    +0.000 A 
ATOM     22  C   UNL     1      50.633   5.676  17.838  0.00  0.00    +0.000 A 
ATOM     23  S   UNL     1      52.322   5.819  18.083  0.00  0.00    +0.000 S 
ATOM     24  C   UNL     1      52.548   4.146  17.876  0.00  0.00    +0.000 A 
ATOM     25  N   UNL     1      53.781   3.576  17.968  0.00  0.00    +0.000 NA
ATOM     26  C   UNL     1      53.789   2.294  17.811  0.00  0.00    +0.000 A 
ATOM     27  N   UNL     1      52.686   1.525  17.567  0.00  0.00    +0.000 N 
ATOM     28  C   UNL     1      51.435   2.059  17.405  0.00  0.00    +0.000 A 
ATOM     29  O   UNL     1      50.497   1.349  17.074  0.00  0.00    +0.000 OA
ATOM     30  C   UNL     1      51.364   3.491  17.602  0.00  0.00    +0.000 A 
ATOM     31  H   UNL     1      52.753   0.530  17.418  0.00  0.00    +0.000 HD
ENDBRANCH  18  21
ENDBRANCH   1  19
TORSDOF 7
ENDMDL
MODEL 5
REMARK VINA RESULT:    -7.354      1.919      2.963
REMARK INTER + INTRA:         -11.604
REMARK INTER:                 -10.552
REMARK INTRA:                  -1.052
REMARK UNBOUND:                -1.241
REMARK  Name = 
REMARK  7 active torsions:
REMARK  status: ('A' for Active; 'I' for Inactive)
REMARK    1  A    between atoms: C_2  and  C_20
REMARK    2  A    between atoms: N_3  and  C_4
REMARK    3  A    between atoms: C_4  and  C_5
REMARK    4  A    between atoms: C_8  and  C_9
REMARK    5  A    between atoms: C_9  and  O_10
REMARK    6  A    between atoms: O_10  and  C_11
REMARK    7  A    between atoms: C_11  and  C_12
REMARK                            x       y       z     vdW  Elec       q    Type
REMARK                         _______ _______ _______ _____ _____    ______ ____
ROOT
ATOM      1  C   UNL     1      47.253   3.588  15.001  0.00  0.00    +0.000 C 
ENDROOT
BRANCH   1   2
ATOM      2  C   UNL     1      46.384   3.968  13.823  0.00  0.00    +0.000 A 
ATOM      3  C   UNL     1      46.026   5.297  13.601  0.00  0.00    +0.000 A 
ATOM      4  C   UNL     1      45.182   5.604  12.532  0.00  0.00    +0.000 A 
ATOM      5  C   UNL     1      44.705   4.586  11.704  0.00  0.00    +0.000 A 
ATOM      6  C   UNL     1      45.124   3.292  11.995  0.00  0.00    +0.000 A 
ATOM      7  N   UNL     1      45.955   2.966  13.014  0.00  0.00    +0.000 NA
BRANCH   5   8
ATOM      8  C   UNL     1      43.785   4.853  10.548  0.00  0.00    +0.000 C 
BRANCH   8   9
ATOM      9  O   UNL     1      44.104   3.948   9.497  0.00  0.00    +0.000 OA
BRANCH   9  10
ATOM     10  C   UNL     1      45.116   4.446   8.623  0.00  0.00    +0.000 C 
BRANCH  10  11
ATOM     11  C   UNL     1      45.873   3.305   7.998  0.00  0.00    +0.000 A 
ATOM     12  C   UNL     1      45.810   1.994   8.482  0.00  0.00    +0.000 A 
ATOM     13  C   UNL     1      46.533   0.983   7.859  0.00  0.00    +0.000 A 
ATOM     14  C   UNL     1      47.305   1.315   6.759  0.00  0.00    +0.000 A 
ATOM     15  N   UNL     1      47.398   2.566   6.258  0.00  0.00    +0.000 NA
ATOM     16  C   UNL     1      46.683   3.527   6.888  0.00  0.00    +0.000 A 
ENDBRANCH  10  11
ENDBRANCH   9  10
ENDBRANCH   8   9
ENDBRANCH   5   8
ENDBRANCH   1   2
BRANCH   1  19
ATOM     17  O   UNL     1      47.462   3.269  17.752  0.00  0.00    +0.000 OA
ATOM     18  C   UNL     1      47.599   4.398  17.280  0.00  0.00    +0.000 C 
ATOM     19  N   UNL     1      47.450   4.663  15.941  0.00  0.00    +0.000 N 
ATOM     20  H   UNL     1      47.899   5.491  15.562  0.00  0.00    +0.000 HD
BRANCH  18  21
ATOM     21  C   UNL     1      47.887   5.551  18.129  0.00  0.00    +0.000 A 
ATOM     22  C   UNL     1      46.951   6.054  19.023  0.00  0.00    +0.000 A 
ATOM     23  S   UNL     1      47.517   7.416  19.894  0.00  0.00    +0.000 S 
ATOM     24  C   UNL     1      49.033   7.346  19.127  0.00  0.00    +0.000 A 
ATOM     25  N   UNL     1      50.021   8.234  19.418  0.00  0.00    +0.000 NA
ATOM     26  C   UNL     1      51.123   8.038  18.772  0.00  0.00    +0.000 A 
ATOM     27  N   UNL     1      51.332   7.042  17.860  0.00  0.00    +0.000 N 
ATOM     28  C   UNL     1      50.350   6.163  17.489  0.00  0.00    +0.000 A 
ATOM     29  O   UNL     1      50.545   5.362  16.587  0.00  0.00    +0.000 OA
ATOM     30  C   UNL     1      49.102   6.319  18.207  0.00  0.00    +0.000 A 
ATOM     31  H   UNL     1      52.202   6.954  17.358  0.00  0.00    +0.000 HD
ENDBRANCH  18  21
ENDBRANCH   1  19
TORSDOF 7
ENDMDL
MODEL 6
REMARK VINA RESULT:    -6.818      4.691      9.329
REMARK INTER + INTRA:         -10.848
REMARK INTER:                  -9.945
REMARK INTRA:                  -0.903
REMARK UNBOUND:                -1.241
REMARK  Name = 
REMARK  7 active torsions:
REMARK  status: ('A' for Active; 'I' for Inactive)
REMARK    1  A    between atoms: C_2  and  C_20
REMARK    2  A    between atoms: N_3  and  C_4
REMARK    3  A    between atoms: C_4  and  C_5
REMARK    4  A    between atoms: C_8  and  C_9
REMARK    5  A    between atoms: C_9  and  O_10
REMARK    6  A    between atoms: O_10  and  C_11
REMARK    7  A    between atoms: C_11  and  C_12
REMARK                            x       y       z     vdW  Elec       q    Type
REMARK                         _______ _______ _______ _____ _____    ______ ____
ROOT
ATOM      1  C   UNL     1      47.190   3.473  16.715  0.00  0.00    +0.000 C 
ENDROOT
BRANCH   1   2
ATOM      2  C   UNL     1      48.668   3.411  17.028  0.00  0.00    +0.000 A 
ATOM      3  C   UNL     1      49.361   2.203  16.958  0.00  0.00    +0.000 A 
ATOM      4  C   UNL     1      50.714   2.175  17.302  0.00  0.00    +0.000 A 
ATOM      5  C   UNL     1      51.354   3.345  17.715  0.00  0.00    +0.000 A 
ATOM      6  C   UNL     1      50.586   4.504  17.744  0.00  0.00    +0.000 A 
ATOM      7  N   UNL     1      49.277   4.565  17.399  0.00  0.00    +0.000 NA
BRANCH   5   8
ATOM      8  C   UNL     1      52.802   3.376  18.111  0.00  0.00    +0.000 C 
BRANCH   8   9
ATOM      9  O   UNL     1      53.089   2.209  18.872  0.00  0.00    +0.000 OA
BRANCH   9  10
ATOM     10  C   UNL     1      54.472   1.859  18.855  0.00  0.00    +0.000 C 
BRANCH  10  11
ATOM     11  C   UNL     1      54.665   0.526  18.184  0.00  0.00    +0.000 A 
ATOM     12  C   UNL     1      54.588   0.353  16.798  0.00  0.00    +0.000 A 
ATOM     13  C   UNL     1      54.778  -0.907  16.239  0.00  0.00    +0.000 A 
ATOM     14  C   UNL     1      55.040  -1.966  17.090  0.00  0.00    +0.000 A 
ATOM     15  N   UNL     1      55.120  -1.847  18.433  0.00  0.00    +0.000 NA
ATOM     16  C   UNL     1      54.932  -0.609  18.946  0.00  0.00    +0.000 A 
ENDBRANCH  10  11
ENDBRANCH   9  10
ENDBRANCH   8   9
ENDBRANCH   5   8
ENDBRANCH   1   2
BRANCH   1  19
ATOM     17  O   UNL     1      47.244   3.160  13.955  0.00  0.00    +0.000 OA
ATOM     18  C   UNL     1      46.849   4.231  14.417  0.00  0.00    +0.000 C 
ATOM     19  N   UNL     1      46.847   4.501  15.763  0.00  0.00    +0.000 N 
ATOM     20  H   UNL     1      46.214   5.216  16.109  0.00  0.00    +0.000 HD
BRANCH  18  21
ATOM     21  C   UNL     1      46.396   5.315  13.549  0.00  0.00    +0.000 A 
ATOM     22  C   UNL     1      47.190   6.423  13.286  0.00  0.00    +0.000 A 
ATOM     23  S   UNL     1      46.435   7.563  12.255  0.00  0.00    +0.000 S 
ATOM     24  C   UNL     1      45.047   6.590  12.106  0.00  0.00    +0.000 A 
ATOM     25  N   UNL     1      43.988   6.971  11.341  0.00  0.00    +0.000 NA
ATOM     26  C   UNL     1      43.020   6.117  11.308  0.00  0.00    +0.000 A 
ATOM     27  N   UNL     1      43.004   4.920  11.967  0.00  0.00    +0.000 N 
ATOM     28  C   UNL     1      44.019   4.522  12.796  0.00  0.00    +0.000 A 
ATOM     29  O   UNL     1      43.912   3.498  13.456  0.00  0.00    +0.000 OA
ATOM     30  C   UNL     1      45.145   5.429  12.846  0.00  0.00    +0.000 A 
ATOM     31  H   UNL     1      42.207   4.305  11.934  0.00  0.00    +0.000 HD
ENDBRANCH  18  21
ENDBRANCH   1  19
TORSDOF 7
ENDMDL
MODEL 7
REMARK VINA RESULT:    -6.785      2.872      8.577
REMARK INTER + INTRA:         -10.803
REMARK INTER:                  -9.396
REMARK INTRA:                  -1.406
REMARK UNBOUND:                -1.241
REMARK  Name = 
REMARK  7 active torsions:
REMARK  status: ('A' for Active; 'I' for Inactive)
REMARK    1  A    between atoms: C_2  and  C_20
REMARK    2  A    between atoms: N_3  and  C_4
REMARK    3  A    between atoms: C_4  and  C_5
REMARK    4  A    between atoms: C_8  and  C_9
REMARK    5  A    between atoms: C_9  and  O_10
REMARK    6  A    between atoms: O_10  and  C_11
REMARK    7  A    between atoms: C_11  and  C_12
REMARK                            x       y       z     vdW  Elec       q    Type
REMARK                         _______ _______ _______ _____ _____    ______ ____
ROOT
ATOM      1  C   UNL     1      47.229   7.827  12.119  0.00  0.00    +0.000 C 
ENDROOT
BRANCH   1   2
ATOM      2  C   UNL     1      48.018   7.937  13.405  0.00  0.00    +0.000 A 
ATOM      3  C   UNL     1      49.071   7.065  13.671  0.00  0.00    +0.000 A 
ATOM      4  C   UNL     1      49.745   7.165  14.890  0.00  0.00    +0.000 A 
ATOM      5  C   UNL     1      49.356   8.126  15.826  0.00  0.00    +0.000 A 
ATOM      6  C   UNL     1      48.302   8.960  15.468  0.00  0.00    +0.000 A 
ATOM      7  N   UNL     1      47.642   8.897  14.286  0.00  0.00    +0.000 NA
BRANCH   5   8
ATOM      8  C   UNL     1      50.033   8.273  17.158  0.00  0.00    +0.000 C 
BRANCH   8   9
ATOM      9  O   UNL     1      50.695   7.053  17.467  0.00  0.00    +0.000 OA
BRANCH   9  10
ATOM     10  C   UNL     1      50.026   6.299  18.478  0.00  0.00    +0.000 C 
BRANCH  10  11
ATOM     11  C   UNL     1      49.336   5.108  17.868  0.00  0.00    +0.000 A 
ATOM     12  C   UNL     1      47.964   5.081  17.597  0.00  0.00    +0.000 A 
ATOM     13  C   UNL     1      47.385   3.949  17.031  0.00  0.00    +0.000 A 
ATOM     14  C   UNL     1      48.202   2.869  16.750  0.00  0.00    +0.000 A 
ATOM     15  N   UNL     1      49.531   2.850  16.996  0.00  0.00    +0.000 NA
ATOM     16  C   UNL     1      50.063   3.965  17.547  0.00  0.00    +0.000 A 
ENDBRANCH  10  11
ENDBRANCH   9  10
ENDBRANCH   8   9
ENDBRANCH   5   8
ENDBRANCH   1   2
BRANCH   1  19
ATOM     17  O   UNL     1      44.502   7.469  11.729  0.00  0.00    +0.000 OA
ATOM     18  C   UNL     1      45.233   6.479  11.704  0.00  0.00    +0.000 C 
ATOM     19  N   UNL     1      46.583   6.549  11.948  0.00  0.00    +0.000 N 
ATOM     20  H   UNL     1      47.176   5.810  11.583  0.00  0.00    +0.000 HD
BRANCH  18  21
ATOM     21  C   UNL     1      44.700   5.142  11.454  0.00  0.00    +0.000 A 
ATOM     22  C   UNL     1      43.928   4.474  12.395  0.00  0.00    +0.000 A 
ATOM     23  S   UNL     1      43.433   2.919  11.877  0.00  0.00    +0.000 S 
ATOM     24  C   UNL     1      44.205   3.113  10.374  0.00  0.00    +0.000 A 
ATOM     25  N   UNL     1      44.168   2.141   9.423  0.00  0.00    +0.000 NA
ATOM     26  C   UNL     1      44.779   2.445   8.326  0.00  0.00    +0.000 A 
ATOM     27  N   UNL     1      45.427   3.624   8.087  0.00  0.00    +0.000 N 
ATOM     28  C   UNL     1      45.542   4.607   9.035  0.00  0.00    +0.000 A 
ATOM     29  O   UNL     1      46.227   5.596   8.819  0.00  0.00    +0.000 OA
ATOM     30  C   UNL     1      44.848   4.330  10.274  0.00  0.00    +0.000 A 
ATOM     31  H   UNL     1      45.917   3.797   7.224  0.00  0.00    +0.000 HD
ENDBRANCH  18  21
ENDBRANCH   1  19
TORSDOF 7
ENDMDL
MODEL 8
REMARK VINA RESULT:    -6.715      1.979      2.479
REMARK INTER + INTRA:         -10.704
REMARK INTER:                  -9.832
REMARK INTRA:                  -0.872
REMARK UNBOUND:                -1.241
REMARK  Name = 
REMARK  7 active torsions:
REMARK  status: ('A' for Active; 'I' for Inactive)
REMARK    1  A    between atoms: C_2  and  C_20
REMARK    2  A    between atoms: N_3  and  C_4
REMARK    3  A    between atoms: C_4  and  C_5
REMARK    4  A    between atoms: C_8  and  C_9
REMARK    5  A    between atoms: C_9  and  O_10
REMARK    6  A    between atoms: O_10  and  C_11
REMARK    7  A    between atoms: C_11  and  C_12
REMARK                            x       y       z     vdW  Elec       q    Type
REMARK                         _______ _______ _______ _____ _____    ______ ____
ROOT
ATOM      1  C   UNL     1      48.658   6.773  14.352  0.00  0.00    +0.000 C 
ENDROOT
BRANCH   1   2
ATOM      2  C   UNL     1      47.506   6.113  13.628  0.00  0.00    +0.000 A 
ATOM      3  C   UNL     1      47.149   4.796  13.909  0.00  0.00    +0.000 A 
ATOM      4  C   UNL     1      46.112   4.203  13.185  0.00  0.00    +0.000 A 
ATOM      5  C   UNL     1      45.451   4.928  12.192  0.00  0.00    +0.000 A 
ATOM      6  C   UNL     1      45.867   6.239  11.989  0.00  0.00    +0.000 A 
ATOM      7  N   UNL     1      46.858   6.846  12.687  0.00  0.00    +0.000 NA
BRANCH   5   8
ATOM      8  C   UNL     1      44.337   4.342  11.373  0.00  0.00    +0.000 C 
BRANCH   8   9
ATOM      9  O   UNL     1      44.704   3.023  10.987  0.00  0.00    +0.000 OA
BRANCH   9  10
ATOM     10  C   UNL     1      44.207   2.662   9.699  0.00  0.00    +0.000 C 
BRANCH  10  11
ATOM     11  C   UNL     1      45.316   2.701   8.682  0.00  0.00    +0.000 A 
ATOM     12  C   UNL     1      46.061   1.573   8.325  0.00  0.00    +0.000 A 
ATOM     13  C   UNL     1      47.074   1.674   7.376  0.00  0.00    +0.000 A 
ATOM     14  C   UNL     1      47.314   2.913   6.809  0.00  0.00    +0.000 A 
ATOM     15  N   UNL     1      46.622   4.030   7.124  0.00  0.00    +0.000 NA
ATOM     16  C   UNL     1      45.645   3.897   8.050  0.00  0.00    +0.000 A 
ENDBRANCH  10  11
ENDBRANCH   9  10
ENDBRANCH   8   9
ENDBRANCH   5   8
ENDBRANCH   1   2
BRANCH   1  19
ATOM     17  O   UNL     1      50.410   8.052  16.087  0.00  0.00    +0.000 OA
ATOM     18  C   UNL     1      49.271   7.800  16.483  0.00  0.00    +0.000 C 
ATOM     19  N   UNL     1      48.357   7.115  15.720  0.00  0.00    +0.000 N 
ATOM     20  H   UNL     1      47.371   7.236  15.928  0.00  0.00    +0.000 HD
BRANCH  18  21
ATOM     21  C   UNL     1      48.828   8.177  17.823  0.00  0.00    +0.000 A 
ATOM     22  C   UNL     1      48.877   9.490  18.268  0.00  0.00    +0.000 A 
ATOM     23  S   UNL     1      48.316   9.678  19.875  0.00  0.00    +0.000 S 
ATOM     24  C   UNL     1      47.962   8.019  20.003  0.00  0.00    +0.000 A 
ATOM     25  N   UNL     1      47.433   7.489  21.139  0.00  0.00    +0.000 NA
ATOM     26  C   UNL     1      47.197   6.220  21.075  0.00  0.00    +0.000 A 
ATOM     27  N   UNL     1      47.440   5.428  19.988  0.00  0.00    +0.000 N 
ATOM     28  C   UNL     1      48.027   5.905  18.846  0.00  0.00    +0.000 A 
ATOM     29  O   UNL     1      48.332   5.140  17.942  0.00  0.00    +0.000 OA
ATOM     30  C   UNL     1      48.285   7.329  18.852  0.00  0.00    +0.000 A 
ATOM     31  H   UNL     1      47.268   4.436  20.003  0.00  0.00    +0.000 HD
ENDBRANCH  18  21
ENDBRANCH   1  19
TORSDOF 7
ENDMDL
MODEL 9
REMARK VINA RESULT:    -6.632      4.128      8.754
REMARK INTER + INTRA:         -10.587
REMARK INTER:                  -9.372
REMARK INTRA:                  -1.216
REMARK UNBOUND:                -1.241
REMARK  Name = 
REMARK  7 active torsions:
REMARK  status: ('A' for Active; 'I' for Inactive)
REMARK    1  A    between atoms: C_2  and  C_20
REMARK    2  A    between atoms: N_3  and  C_4
REMARK    3  A    between atoms: C_4  and  C_5
REMARK    4  A    between atoms: C_8  and  C_9
REMARK    5  A    between atoms: C_9  and  O_10
REMARK    6  A    between atoms: O_10  and  C_11
REMARK    7  A    between atoms: C_11  and  C_12
REMARK                            x       y       z     vdW  Elec       q    Type
REMARK                         _______ _______ _______ _____ _____    ______ ____
ROOT
ATOM      1  C   UNL     1      47.154   3.382  16.748  0.00  0.00    +0.000 C 
ENDROOT
BRANCH   1   2
ATOM      2  C   UNL     1      48.613   3.319  17.142  0.00  0.00    +0.000 A 
ATOM      3  C   UNL     1      49.208   4.369  17.840  0.00  0.00    +0.000 A 
ATOM      4  C   UNL     1      50.569   4.297  18.144  0.00  0.00    +0.000 A 
ATOM      5  C   UNL     1      51.316   3.187  17.745  0.00  0.00    +0.000 A 
ATOM      6  C   UNL     1      50.636   2.184  17.065  0.00  0.00    +0.000 A 
ATOM      7  N   UNL     1      49.313   2.218  16.771  0.00  0.00    +0.000 NA
BRANCH   5   8
ATOM      8  C   UNL     1      52.785   3.059  18.032  0.00  0.00    +0.000 C 
BRANCH   8   9
ATOM      9  O   UNL     1      53.325   4.361  18.221  0.00  0.00    +0.000 OA
BRANCH   9  10
ATOM     10  C   UNL     1      54.434   4.633  17.365  0.00  0.00    +0.000 C 
BRANCH  10  11
ATOM     11  C   UNL     1      54.092   5.742  16.405  0.00  0.00    +0.000 A 
ATOM     12  C   UNL     1      52.922   6.501  16.505  0.00  0.00    +0.000 A 
ATOM     13  C   UNL     1      52.664   7.513  15.586  0.00  0.00    +0.000 A 
ATOM     14  C   UNL     1      53.593   7.738  14.585  0.00  0.00    +0.000 A 
ATOM     15  N   UNL     1      54.735   7.030  14.449  0.00  0.00    +0.000 NA
ATOM     16  C   UNL     1      54.956   6.052  15.358  0.00  0.00    +0.000 A 
ENDBRANCH  10  11
ENDBRANCH   9  10
ENDBRANCH   8   9
ENDBRANCH   5   8
ENDBRANCH   1   2
BRANCH   1  19
ATOM     17  O   UNL     1      47.243   3.091  13.987  0.00  0.00    +0.000 OA
ATOM     18  C   UNL     1      46.876   4.170  14.452  0.00  0.00    +0.000 C 
ATOM     19  N   UNL     1      46.859   4.428  15.800  0.00  0.00    +0.000 N 
ATOM     20  H   UNL     1      46.244   5.160  16.142  0.00  0.00    +0.000 HD
BRANCH  18  21
ATOM     21  C   UNL     1      46.471   5.275  13.587  0.00  0.00    +0.000 A 
ATOM     22  C   UNL     1      47.316   6.344  13.320  0.00  0.00    +0.000 A 
ATOM     23  S   UNL     1      46.611   7.519  12.293  0.00  0.00    +0.000 S 
ATOM     24  C   UNL     1      45.178   6.615  12.151  0.00  0.00    +0.000 A 
ATOM     25  N   UNL     1      44.135   7.047  11.391  0.00  0.00    +0.000 NA
ATOM     26  C   UNL     1      43.126   6.240  11.362  0.00  0.00    +0.000 A 
ATOM     27  N   UNL     1      43.055   5.045  12.022  0.00  0.00    +0.000 N 
ATOM     28  C   UNL     1      44.054   4.597  12.845  0.00  0.00    +0.000 A 
ATOM     29  O   UNL     1      43.902   3.580  13.505  0.00  0.00    +0.000 OA
ATOM     30  C   UNL     1      45.223   5.450  12.890  0.00  0.00    +0.000 A 
ATOM     31  H   UNL     1      42.230   4.469  11.992  0.00  0.00    +0.000 HD
ENDBRANCH  18  21
ENDBRANCH   1  19
TORSDOF 7
ENDMDL
