MODEL 1
REMARK VINA RESULT:    -7.819      0.000      0.000
REMARK INTER + INTRA:         -11.300
REMARK INTER:                 -10.561
REMARK INTRA:                  -0.739
REMARK UNBOUND:                -0.739
REMARK  Name = 
REMARK  7 active torsions:
REMARK  status: ('A' for Active; 'I' for Inactive)
REMARK    1  A    between atoms: C_1  and  C_2
REMARK    2  A    between atoms: C_2  and  C_3
REMARK    3  A    between atoms: C_2  and  C_14
REMARK    4  A    between atoms: C_3  and  N_4
REMARK    5  A    between atoms: N_4  and  C_5
REMARK    6  A    between atoms: C_8  and  C_9
REMARK    7  A    between atoms: C_18  and  C_19
REMARK                            x       y       z     vdW  Elec       q    Type
REMARK                         _______ _______ _______ _____ _____    ______ ____
ROOT
ATOM      1  N   UNL     1      43.788   4.876   9.806  0.00  0.00    +0.000 N 
ATOM      2  H   UNL     1      43.080   5.352   9.258  0.00  0.00    +0.000 HD
ENDROOT
BRANCH   1   3
ATOM      3  C   UNL     1      44.628   3.973   9.175  0.00  0.00    +0.000 A 
ATOM      4  C   UNL     1      45.607   4.353   8.250  0.00  0.00    +0.000 A 
ATOM      5  C   UNL     1      46.416   3.399   7.632  0.00  0.00    +0.000 A 
ATOM      6  C   UNL     1      46.223   2.064   7.949  0.00  0.00    +0.000 A 
ATOM      7  N   UNL     1      45.279   1.627   8.824  0.00  0.00    +0.000 NA
ATOM      8  C   UNL     1      44.516   2.594   9.400  0.00  0.00    +0.000 A 
BRANCH   6   9
ATOM      9  C   UNL     1      47.101   1.031   7.314  0.00  0.00    +0.000 C 
ATOM     10  N   UNL     1      46.850  -0.267   7.663  0.00  0.00    +0.000 N 
ATOM     11  O   UNL     1      47.998   1.321   6.530  0.00  0.00    +0.000 OA
ATOM     12  H   UNL     1      46.106  -0.479   8.317  0.00  0.00    +0.000 HD
ATOM     13  H   UNL     1      47.423  -1.002   7.275  0.00  0.00    +0.000 HD
ENDBRANCH   6   9
ENDBRANCH   1   3
BRANCH   1  14
ATOM     14  C   UNL     1      43.839   5.104  11.236  0.00  0.00    +0.000 C 
BRANCH  14  16
ATOM     15  C   UNL     1      45.649   4.142  12.838  0.00  0.00    +0.000 C 
ATOM     16  C   UNL     1      45.249   5.109  11.767  0.00  0.00    +0.000 C 
BRANCH  16  17
ATOM     17  C   UNL     1      45.862   6.452  11.851  0.00  0.00    +0.000 A 
ATOM     18  C   UNL     1      47.248   6.616  11.995  0.00  0.00    +0.000 A 
ATOM     19  C   UNL     1      47.805   7.884  12.156  0.00  0.00    +0.000 A 
ATOM     20  C   UNL     1      46.982   9.007  12.164  0.00  0.00    +0.000 A 
ATOM     21  C   UNL     1      45.602   8.861  11.998  0.00  0.00    +0.000 A 
ATOM     22  C   UNL     1      45.047   7.588  11.843  0.00  0.00    +0.000 A 
BRANCH  21  23
ATOM     23  C   UNL     1      44.737  10.004  11.998  0.00  0.00    +0.000 C 
ATOM     24  N   UNL     1      44.017  10.906  11.982  0.00  0.00    +0.000 NA
ENDBRANCH  21  23
ENDBRANCH  16  17
ENDBRANCH  14  16
ENDBRANCH   1  14
TORSDOF 6
ENDMDL
MODEL 2
REMARK VINA RESULT:    -7.608      2.358      3.055
REMARK INTER + INTRA:         -11.016
REMARK INTER:                 -10.134
REMARK INTRA:                  -0.881
REMARK UNBOUND:                -0.739
REMARK  Name = 
REMARK  7 active torsions:
REMARK  status: ('A' for Active; 'I' for Inactive)
REMARK    1  A    between atoms: C_1  and  C_2
REMARK    2  A    between atoms: C_2  and  C_3
REMARK    3  A    between atoms: C_2  and  C_14
REMARK    4  A    between atoms: C_3  and  N_4
REMARK    5  A    between atoms: N_4  and  C_5
REMARK    6  A    between atoms: C_8  and  C_9
REMARK    7  A    between atoms: C_18  and  C_19
REMARK                            x       y       z     vdW  Elec       q    Type
REMARK                         _______ _______ _______ _____ _____    ______ ____
ROOT
ATOM      1  N   UNL     1      43.680   3.117  10.437  0.00  0.00    +0.000 N 
ATOM      2  H   UNL     1      42.698   3.074  10.185  0.00  0.00    +0.000 HD
ENDROOT
BRANCH   1   3
ATOM      3  C   UNL     1      44.633   2.999   9.438  0.00  0.00    +0.000 A 
ATOM      4  C   UNL     1      45.046   4.072   8.641  0.00  0.00    +0.000 A 
ATOM      5  C   UNL     1      45.998   3.894   7.638  0.00  0.00    +0.000 A 
ATOM      6  C   UNL     1      46.522   2.626   7.443  0.00  0.00    +0.000 A 
ATOM      7  N   UNL     1      46.151   1.538   8.170  0.00  0.00    +0.000 NA
ATOM      8  C   UNL     1      45.221   1.763   9.135  0.00  0.00    +0.000 A 
BRANCH   6   9
ATOM      9  C   UNL     1      47.565   2.423   6.387  0.00  0.00    +0.000 C 
ATOM     10  N   UNL     1      47.485   3.248   5.299  0.00  0.00    +0.000 N 
ATOM     11  O   UNL     1      48.438   1.569   6.481  0.00  0.00    +0.000 OA
ATOM     12  H   UNL     1      46.750   3.943   5.245  0.00  0.00    +0.000 HD
ATOM     13  H   UNL     1      48.155   3.144   4.552  0.00  0.00    +0.000 HD
ENDBRANCH   6   9
ENDBRANCH   1   3
BRANCH   1  14
ATOM     14  C   UNL     1      44.041   3.223  11.836  0.00  0.00    +0.000 C 
BRANCH  14  16
ATOM     15  C   UNL     1      42.773   5.493  11.934  0.00  0.00    +0.000 C 
ATOM     16  C   UNL     1      43.926   4.634  12.353  0.00  0.00    +0.000 C 
BRANCH  16  17
ATOM     17  C   UNL     1      45.220   5.329  12.518  0.00  0.00    +0.000 A 
ATOM     18  C   UNL     1      45.751   6.137  11.501  0.00  0.00    +0.000 A 
ATOM     19  C   UNL     1      47.011   6.720  11.637  0.00  0.00    +0.000 A 
ATOM     20  C   UNL     1      47.751   6.511  12.797  0.00  0.00    +0.000 A 
ATOM     21  C   UNL     1      47.225   5.728  13.828  0.00  0.00    +0.000 A 
ATOM     22  C   UNL     1      45.965   5.140  13.686  0.00  0.00    +0.000 A 
BRANCH  21  23
ATOM     23  C   UNL     1      47.968   5.503  15.032  0.00  0.00    +0.000 C 
ATOM     24  N   UNL     1      48.582   5.297  15.987  0.00  0.00    +0.000 NA
ENDBRANCH  21  23
ENDBRANCH  16  17
ENDBRANCH  14  16
ENDBRANCH   1  14
TORSDOF 6
ENDMDL
MODEL 3
REMARK VINA RESULT:    -7.475      2.090      2.576
REMARK INTER + INTRA:         -10.836
REMARK INTER:                 -10.046
REMARK INTRA:                  -0.790
REMARK UNBOUND:                -0.739
REMARK  Name = 
REMARK  7 active torsions:
REMARK  status: ('A' for Active; 'I' for Inactive)
REMARK    1  A    between atoms: C_1  and  C_2
REMARK    2  A    between atoms: C_2  and  C_3
REMARK    3  A    between atoms: C_2  and  C_14
REMARK    4  A    between atoms: C_3  and  N_4
REMARK    5  A    between atoms: N_4  and  C_5
REMARK    6  A    between atoms: C_8  and  C_9
REMARK    7  A    between atoms: C_18  and  C_19
REMARK                            x       y       z     vdW  Elec       q    Type
REMARK                         _______ _______ _______ _____ _____    ______ ____
ROOT
ATOM      1  N   UNL     1      43.742   4.838   9.835  0.00  0.00    +0.000 N 
ATOM      2  H   UNL     1      42.767   4.851   9.557  0.00  0.00    +0.000 HD
ENDROOT
BRANCH   1   3
ATOM      3  C   UNL     1      44.630   4.043   9.129  0.00  0.00    +0.000 A 
ATOM      4  C   UNL     1      44.670   2.649   9.243  0.00  0.00    +0.000 A 
ATOM      5  C   UNL     1      45.596   1.898   8.519  0.00  0.00    +0.000 A 
ATOM      6  C   UNL     1      46.482   2.565   7.688  0.00  0.00    +0.000 A 
ATOM      7  N   UNL     1      46.508   3.917   7.546  0.00  0.00    +0.000 NA
ATOM      8  C   UNL     1      45.586   4.604   8.271  0.00  0.00    +0.000 A 
BRANCH   6   9
ATOM      9  C   UNL     1      47.464   1.771   6.884  0.00  0.00    +0.000 C 
ATOM     10  N   UNL     1      48.543   2.461   6.404  0.00  0.00    +0.000 N 
ATOM     11  O   UNL     1      47.317   0.575   6.660  0.00  0.00    +0.000 OA
ATOM     12  H   UNL     1      48.638   3.450   6.600  0.00  0.00    +0.000 HD
ATOM     13  H   UNL     1      49.229   1.976   5.844  0.00  0.00    +0.000 HD
ENDBRANCH   6   9
ENDBRANCH   1   3
BRANCH   1  14
ATOM     14  C   UNL     1      44.147   5.591  11.005  0.00  0.00    +0.000 C 
BRANCH  14  16
ATOM     15  C   UNL     1      43.803   3.940  12.985  0.00  0.00    +0.000 C 
ATOM     16  C   UNL     1      44.719   4.710  12.086  0.00  0.00    +0.000 C 
BRANCH  16  17
ATOM     17  C   UNL     1      45.945   5.241  12.718  0.00  0.00    +0.000 A 
ATOM     18  C   UNL     1      46.376   4.789  13.975  0.00  0.00    +0.000 A 
ATOM     19  C   UNL     1      47.487   5.357  14.596  0.00  0.00    +0.000 A 
ATOM     20  C   UNL     1      48.189   6.378  13.964  0.00  0.00    +0.000 A 
ATOM     21  C   UNL     1      47.786   6.823  12.701  0.00  0.00    +0.000 A 
ATOM     22  C   UNL     1      46.668   6.256  12.084  0.00  0.00    +0.000 A 
BRANCH  21  23
ATOM     23  C   UNL     1      48.498   7.870  12.030  0.00  0.00    +0.000 C 
ATOM     24  N   UNL     1      49.063   8.700  11.459  0.00  0.00    +0.000 NA
ENDBRANCH  21  23
ENDBRANCH  16  17
ENDBRANCH  14  16
ENDBRANCH   1  14
TORSDOF 6
ENDMDL
MODEL 4
REMARK VINA RESULT:    -7.307      1.991      2.578
REMARK INTER + INTRA:         -10.609
REMARK INTER:                  -9.986
REMARK INTRA:                  -0.623
REMARK UNBOUND:                -0.739
REMARK  Name = 
REMARK  7 active torsions:
REMARK  status: ('A' for Active; 'I' for Inactive)
REMARK    1  A    between atoms: C_1  and  C_2
REMARK    2  A    between atoms: C_2  and  C_3
REMARK    3  A    between atoms: C_2  and  C_14
REMARK    4  A    between atoms: C_3  and  N_4
REMARK    5  A    between atoms: N_4  and  C_5
REMARK    6  A    between atoms: C_8  and  C_9
REMARK    7  A    between atoms: C_18  and  C_19
REMARK                            x       y       z     vdW  Elec       q    Type
REMARK                         _______ _______ _______ _____ _____    ______ ____
ROOT
ATOM      1  N   UNL     1      43.728   3.931  10.379  0.00  0.00    +0.000 N 
ATOM      2  H   UNL     1      42.889   3.389  10.553  0.00  0.00    +0.000 HD
ENDROOT
BRANCH   1   3
ATOM      3  C   UNL     1      44.627   3.485   9.424  0.00  0.00    +0.000 A 
ATOM      4  C   UNL     1      45.072   2.161   9.348  0.00  0.00    +0.000 A 
ATOM      5  C   UNL     1      45.991   1.769   8.376  0.00  0.00    +0.000 A 
ATOM      6  C   UNL     1      46.461   2.724   7.489  0.00  0.00    +0.000 A 
ATOM      7  N   UNL     1      46.084   4.030   7.519  0.00  0.00    +0.000 NA
ATOM      8  C   UNL     1      45.187   4.362   8.484  0.00  0.00    +0.000 A 
BRANCH   6   9
ATOM      9  C   UNL     1      47.429   2.313   6.422  0.00  0.00    +0.000 C 
ATOM     10  N   UNL     1      47.358   3.010   5.247  0.00  0.00    +0.000 N 
ATOM     11  O   UNL     1      48.236   1.405   6.580  0.00  0.00    +0.000 OA
ATOM     12  H   UNL     1      46.678   3.753   5.141  0.00  0.00    +0.000 HD
ATOM     13  H   UNL     1      47.978   2.764   4.490  0.00  0.00    +0.000 HD
ENDBRANCH   6   9
ENDBRANCH   1   3
BRANCH   1  14
ATOM     14  C   UNL     1      43.985   5.105  11.188  0.00  0.00    +0.000 C 
BRANCH  14  16
ATOM     15  C   UNL     1      45.615   4.006  12.891  0.00  0.00    +0.000 C 
ATOM     16  C   UNL     1      45.332   5.055  11.861  0.00  0.00    +0.000 C 
BRANCH  16  17
ATOM     17  C   UNL     1      45.938   6.380  12.109  0.00  0.00    +0.000 A 
ATOM     18  C   UNL     1      45.168   7.464  12.559  0.00  0.00    +0.000 A 
ATOM     19  C   UNL     1      45.735   8.729  12.709  0.00  0.00    +0.000 A 
ATOM     20  C   UNL     1      47.083   8.924  12.422  0.00  0.00    +0.000 A 
ATOM     21  C   UNL     1      47.868   7.848  11.997  0.00  0.00    +0.000 A 
ATOM     22  C   UNL     1      47.295   6.583  11.841  0.00  0.00    +0.000 A 
BRANCH  21  23
ATOM     23  C   UNL     1      49.259   8.026  11.701  0.00  0.00    +0.000 C 
ATOM     24  N   UNL     1      50.371   8.175  11.431  0.00  0.00    +0.000 NA
ENDBRANCH  21  23
ENDBRANCH  16  17
ENDBRANCH  14  16
ENDBRANCH   1  14
TORSDOF 6
ENDMDL
MODEL 5
REMARK VINA RESULT:    -7.281      3.150      6.688
REMARK INTER + INTRA:         -10.574
REMARK INTER:                  -9.728
REMARK INTRA:                  -0.846
REMARK UNBOUND:                -0.739
REMARK  Name = 
REMARK  7 active torsions:
REMARK  status: ('A' for Active; 'I' for Inactive)
REMARK    1  A    between atoms: C_1  and  C_2
REMARK    2  A    between atoms: C_2  and  C_3
REMARK    3  A    between atoms: C_2  and  C_14
REMARK    4  A    between atoms: C_3  and  N_4
REMARK    5  A    between atoms: N_4  and  C_5
REMARK    6  A    between atoms: C_8  and  C_9
REMARK    7  A    between atoms: C_18  and  C_19
REMARK                            x       y       z     vdW  Elec       q    Type
REMARK                         _______ _______ _______ _____ _____    ______ ____
ROOT
ATOM      1  N   UNL     1      43.510   5.586  12.447  0.00  0.00    +0.000 N 
ATOM      2  H   UNL     1      42.817   5.650  13.185  0.00  0.00    +0.000 HD
ENDROOT
BRANCH   1   3
ATOM      3  C   UNL     1      44.813   5.969  12.717  0.00  0.00    +0.000 A 
ATOM      4  C   UNL     1      45.366   7.176  12.274  0.00  0.00    +0.000 A 
ATOM      5  C   UNL     1      46.691   7.504  12.562  0.00  0.00    +0.000 A 
ATOM      6  C   UNL     1      47.451   6.604  13.291  0.00  0.00    +0.000 A 
ATOM      7  N   UNL     1      46.980   5.409  13.736  0.00  0.00    +0.000 NA
ATOM      8  C   UNL     1      45.684   5.134  13.431  0.00  0.00    +0.000 A 
BRANCH   6   9
ATOM      9  C   UNL     1      48.866   6.954  13.631  0.00  0.00    +0.000 C 
ATOM     10  N   UNL     1      49.744   6.990  12.582  0.00  0.00    +0.000 N 
ATOM     11  O   UNL     1      49.229   7.191  14.777  0.00  0.00    +0.000 OA
ATOM     12  H   UNL     1      49.419   6.785  11.645  0.00  0.00    +0.000 HD
ATOM     13  H   UNL     1      50.713   7.207  12.758  0.00  0.00    +0.000 HD
ENDBRANCH   6   9
ENDBRANCH   1   3
BRANCH   1  14
ATOM     14  C   UNL     1      43.088   5.170  11.125  0.00  0.00    +0.000 C 
BRANCH  14  16
ATOM     15  C   UNL     1      43.492   2.723  11.909  0.00  0.00    +0.000 C 
ATOM     16  C   UNL     1      43.482   3.748  10.818  0.00  0.00    +0.000 C 
BRANCH  16  17
ATOM     17  C   UNL     1      44.547   3.617   9.801  0.00  0.00    +0.000 A 
ATOM     18  C   UNL     1      45.100   4.743   9.173  0.00  0.00    +0.000 A 
ATOM     19  C   UNL     1      46.045   4.602   8.156  0.00  0.00    +0.000 A 
ATOM     20  C   UNL     1      46.456   3.332   7.763  0.00  0.00    +0.000 A 
ATOM     21  C   UNL     1      45.931   2.202   8.396  0.00  0.00    +0.000 A 
ATOM     22  C   UNL     1      44.980   2.347   9.410  0.00  0.00    +0.000 A 
BRANCH  21  23
ATOM     23  C   UNL     1      46.344   0.885   8.011  0.00  0.00    +0.000 C 
ATOM     24  N   UNL     1      46.651  -0.177   7.679  0.00  0.00    +0.000 NA
ENDBRANCH  21  23
ENDBRANCH  16  17
ENDBRANCH  14  16
ENDBRANCH   1  14
TORSDOF 6
ENDMDL
MODEL 6
REMARK VINA RESULT:    -6.411      3.775      6.894
REMARK INTER + INTRA:          -9.398
REMARK INTER:                  -8.830
REMARK INTRA:                  -0.568
REMARK UNBOUND:                -0.739
REMARK  Name = 
REMARK  7 active torsions:
REMARK  status: ('A' for Active; 'I' for Inactive)
REMARK    1  A    between atoms: C_1  and  C_2
REMARK    2  A    between atoms: C_2  and  C_3
REMARK    3  A    between atoms: C_2  and  C_14
REMARK    4  A    between atoms: C_3  and  N_4
REMARK    5  A    between atoms: N_4  and  C_5
REMARK    6  A    between atoms: C_8  and  C_9
REMARK    7  A    between atoms: C_18  and  C_19
REMARK                            x       y       z     vdW  Elec       q    Type
REMARK                         _______ _______ _______ _____ _____    ______ ____
ROOT
ATOM      1  N   UNL     1      46.147   5.857  11.359  0.00  0.00    +0.000 N 
ATOM      2  H   UNL     1      46.704   5.579  10.559  0.00  0.00    +0.000 HD
ENDROOT
BRANCH   1   3
ATOM      3  C   UNL     1      46.586   5.521  12.629  0.00  0.00    +0.000 A 
ATOM      4  C   UNL     1      46.045   4.469  13.376  0.00  0.00    +0.000 A 
ATOM      5  C   UNL     1      46.515   4.183  14.657  0.00  0.00    +0.000 A 
ATOM      6  C   UNL     1      47.528   4.972  15.179  0.00  0.00    +0.000 A 
ATOM      7  N   UNL     1      48.085   6.019  14.515  0.00  0.00    +0.000 NA
ATOM      8  C   UNL     1      47.593   6.257  13.270  0.00  0.00    +0.000 A 
BRANCH   6   9
ATOM      9  C   UNL     1      48.061   4.662  16.544  0.00  0.00    +0.000 C 
ATOM     10  N   UNL     1      47.302   5.092  17.597  0.00  0.00    +0.000 N 
ATOM     11  O   UNL     1      49.117   4.064  16.717  0.00  0.00    +0.000 OA
ATOM     12  H   UNL     1      46.436   5.589  17.426  0.00  0.00    +0.000 HD
ATOM     13  H   UNL     1      47.624   4.922  18.538  0.00  0.00    +0.000 HD
ENDBRANCH   6   9
ENDBRANCH   1   3
BRANCH   1  14
ATOM     14  C   UNL     1      44.882   6.526  11.135  0.00  0.00    +0.000 C 
BRANCH  14  16
ATOM     15  C   UNL     1      42.641   5.360  11.759  0.00  0.00    +0.000 C 
ATOM     16  C   UNL     1      43.773   5.561  10.800  0.00  0.00    +0.000 C 
BRANCH  16  17
ATOM     17  C   UNL     1      44.216   4.357  10.065  0.00  0.00    +0.000 A 
ATOM     18  C   UNL     1      43.972   3.067  10.560  0.00  0.00    +0.000 A 
ATOM     19  C   UNL     1      44.468   1.943   9.899  0.00  0.00    +0.000 A 
ATOM     20  C   UNL     1      45.205   2.095   8.729  0.00  0.00    +0.000 A 
ATOM     21  C   UNL     1      45.436   3.373   8.211  0.00  0.00    +0.000 A 
ATOM     22  C   UNL     1      44.943   4.498   8.879  0.00  0.00    +0.000 A 
BRANCH  21  23
ATOM     23  C   UNL     1      46.187   3.552   7.005  0.00  0.00    +0.000 C 
ATOM     24  N   UNL     1      46.784   3.665   6.023  0.00  0.00    +0.000 NA
ENDBRANCH  21  23
ENDBRANCH  16  17
ENDBRANCH  14  16
ENDBRANCH   1  14
TORSDOF 6
ENDMDL
MODEL 7
REMARK VINA RESULT:    -6.335      5.889      7.815
REMARK INTER + INTRA:          -9.295
REMARK INTER:                  -8.729
REMARK INTRA:                  -0.566
REMARK UNBOUND:                -0.739
REMARK  Name = 
REMARK  7 active torsions:
REMARK  status: ('A' for Active; 'I' for Inactive)
REMARK    1  A    between atoms: C_1  and  C_2
REMARK    2  A    between atoms: C_2  and  C_3
REMARK    3  A    between atoms: C_2  and  C_14
REMARK    4  A    between atoms: C_3  and  N_4
REMARK    5  A    between atoms: N_4  and  C_5
REMARK    6  A    between atoms: C_8  and  C_9
REMARK    7  A    between atoms: C_18  and  C_19
REMARK                            x       y       z     vdW  Elec       q    Type
REMARK                         _______ _______ _______ _____ _____    ______ ____
ROOT
ATOM      1  N   UNL     1      47.632   4.718  16.515  0.00  0.00    +0.000 N 
ATOM      2  H   UNL     1      47.395   5.499  17.118  0.00  0.00    +0.000 HD
ENDROOT
BRANCH   1   3
ATOM      3  C   UNL     1      48.738   3.944  16.826  0.00  0.00    +0.000 A 
ATOM      4  C   UNL     1      49.873   4.450  17.469  0.00  0.00    +0.000 A 
ATOM      5  C   UNL     1      50.966   3.628  17.743  0.00  0.00    +0.000 A 
ATOM      6  C   UNL     1      50.906   2.299  17.357  0.00  0.00    +0.000 A 
ATOM      7  N   UNL     1      49.842   1.749  16.713  0.00  0.00    +0.000 NA
ATOM      8  C   UNL     1      48.802   2.590  16.469  0.00  0.00    +0.000 A 
BRANCH   6   9
ATOM      9  C   UNL     1      52.061   1.398  17.668  0.00  0.00    +0.000 C 
ATOM     10  N   UNL     1      51.742   0.144  18.111  0.00  0.00    +0.000 N 
ATOM     11  O   UNL     1      53.227   1.755  17.542  0.00  0.00    +0.000 OA
ATOM     12  H   UNL     1      50.770  -0.123  18.211  0.00  0.00    +0.000 HD
ATOM     13  H   UNL     1      52.483  -0.498  18.349  0.00  0.00    +0.000 HD
ENDBRANCH   6   9
ENDBRANCH   1   3
BRANCH   1  14
ATOM     14  C   UNL     1      46.847   4.493  15.318  0.00  0.00    +0.000 C 
BRANCH  14  16
ATOM     15  C   UNL     1      48.098   6.567  14.367  0.00  0.00    +0.000 C 
ATOM     16  C   UNL     1      47.356   5.287  14.141  0.00  0.00    +0.000 C 
BRANCH  16  17
ATOM     17  C   UNL     1      46.469   5.256  12.959  0.00  0.00    +0.000 A 
ATOM     18  C   UNL     1      46.476   6.292  12.012  0.00  0.00    +0.000 A 
ATOM     19  C   UNL     1      45.577   6.291  10.946  0.00  0.00    +0.000 A 
ATOM     20  C   UNL     1      44.667   5.247  10.807  0.00  0.00    +0.000 A 
ATOM     21  C   UNL     1      44.664   4.197  11.729  0.00  0.00    +0.000 A 
ATOM     22  C   UNL     1      45.562   4.204  12.800  0.00  0.00    +0.000 A 
BRANCH  21  23
ATOM     23  C   UNL     1      43.739   3.110  11.601  0.00  0.00    +0.000 C 
ATOM     24  N   UNL     1      43.017   2.217  11.481  0.00  0.00    +0.000 NA
ENDBRANCH  21  23
ENDBRANCH  16  17
ENDBRANCH  14  16
ENDBRANCH   1  14
TORSDOF 6
ENDMDL
MODEL 8
REMARK VINA RESULT:    -6.247      4.345      7.090
REMARK INTER + INTRA:          -9.177
REMARK INTER:                  -8.292
REMARK INTRA:                  -0.885
REMARK UNBOUND:                -0.739
REMARK  Name = 
REMARK  7 active torsions:
REMARK  status: ('A' for Active; 'I' for Inactive)
REMARK    1  A    between atoms: C_1  and  C_2
REMARK    2  A    between atoms: C_2  and  C_3
REMARK    3  A    between atoms: C_2  and  C_14
REMARK    4  A    between atoms: C_3  and  N_4
REMARK    5  A    between atoms: N_4  and  C_5
REMARK    6  A    between atoms: C_8  and  C_9
REMARK    7  A    between atoms: C_18  and  C_19
REMARK                            x       y       z     vdW  Elec       q    Type
REMARK                         _______ _______ _______ _____ _____    ______ ____
ROOT
ATOM      1  N   UNL     1      47.840   7.126  13.079  0.00  0.00    +0.000 N 
ATOM      2  H   UNL     1      48.305   8.016  13.219  0.00  0.00    +0.000 HD
ENDROOT
BRANCH   1   3
ATOM      3  C   UNL     1      47.845   6.199  14.108  0.00  0.00    +0.000 A 
ATOM      4  C   UNL     1      47.052   5.046  14.108  0.00  0.00    +0.000 A 
ATOM      5  C   UNL     1      47.086   4.154  15.179  0.00  0.00    +0.000 A 
ATOM      6  C   UNL     1      47.917   4.438  16.250  0.00  0.00    +0.000 A 
ATOM      7  N   UNL     1      48.699   5.549  16.322  0.00  0.00    +0.000 NA
ATOM      8  C   UNL     1      48.632   6.387  15.254  0.00  0.00    +0.000 A 
BRANCH   6   9
ATOM      9  C   UNL     1      47.984   3.477  17.396  0.00  0.00    +0.000 C 
ATOM     10  N   UNL     1      46.821   2.824  17.700  0.00  0.00    +0.000 N 
ATOM     11  O   UNL     1      49.013   3.283  18.033  0.00  0.00    +0.000 OA
ATOM     12  H   UNL     1      45.984   3.007  17.160  0.00  0.00    +0.000 HD
ATOM     13  H   UNL     1      46.808   2.175  18.473  0.00  0.00    +0.000 HD
ENDBRANCH   6   9
ENDBRANCH   1   3
BRANCH   1  14
ATOM     14  C   UNL     1      47.257   6.835  11.785  0.00  0.00    +0.000 C 
BRANCH  14  16
ATOM     15  C   UNL     1      45.305   8.428  12.431  0.00  0.00    +0.000 C 
ATOM     16  C   UNL     1      45.799   7.211  11.713  0.00  0.00    +0.000 C 
BRANCH  16  17
ATOM     17  C   UNL     1      44.874   6.059  11.686  0.00  0.00    +0.000 A 
ATOM     18  C   UNL     1      43.810   5.953  12.595  0.00  0.00    +0.000 A 
ATOM     19  C   UNL     1      42.995   4.822  12.613  0.00  0.00    +0.000 A 
ATOM     20  C   UNL     1      43.228   3.785  11.714  0.00  0.00    +0.000 A 
ATOM     21  C   UNL     1      44.270   3.886  10.787  0.00  0.00    +0.000 A 
ATOM     22  C   UNL     1      45.088   5.019  10.776  0.00  0.00    +0.000 A 
BRANCH  21  23
ATOM     23  C   UNL     1      44.523   2.833   9.850  0.00  0.00    +0.000 C 
ATOM     24  N   UNL     1      44.759   1.981   9.107  0.00  0.00    +0.000 NA
ENDBRANCH  21  23
ENDBRANCH  16  17
ENDBRANCH  14  16
ENDBRANCH   1  14
TORSDOF 6
ENDMDL
MODEL 9
REMARK VINA RESULT:    -5.921      4.336      6.073
REMARK INTER + INTRA:          -8.736
REMARK INTER:                  -8.306
REMARK INTRA:                  -0.430
REMARK UNBOUND:                -0.739
REMARK  Name = 
REMARK  7 active torsions:
REMARK  status: ('A' for Active; 'I' for Inactive)
REMARK    1  A    between atoms: C_1  and  C_2
REMARK    2  A    between atoms: C_2  and  C_3
REMARK    3  A    between atoms: C_2  and  C_14
REMARK    4  A    between atoms: C_3  and  N_4
REMARK    5  A    between atoms: N_4  and  C_5
REMARK    6  A    between atoms: C_8  and  C_9
REMARK    7  A    between atoms: C_18  and  C_19
REMARK                            x       y       z     vdW  Elec       q    Type
REMARK                         _______ _______ _______ _____ _____    ______ ____
ROOT
ATOM      1  N   UNL     1      46.939   7.090  13.577  0.00  0.00    +0.000 N 
ATOM      2  H   UNL     1      46.434   7.771  14.133  0.00  0.00    +0.000 HD
ENDROOT
BRANCH   1   3
ATOM      3  C   UNL     1      46.228   6.088  12.937  0.00  0.00    +0.000 A 
ATOM      4  C   UNL     1      45.950   6.098  11.566  0.00  0.00    +0.000 A 
ATOM      5  C   UNL     1      45.216   5.070  10.977  0.00  0.00    +0.000 A 
ATOM      6  C   UNL     1      44.760   4.039  11.782  0.00  0.00    +0.000 A 
ATOM      7  N   UNL     1      44.979   3.977  13.123  0.00  0.00    +0.000 NA
ATOM      8  C   UNL     1      45.700   5.002  13.650  0.00  0.00    +0.000 A 
BRANCH   6   9
ATOM      9  C   UNL     1      43.992   2.914  11.160  0.00  0.00    +0.000 C 
ATOM     10  N   UNL     1      44.482   2.436   9.976  0.00  0.00    +0.000 N 
ATOM     11  O   UNL     1      42.981   2.445  11.670  0.00  0.00    +0.000 OA
ATOM     12  H   UNL     1      45.317   2.845   9.573  0.00  0.00    +0.000 HD
ATOM     13  H   UNL     1      43.994   1.687   9.507  0.00  0.00    +0.000 HD
ENDBRANCH   6   9
ENDBRANCH   1   3
BRANCH   1  14
ATOM     14  C   UNL     1      48.386   7.153  13.537  0.00  0.00    +0.000 C 
BRANCH  14  16
ATOM     15  C   UNL     1      49.912   8.823  14.821  0.00  0.00    +0.000 C 
ATOM     16  C   UNL     1      48.975   7.655  14.830  0.00  0.00    +0.000 C 
BRANCH  16  17
ATOM     17  C   UNL     1      49.279   6.594  15.813  0.00  0.00    +0.000 A 
ATOM     18  C   UNL     1      50.553   6.471  16.388  0.00  0.00    +0.000 A 
ATOM     19  C   UNL     1      50.849   5.416  17.251  0.00  0.00    +0.000 A 
ATOM     20  C   UNL     1      49.870   4.476  17.558  0.00  0.00    +0.000 A 
ATOM     21  C   UNL     1      48.589   4.599  17.012  0.00  0.00    +0.000 A 
ATOM     22  C   UNL     1      48.298   5.654  16.143  0.00  0.00    +0.000 A 
BRANCH  21  23
ATOM     23  C   UNL     1      47.565   3.645  17.320  0.00  0.00    +0.000 C 
ATOM     24  N   UNL     1      46.735   2.873  17.535  0.00  0.00    +0.000 NA
ENDBRANCH  21  23
ENDBRANCH  16  17
ENDBRANCH  14  16
ENDBRANCH   1  14
TORSDOF 6
ENDMDL
