MODEL 1
REMARK VINA RESULT:    -7.995      0.000      0.000
REMARK INTER + INTRA:         -12.383
REMARK INTER:                 -11.267
REMARK INTRA:                  -1.117
REMARK UNBOUND:                -1.117
REMARK  Name = 
REMARK  7 active torsions:
REMARK  status: ('A' for Active; 'I' for Inactive)
REMARK    1  A    between atoms: C_2  and  C_3
REMARK    2  A    between atoms: C_6  and  N_7
REMARK    3  A    between atoms: N_7  and  C_8
REMARK    4  A    between atoms: C_8  and  C_9
REMARK    5  A    between atoms: C_9  and  C_12
REMARK    6  A    between atoms: C_16  and  C_17
REMARK    7  A    between atoms: C_17  and  C_18
REMARK                            x       y       z     vdW  Elec       q    Type
REMARK                         _______ _______ _______ _____ _____    ______ ____
ROOT
ATOM      1  C   UNL     1      43.886   4.850  12.451  0.00  0.00    +0.000 C 
ATOM      2  F   UNL     1      42.984   5.533  13.214  0.00  0.00    +0.000 F 
ATOM      3  F   UNL     1      43.730   3.533  12.800  0.00  0.00    +0.000 F 
ENDROOT
BRANCH   1   4
ATOM      4  C   UNL     1      45.307   5.333  12.662  0.00  0.00    +0.000 A 
ATOM      5  C   UNL     1      45.912   6.142  11.691  0.00  0.00    +0.000 A 
ATOM      6  C   UNL     1      47.191   6.650  11.897  0.00  0.00    +0.000 A 
ATOM      7  C   UNL     1      47.874   6.376  13.088  0.00  0.00    +0.000 A 
ATOM      8  C   UNL     1      47.294   5.571  14.080  0.00  0.00    +0.000 A 
ATOM      9  C   UNL     1      46.015   5.037  13.843  0.00  0.00    +0.000 A 
BRANCH   8  10
ATOM     10  C   UNL     1      48.022   5.267  15.376  0.00  0.00    +0.000 C 
BRANCH  10  11
ATOM     11  C   UNL     1      47.309   4.193  16.191  0.00  0.00    +0.000 C 
ATOM     12  C   UNL     1      47.127   4.370  17.705  0.00  0.00    +0.000 C 
ATOM     13  O   UNL     1      47.761   3.100  17.980  0.00  0.00    +0.000 OA
ATOM     14  C   UNL     1      48.151   2.965  16.594  0.00  0.00    +0.000 C 
ENDBRANCH  10  11
ENDBRANCH   8  10
ENDBRANCH   1   4
BRANCH   1  15
ATOM     15  C   UNL     1      43.498   4.991  10.957  0.00  0.00    +0.000 C 
BRANCH  15  16
ATOM     16  N   UNL     1      43.505   3.711  10.236  0.00  0.00    +0.000 N 
ATOM     17  H   UNL     1      43.040   2.941  10.714  0.00  0.00    +0.000 HD
BRANCH  16  21
ATOM     18  C   UNL     1      46.537   2.472   7.593  0.00  0.00    +0.000 A 
ATOM     19  C   UNL     1      46.228   3.828   7.691  0.00  0.00    +0.000 A 
ATOM     20  C   UNL     1      45.242   4.254   8.587  0.00  0.00    +0.000 A 
ATOM     21  C   UNL     1      44.569   3.348   9.416  0.00  0.00    +0.000 A 
ATOM     22  C   UNL     1      44.887   1.992   9.297  0.00  0.00    +0.000 A 
ATOM     23  C   UNL     1      45.863   1.550   8.395  0.00  0.00    +0.000 A 
BRANCH  18  25
ATOM     24  N   UNL     1      48.337   1.669   5.909  0.00  0.00    +0.000 NA
ATOM     25  C   UNL     1      47.526   2.029   6.663  0.00  0.00    +0.000 C 
ENDBRANCH  18  25
ENDBRANCH  16  21
ENDBRANCH  15  16
ENDBRANCH   1  15
TORSDOF 7
ENDMDL
MODEL 2
REMARK VINA RESULT:    -7.621      2.569      3.812
REMARK INTER + INTRA:         -11.856
REMARK INTER:                 -10.953
REMARK INTRA:                  -0.903
REMARK UNBOUND:                -1.117
REMARK  Name = 
REMARK  7 active torsions:
REMARK  status: ('A' for Active; 'I' for Inactive)
REMARK    1  A    between atoms: C_2  and  C_3
REMARK    2  A    between atoms: C_6  and  N_7
REMARK    3  A    between atoms: N_7  and  C_8
REMARK    4  A    between atoms: C_8  and  C_9
REMARK    5  A    between atoms: C_9  and  C_12
REMARK    6  A    between atoms: C_16  and  C_17
REMARK    7  A    between atoms: C_17  and  C_18
REMARK                            x       y       z     vdW  Elec       q    Type
REMARK                         _______ _______ _______ _____ _____    ______ ____
ROOT
ATOM      1  C   UNL     1      43.431   5.000  12.446  0.00  0.00    +0.000 C 
ATOM      2  F   UNL     1      42.747   6.030  11.867  0.00  0.00    +0.000 F 
ATOM      3  F   UNL     1      42.708   4.671  13.563  0.00  0.00    +0.000 F 
ENDROOT
BRANCH   1   4
ATOM      4  C   UNL     1      44.863   5.370  12.778  0.00  0.00    +0.000 A 
ATOM      5  C   UNL     1      45.647   4.485  13.530  0.00  0.00    +0.000 A 
ATOM      6  C   UNL     1      46.982   4.776  13.790  0.00  0.00    +0.000 A 
ATOM      7  C   UNL     1      47.560   5.945  13.281  0.00  0.00    +0.000 A 
ATOM      8  C   UNL     1      46.801   6.851  12.524  0.00  0.00    +0.000 A 
ATOM      9  C   UNL     1      45.445   6.559  12.298  0.00  0.00    +0.000 A 
BRANCH   8  10
ATOM     10  C   UNL     1      47.414   8.121  11.965  0.00  0.00    +0.000 C 
BRANCH  10  11
ATOM     11  C   UNL     1      46.747   9.371  12.529  0.00  0.00    +0.000 C 
ATOM     12  C   UNL     1      45.595  10.040  11.766  0.00  0.00    +0.000 C 
ATOM     13  O   UNL     1      46.275  11.316  11.758  0.00  0.00    +0.000 OA
ATOM     14  C   UNL     1      47.476  10.708  12.286  0.00  0.00    +0.000 C 
ENDBRANCH  10  11
ENDBRANCH   8  10
ENDBRANCH   1   4
BRANCH   1  15
ATOM     15  C   UNL     1      43.410   3.778  11.492  0.00  0.00    +0.000 C 
BRANCH  15  16
ATOM     16  N   UNL     1      43.569   4.148  10.078  0.00  0.00    +0.000 N 
ATOM     17  H   UNL     1      42.700   4.298   9.569  0.00  0.00    +0.000 HD
BRANCH  16  21
ATOM     18  C   UNL     1      46.585   2.545   7.620  0.00  0.00    +0.000 A 
ATOM     19  C   UNL     1      46.375   3.924   7.634  0.00  0.00    +0.000 A 
ATOM     20  C   UNL     1      45.395   4.470   8.468  0.00  0.00    +0.000 A 
ATOM     21  C   UNL     1      44.629   3.664   9.319  0.00  0.00    +0.000 A 
ATOM     22  C   UNL     1      44.850   2.283   9.284  0.00  0.00    +0.000 A 
ATOM     23  C   UNL     1      45.818   1.722   8.444  0.00  0.00    +0.000 A 
BRANCH  18  25
ATOM     24  N   UNL     1      48.365   1.516   6.040  0.00  0.00    +0.000 NA
ATOM     25  C   UNL     1      47.568   1.981   6.752  0.00  0.00    +0.000 C 
ENDBRANCH  18  25
ENDBRANCH  16  21
ENDBRANCH  15  16
ENDBRANCH   1  15
TORSDOF 7
ENDMDL
MODEL 3
REMARK VINA RESULT:    -7.507      2.385      3.711
REMARK INTER + INTRA:         -11.695
REMARK INTER:                 -10.742
REMARK INTRA:                  -0.953
REMARK UNBOUND:                -1.117
REMARK  Name = 
REMARK  7 active torsions:
REMARK  status: ('A' for Active; 'I' for Inactive)
REMARK    1  A    between atoms: C_2  and  C_3
REMARK    2  A    between atoms: C_6  and  N_7
REMARK    3  A    between atoms: N_7  and  C_8
REMARK    4  A    between atoms: C_8  and  C_9
REMARK    5  A    between atoms: C_9  and  C_12
REMARK    6  A    between atoms: C_16  and  C_17
REMARK    7  A    between atoms: C_17  and  C_18
REMARK                            x       y       z     vdW  Elec       q    Type
REMARK                         _______ _______ _______ _____ _____    ______ ____
ROOT
ATOM      1  C   UNL     1      43.862   5.317  12.210  0.00  0.00    +0.000 C 
ATOM      2  F   UNL     1      43.371   6.232  11.324  0.00  0.00    +0.000 F 
ATOM      3  F   UNL     1      42.998   5.345  13.273  0.00  0.00    +0.000 F 
ENDROOT
BRANCH   1   4
ATOM      4  C   UNL     1      45.289   5.618  12.623  0.00  0.00    +0.000 A 
ATOM      5  C   UNL     1      45.836   4.969  13.738  0.00  0.00    +0.000 A 
ATOM      6  C   UNL     1      47.164   5.183  14.093  0.00  0.00    +0.000 A 
ATOM      7  C   UNL     1      47.971   6.030  13.326  0.00  0.00    +0.000 A 
ATOM      8  C   UNL     1      47.452   6.694  12.203  0.00  0.00    +0.000 A 
ATOM      9  C   UNL     1      46.100   6.494  11.875  0.00  0.00    +0.000 A 
BRANCH   8  10
ATOM     10  C   UNL     1      48.316   7.614  11.361  0.00  0.00    +0.000 C 
BRANCH  10  11
ATOM     11  C   UNL     1      49.678   7.861  12.003  0.00  0.00    +0.000 C 
ATOM     12  C   UNL     1      50.191   9.296  12.191  0.00  0.00    +0.000 C 
ATOM     13  O   UNL     1      51.415   9.004  11.478  0.00  0.00    +0.000 OA
ATOM     14  C   UNL     1      50.908   7.708  11.085  0.00  0.00    +0.000 C 
ENDBRANCH  10  11
ENDBRANCH   8  10
ENDBRANCH   1   4
BRANCH   1  15
ATOM     15  C   UNL     1      43.784   3.905  11.576  0.00  0.00    +0.000 C 
BRANCH  15  16
ATOM     16  N   UNL     1      43.538   3.936  10.127  0.00  0.00    +0.000 N 
ATOM     17  H   UNL     1      42.559   3.865   9.852  0.00  0.00    +0.000 HD
BRANCH  16  21
ATOM     18  C   UNL     1      46.506   2.451   7.540  0.00  0.00    +0.000 A 
ATOM     19  C   UNL     1      45.823   1.568   8.375  0.00  0.00    +0.000 A 
ATOM     20  C   UNL     1      44.814   2.046   9.218  0.00  0.00    +0.000 A 
ATOM     21  C   UNL     1      44.451   3.398   9.226  0.00  0.00    +0.000 A 
ATOM     22  C   UNL     1      45.155   4.269   8.388  0.00  0.00    +0.000 A 
ATOM     23  C   UNL     1      46.175   3.806   7.549  0.00  0.00    +0.000 A 
BRANCH  18  25
ATOM     24  N   UNL     1      48.408   1.575   6.011  0.00  0.00    +0.000 NA
ATOM     25  C   UNL     1      47.553   1.972   6.695  0.00  0.00    +0.000 C 
ENDBRANCH  18  25
ENDBRANCH  16  21
ENDBRANCH  15  16
ENDBRANCH   1  15
TORSDOF 7
ENDMDL
MODEL 4
REMARK VINA RESULT:    -7.195      1.583      2.237
REMARK INTER + INTRA:         -11.255
REMARK INTER:                 -10.462
REMARK INTRA:                  -0.793
REMARK UNBOUND:                -1.117
REMARK  Name = 
REMARK  7 active torsions:
REMARK  status: ('A' for Active; 'I' for Inactive)
REMARK    1  A    between atoms: C_2  and  C_3
REMARK    2  A    between atoms: C_6  and  N_7
REMARK    3  A    between atoms: N_7  and  C_8
REMARK    4  A    between atoms: C_8  and  C_9
REMARK    5  A    between atoms: C_9  and  C_12
REMARK    6  A    between atoms: C_16  and  C_17
REMARK    7  A    between atoms: C_17  and  C_18
REMARK                            x       y       z     vdW  Elec       q    Type
REMARK                         _______ _______ _______ _____ _____    ______ ____
ROOT
ATOM      1  C   UNL     1      45.017   4.979  12.356  0.00  0.00    +0.000 C 
ATOM      2  F   UNL     1      44.100   4.691  13.325  0.00  0.00    +0.000 F 
ATOM      3  F   UNL     1      45.782   3.847  12.238  0.00  0.00    +0.000 F 
ENDROOT
BRANCH   1   4
ATOM      4  C   UNL     1      45.851   6.200  12.692  0.00  0.00    +0.000 A 
ATOM      5  C   UNL     1      45.263   7.471  12.639  0.00  0.00    +0.000 A 
ATOM      6  C   UNL     1      45.992   8.598  13.007  0.00  0.00    +0.000 A 
ATOM      7  C   UNL     1      47.311   8.468  13.455  0.00  0.00    +0.000 A 
ATOM      8  C   UNL     1      47.927   7.208  13.520  0.00  0.00    +0.000 A 
ATOM      9  C   UNL     1      47.189   6.083  13.114  0.00  0.00    +0.000 A 
BRANCH   8  10
ATOM     10  C   UNL     1      49.356   7.052  14.006  0.00  0.00    +0.000 C 
BRANCH  10  11
ATOM     11  C   UNL     1      49.468   7.246  15.515  0.00  0.00    +0.000 C 
ATOM     12  C   UNL     1      50.698   6.720  16.269  0.00  0.00    +0.000 C 
ATOM     13  O   UNL     1      49.874   5.958  17.181  0.00  0.00    +0.000 OA
ATOM     14  C   UNL     1      48.695   6.242  16.395  0.00  0.00    +0.000 C 
ENDBRANCH  10  11
ENDBRANCH   8  10
ENDBRANCH   1   4
BRANCH   1  15
ATOM     15  C   UNL     1      44.283   5.196  11.009  0.00  0.00    +0.000 C 
BRANCH  15  16
ATOM     16  N   UNL     1      43.959   3.939  10.320  0.00  0.00    +0.000 N 
ATOM     17  H   UNL     1      43.476   3.245  10.888  0.00  0.00    +0.000 HD
BRANCH  16  21
ATOM     18  C   UNL     1      46.683   2.505   7.450  0.00  0.00    +0.000 A 
ATOM     19  C   UNL     1      45.997   1.597   8.255  0.00  0.00    +0.000 A 
ATOM     20  C   UNL     1      45.068   2.060   9.193  0.00  0.00    +0.000 A 
ATOM     21  C   UNL     1      44.787   3.426   9.327  0.00  0.00    +0.000 A 
ATOM     22  C   UNL     1      45.491   4.321   8.516  0.00  0.00    +0.000 A 
ATOM     23  C   UNL     1      46.433   3.871   7.583  0.00  0.00    +0.000 A 
BRANCH  18  25
ATOM     24  N   UNL     1      48.437   1.662   5.737  0.00  0.00    +0.000 NA
ATOM     25  C   UNL     1      47.649   2.038   6.509  0.00  0.00    +0.000 C 
ENDBRANCH  18  25
ENDBRANCH  16  21
ENDBRANCH  15  16
ENDBRANCH   1  15
TORSDOF 7
ENDMDL
MODEL 5
REMARK VINA RESULT:    -7.159      3.695      7.838
REMARK INTER + INTRA:         -11.205
REMARK INTER:                 -10.622
REMARK INTRA:                  -0.583
REMARK UNBOUND:                -1.117
REMARK  Name = 
REMARK  7 active torsions:
REMARK  status: ('A' for Active; 'I' for Inactive)
REMARK    1  A    between atoms: C_2  and  C_3
REMARK    2  A    between atoms: C_6  and  N_7
REMARK    3  A    between atoms: N_7  and  C_8
REMARK    4  A    between atoms: C_8  and  C_9
REMARK    5  A    between atoms: C_9  and  C_12
REMARK    6  A    between atoms: C_16  and  C_17
REMARK    7  A    between atoms: C_17  and  C_18
REMARK                            x       y       z     vdW  Elec       q    Type
REMARK                         _______ _______ _______ _____ _____    ______ ____
ROOT
ATOM      1  C   UNL     1      44.594   6.109  11.396  0.00  0.00    +0.000 C 
ATOM      2  F   UNL     1      43.291   6.508  11.466  0.00  0.00    +0.000 F 
ATOM      3  F   UNL     1      45.281   7.201  10.934  0.00  0.00    +0.000 F 
ENDROOT
BRANCH   1   4
ATOM      4  C   UNL     1      44.782   4.895  10.507  0.00  0.00    +0.000 A 
ATOM      5  C   UNL     1      44.120   3.701  10.821  0.00  0.00    +0.000 A 
ATOM      6  C   UNL     1      44.227   2.597   9.981  0.00  0.00    +0.000 A 
ATOM      7  C   UNL     1      44.978   2.678   8.803  0.00  0.00    +0.000 A 
ATOM      8  C   UNL     1      45.651   3.861   8.460  0.00  0.00    +0.000 A 
ATOM      9  C   UNL     1      45.561   4.957   9.335  0.00  0.00    +0.000 A 
BRANCH   8  10
ATOM     10  C   UNL     1      46.467   3.964   7.185  0.00  0.00    +0.000 C 
BRANCH  10  11
ATOM     11  C   UNL     1      46.663   2.603   6.524  0.00  0.00    +0.000 C 
ATOM     12  C   UNL     1      47.731   1.636   7.056  0.00  0.00    +0.000 C 
ATOM     13  O   UNL     1      48.347   1.522   5.753  0.00  0.00    +0.000 OA
ATOM     14  C   UNL     1      47.509   2.581   5.235  0.00  0.00    +0.000 C 
ENDBRANCH  10  11
ENDBRANCH   8  10
ENDBRANCH   1   4
BRANCH   1  15
ATOM     15  C   UNL     1      45.107   5.798  12.826  0.00  0.00    +0.000 C 
BRANCH  15  16
ATOM     16  N   UNL     1      46.564   5.619  12.889  0.00  0.00    +0.000 N 
ATOM     17  H   UNL     1      46.981   5.165  12.077  0.00  0.00    +0.000 HD
BRANCH  16  21
ATOM     18  C   UNL     1      48.390   5.157  16.652  0.00  0.00    +0.000 A 
ATOM     19  C   UNL     1      47.513   4.175  16.192  0.00  0.00    +0.000 A 
ATOM     20  C   UNL     1      46.923   4.304  14.931  0.00  0.00    +0.000 A 
ATOM     21  C   UNL     1      47.213   5.391  14.098  0.00  0.00    +0.000 A 
ATOM     22  C   UNL     1      48.088   6.370  14.580  0.00  0.00    +0.000 A 
ATOM     23  C   UNL     1      48.675   6.259  15.846  0.00  0.00    +0.000 A 
BRANCH  18  25
ATOM     24  N   UNL     1      49.453   4.955  19.008  0.00  0.00    +0.000 NA
ATOM     25  C   UNL     1      48.976   5.042  17.949  0.00  0.00    +0.000 C 
ENDBRANCH  18  25
ENDBRANCH  16  21
ENDBRANCH  15  16
ENDBRANCH   1  15
TORSDOF 7
ENDMDL
MODEL 6
REMARK VINA RESULT:    -7.152      2.462      3.198
REMARK INTER + INTRA:         -11.195
REMARK INTER:                 -10.437
REMARK INTRA:                  -0.758
REMARK UNBOUND:                -1.117
REMARK  Name = 
REMARK  7 active torsions:
REMARK  status: ('A' for Active; 'I' for Inactive)
REMARK    1  A    between atoms: C_2  and  C_3
REMARK    2  A    between atoms: C_6  and  N_7
REMARK    3  A    between atoms: N_7  and  C_8
REMARK    4  A    between atoms: C_8  and  C_9
REMARK    5  A    between atoms: C_9  and  C_12
REMARK    6  A    between atoms: C_16  and  C_17
REMARK    7  A    between atoms: C_17  and  C_18
REMARK                            x       y       z     vdW  Elec       q    Type
REMARK                         _______ _______ _______ _____ _____    ______ ____
ROOT
ATOM      1  C   UNL     1      44.861   5.455  12.136  0.00  0.00    +0.000 C 
ATOM      2  F   UNL     1      44.073   5.399  13.248  0.00  0.00    +0.000 F 
ATOM      3  F   UNL     1      45.627   4.319  12.180  0.00  0.00    +0.000 F 
ENDROOT
BRANCH   1   4
ATOM      4  C   UNL     1      45.706   6.714  12.087  0.00  0.00    +0.000 A 
ATOM      5  C   UNL     1      45.103   7.957  12.316  0.00  0.00    +0.000 A 
ATOM      6  C   UNL     1      45.872   9.116  12.341  0.00  0.00    +0.000 A 
ATOM      7  C   UNL     1      47.258   9.046  12.160  0.00  0.00    +0.000 A 
ATOM      8  C   UNL     1      47.891   7.815  11.930  0.00  0.00    +0.000 A 
ATOM      9  C   UNL     1      47.097   6.656  11.875  0.00  0.00    +0.000 A 
BRANCH   8  10
ATOM     10  C   UNL     1      49.393   7.723  11.734  0.00  0.00    +0.000 C 
BRANCH  10  11
ATOM     11  C   UNL     1      50.138   7.679  13.065  0.00  0.00    +0.000 C 
ATOM     12  C   UNL     1      49.359   7.510  14.377  0.00  0.00    +0.000 C 
ATOM     13  O   UNL     1      49.951   8.704  14.940  0.00  0.00    +0.000 OA
ATOM     14  C   UNL     1      50.548   9.039  13.667  0.00  0.00    +0.000 C 
ENDBRANCH  10  11
ENDBRANCH   8  10
ENDBRANCH   1   4
BRANCH   1  15
ATOM     15  C   UNL     1      43.966   5.372  10.874  0.00  0.00    +0.000 C 
BRANCH  15  16
ATOM     16  N   UNL     1      43.784   3.998  10.385  0.00  0.00    +0.000 N 
ATOM     17  H   UNL     1      43.418   3.339  11.070  0.00  0.00    +0.000 HD
BRANCH  16  21
ATOM     18  C   UNL     1      46.571   2.470   7.627  0.00  0.00    +0.000 A 
ATOM     19  C   UNL     1      45.859   1.588   8.439  0.00  0.00    +0.000 A 
ATOM     20  C   UNL     1      44.909   2.083   9.339  0.00  0.00    +0.000 A 
ATOM     21  C   UNL     1      44.633   3.453   9.428  0.00  0.00    +0.000 A 
ATOM     22  C   UNL     1      45.364   4.321   8.611  0.00  0.00    +0.000 A 
ATOM     23  C   UNL     1      46.326   3.840   7.716  0.00  0.00    +0.000 A 
BRANCH  18  25
ATOM     24  N   UNL     1      48.362   1.558   5.989  0.00  0.00    +0.000 NA
ATOM     25  C   UNL     1      47.558   1.972   6.724  0.00  0.00    +0.000 C 
ENDBRANCH  18  25
ENDBRANCH  16  21
ENDBRANCH  15  16
ENDBRANCH   1  15
TORSDOF 7
ENDMDL
MODEL 7
REMARK VINA RESULT:    -6.857      4.229      7.259
REMARK INTER + INTRA:         -10.780
REMARK INTER:                 -10.074
REMARK INTRA:                  -0.705
REMARK UNBOUND:                -1.117
REMARK  Name = 
REMARK  7 active torsions:
REMARK  status: ('A' for Active; 'I' for Inactive)
REMARK    1  A    between atoms: C_2  and  C_3
REMARK    2  A    between atoms: C_6  and  N_7
REMARK    3  A    between atoms: N_7  and  C_8
REMARK    4  A    between atoms: C_8  and  C_9
REMARK    5  A    between atoms: C_9  and  C_12
REMARK    6  A    between atoms: C_16  and  C_17
REMARK    7  A    between atoms: C_17  and  C_18
REMARK                            x       y       z     vdW  Elec       q    Type
REMARK                         _______ _______ _______ _____ _____    ______ ____
ROOT
ATOM      1  C   UNL     1      44.097   5.848  11.608  0.00  0.00    +0.000 C 
ATOM      2  F   UNL     1      44.264   5.557  12.931  0.00  0.00    +0.000 F 
ATOM      3  F   UNL     1      42.783   6.220  11.484  0.00  0.00    +0.000 F 
ENDROOT
BRANCH   1   4
ATOM      4  C   UNL     1      44.448   4.678  10.709  0.00  0.00    +0.000 A 
ATOM      5  C   UNL     1      43.885   3.420  10.963  0.00  0.00    +0.000 A 
ATOM      6  C   UNL     1      44.143   2.351  10.111  0.00  0.00    +0.000 A 
ATOM      7  C   UNL     1      44.948   2.529   8.980  0.00  0.00    +0.000 A 
ATOM      8  C   UNL     1      45.525   3.777   8.699  0.00  0.00    +0.000 A 
ATOM      9  C   UNL     1      45.282   4.840   9.586  0.00  0.00    +0.000 A 
BRANCH   8  10
ATOM     10  C   UNL     1      46.398   3.985   7.475  0.00  0.00    +0.000 C 
BRANCH  10  11
ATOM     11  C   UNL     1      46.602   2.689   6.695  0.00  0.00    +0.000 C 
ATOM     12  C   UNL     1      47.766   1.754   7.049  0.00  0.00    +0.000 C 
ATOM     13  O   UNL     1      48.258   1.772   5.689  0.00  0.00    +0.000 OA
ATOM     14  C   UNL     1      47.319   2.813   5.336  0.00  0.00    +0.000 C 
ENDBRANCH  10  11
ENDBRANCH   8  10
ENDBRANCH   1   4
BRANCH   1  15
ATOM     15  C   UNL     1      44.972   7.074  11.242  0.00  0.00    +0.000 C 
BRANCH  15  16
ATOM     16  N   UNL     1      45.757   7.579  12.377  0.00  0.00    +0.000 N 
ATOM     17  H   UNL     1      45.211   7.981  13.138  0.00  0.00    +0.000 HD
BRANCH  16  21
ATOM     18  C   UNL     1      49.570   9.157  11.551  0.00  0.00    +0.000 A 
ATOM     19  C   UNL     1      48.516  10.026  11.829  0.00  0.00    +0.000 A 
ATOM     20  C   UNL     1      47.251   9.513  12.133  0.00  0.00    +0.000 A 
ATOM     21  C   UNL     1      47.020   8.133  12.193  0.00  0.00    +0.000 A 
ATOM     22  C   UNL     1      48.088   7.277  11.903  0.00  0.00    +0.000 A 
ATOM     23  C   UNL     1      49.355   7.779  11.584  0.00  0.00    +0.000 A 
BRANCH  18  25
ATOM     24  N   UNL     1      51.908  10.103  10.950  0.00  0.00    +0.000 NA
ATOM     25  C   UNL     1      50.857   9.677  11.217  0.00  0.00    +0.000 C 
ENDBRANCH  18  25
ENDBRANCH  16  21
ENDBRANCH  15  16
ENDBRANCH   1  15
TORSDOF 7
ENDMDL
MODEL 8
REMARK VINA RESULT:    -6.746      3.572      7.402
REMARK INTER + INTRA:         -10.624
REMARK INTER:                  -9.930
REMARK INTRA:                  -0.694
REMARK UNBOUND:                -1.117
REMARK  Name = 
REMARK  7 active torsions:
REMARK  status: ('A' for Active; 'I' for Inactive)
REMARK    1  A    between atoms: C_2  and  C_3
REMARK    2  A    between atoms: C_6  and  N_7
REMARK    3  A    between atoms: N_7  and  C_8
REMARK    4  A    between atoms: C_8  and  C_9
REMARK    5  A    between atoms: C_9  and  C_12
REMARK    6  A    between atoms: C_16  and  C_17
REMARK    7  A    between atoms: C_17  and  C_18
REMARK                            x       y       z     vdW  Elec       q    Type
REMARK                         _______ _______ _______ _____ _____    ______ ____
ROOT
ATOM      1  C   UNL     1      43.653   4.014  12.063  0.00  0.00    +0.000 C 
ATOM      2  F   UNL     1      43.422   2.671  12.134  0.00  0.00    +0.000 F 
ATOM      3  F   UNL     1      42.411   4.594  12.060  0.00  0.00    +0.000 F 
ENDROOT
BRANCH   1   4
ATOM      4  C   UNL     1      44.467   4.397  10.843  0.00  0.00    +0.000 A 
ATOM      5  C   UNL     1      45.149   5.621  10.826  0.00  0.00    +0.000 A 
ATOM      6  C   UNL     1      45.953   5.961   9.743  0.00  0.00    +0.000 A 
ATOM      7  C   UNL     1      46.108   5.073   8.673  0.00  0.00    +0.000 A 
ATOM      8  C   UNL     1      45.439   3.838   8.662  0.00  0.00    +0.000 A 
ATOM      9  C   UNL     1      44.603   3.523   9.747  0.00  0.00    +0.000 A 
BRANCH   8  10
ATOM     10  C   UNL     1      45.598   2.864   7.510  0.00  0.00    +0.000 C 
BRANCH  10  11
ATOM     11  C   UNL     1      46.998   2.922   6.906  0.00  0.00    +0.000 C 
ATOM     12  C   UNL     1      47.194   2.720   5.397  0.00  0.00    +0.000 C 
ATOM     13  O   UNL     1      48.144   1.650   5.613  0.00  0.00    +0.000 OA
ATOM     14  C   UNL     1      47.852   1.643   7.029  0.00  0.00    +0.000 C 
ENDBRANCH  10  11
ENDBRANCH   8  10
ENDBRANCH   1   4
BRANCH   1  15
ATOM     15  C   UNL     1      44.385   4.472  13.350  0.00  0.00    +0.000 C 
BRANCH  15  16
ATOM     16  N   UNL     1      45.737   3.909  13.475  0.00  0.00    +0.000 N 
ATOM     17  H   UNL     1      45.780   2.893  13.528  0.00  0.00    +0.000 HD
BRANCH  16  21
ATOM     18  C   UNL     1      48.604   6.183  15.554  0.00  0.00    +0.000 A 
ATOM     19  C   UNL     1      48.032   5.072  16.173  0.00  0.00    +0.000 A 
ATOM     20  C   UNL     1      47.100   4.292  15.482  0.00  0.00    +0.000 A 
ATOM     21  C   UNL     1      46.741   4.585  14.160  0.00  0.00    +0.000 A 
ATOM     22  C   UNL     1      47.319   5.708  13.559  0.00  0.00    +0.000 A 
ATOM     23  C   UNL     1      48.244   6.505  14.245  0.00  0.00    +0.000 A 
BRANCH  18  25
ATOM     24  N   UNL     1      50.304   7.660  16.839  0.00  0.00    +0.000 NA
ATOM     25  C   UNL     1      49.538   6.996  16.264  0.00  0.00    +0.000 C 
ENDBRANCH  18  25
ENDBRANCH  16  21
ENDBRANCH  15  16
ENDBRANCH   1  15
TORSDOF 7
ENDMDL
MODEL 9
REMARK VINA RESULT:    -6.080      3.728      6.972
REMARK INTER + INTRA:          -9.684
REMARK INTER:                  -8.891
REMARK INTRA:                  -0.793
REMARK UNBOUND:                -1.117
REMARK  Name = 
REMARK  7 active torsions:
REMARK  status: ('A' for Active; 'I' for Inactive)
REMARK    1  A    between atoms: C_2  and  C_3
REMARK    2  A    between atoms: C_6  and  N_7
REMARK    3  A    between atoms: N_7  and  C_8
REMARK    4  A    between atoms: C_8  and  C_9
REMARK    5  A    between atoms: C_9  and  C_12
REMARK    6  A    between atoms: C_16  and  C_17
REMARK    7  A    between atoms: C_17  and  C_18
REMARK                            x       y       z     vdW  Elec       q    Type
REMARK                         _______ _______ _______ _____ _____    ______ ____
ROOT
ATOM      1  C   UNL     1      46.695   4.598  13.648  0.00  0.00    +0.000 C 
ATOM      2  F   UNL     1      47.633   3.607  13.634  0.00  0.00    +0.000 F 
ATOM      3  F   UNL     1      46.391   4.787  14.971  0.00  0.00    +0.000 F 
ENDROOT
BRANCH   1   4
ATOM      4  C   UNL     1      45.471   4.249  12.823  0.00  0.00    +0.000 A 
ATOM      5  C   UNL     1      44.210   4.702  13.234  0.00  0.00    +0.000 A 
ATOM      6  C   UNL     1      43.085   4.448  12.456  0.00  0.00    +0.000 A 
ATOM      7  C   UNL     1      43.208   3.758  11.244  0.00  0.00    +0.000 A 
ATOM      8  C   UNL     1      44.457   3.294  10.805  0.00  0.00    +0.000 A 
ATOM      9  C   UNL     1      45.580   3.529  11.618  0.00  0.00    +0.000 A 
BRANCH   8  10
ATOM     10  C   UNL     1      44.605   2.547   9.493  0.00  0.00    +0.000 C 
BRANCH  10  11
ATOM     11  C   UNL     1      44.850   3.495   8.323  0.00  0.00    +0.000 C 
ATOM     12  C   UNL     1      45.943   3.179   7.292  0.00  0.00    +0.000 C 
ATOM     13  O   UNL     1      46.574   4.464   7.495  0.00  0.00    +0.000 OA
ATOM     14  C   UNL     1      45.709   4.742   8.619  0.00  0.00    +0.000 C 
ENDBRANCH  10  11
ENDBRANCH   8  10
ENDBRANCH   1   4
BRANCH   1  15
ATOM     15  C   UNL     1      47.331   5.908  13.118  0.00  0.00    +0.000 C 
BRANCH  15  16
ATOM     16  N   UNL     1      46.715   7.117  13.682  0.00  0.00    +0.000 N 
ATOM     17  H   UNL     1      46.354   7.019  14.630  0.00  0.00    +0.000 HD
BRANCH  16  21
ATOM     18  C   UNL     1      44.877   9.852  11.064  0.00  0.00    +0.000 A 
ATOM     19  C   UNL     1      44.295   8.601  11.265  0.00  0.00    +0.000 A 
ATOM     20  C   UNL     1      44.881   7.695  12.154  0.00  0.00    +0.000 A 
ATOM     21  C   UNL     1      46.035   8.025  12.876  0.00  0.00    +0.000 A 
ATOM     22  C   UNL     1      46.608   9.281  12.654  0.00  0.00    +0.000 A 
ATOM     23  C   UNL     1      46.039  10.192  11.757  0.00  0.00    +0.000 A 
BRANCH  18  25
ATOM     24  N   UNL     1      43.821  11.516   9.379  0.00  0.00    +0.000 NA
ATOM     25  C   UNL     1      44.296  10.771  10.138  0.00  0.00    +0.000 C 
ENDBRANCH  18  25
ENDBRANCH  16  21
ENDBRANCH  15  16
ENDBRANCH   1  15
TORSDOF 7
ENDMDL
