MODEL 1
REMARK VINA RESULT:    -7.294      0.000      0.000
REMARK INTER + INTRA:         -10.397
REMARK INTER:                  -9.852
REMARK INTRA:                  -0.545
REMARK UNBOUND:                -0.545
REMARK  Name = 
REMARK  9 active torsions:
REMARK  status: ('A' for Active; 'I' for Inactive)
REMARK    1  A    between atoms: C_1  and  C_2
REMARK    2  A    between atoms: C_2  and  C_3
REMARK    3  A    between atoms: C_2  and  C_4
REMARK    4  A    between atoms: C_2  and  C_5
REMARK    5  A    between atoms: N_7  and  C_8
REMARK    6  A    between atoms: C_8  and  C_9
REMARK    7  A    between atoms: C_12  and  C_13
REMARK    8  A    between atoms: C_13  and  C_14
REMARK    9  A    between atoms: C_14  and  N_15
REMARK                            x       y       z     vdW  Elec       q    Type
REMARK                         _______ _______ _______ _____ _____    ______ ____
ROOT
ATOM      1  C   UNL     1      44.214   5.179  11.806  0.00  0.00    +0.000 A 
ATOM      2  C   UNL     1      43.652   3.930  12.073  0.00  0.00    +0.000 A 
ATOM      3  C   UNL     1      43.771   2.889  11.156  0.00  0.00    +0.000 A 
ATOM      4  C   UNL     1      44.421   3.072   9.926  0.00  0.00    +0.000 A 
ATOM      5  C   UNL     1      44.940   4.341   9.637  0.00  0.00    +0.000 A 
ATOM      6  C   UNL     1      44.838   5.385  10.568  0.00  0.00    +0.000 A 
ENDROOT
BRANCH   1   7
ATOM      7  C   UNL     1      44.247   6.225  12.893  0.00  0.00    +0.000 C 
BRANCH   7  10
ATOM      8  C   UNL     1      47.460   7.943  12.813  0.00  0.00    +0.000 A 
ATOM      9  C   UNL     1      46.653   6.843  13.043  0.00  0.00    +0.000 A 
ATOM     10  N   UNL     1      45.366   7.136  12.676  0.00  0.00    +0.000 N 
ATOM     11  C   UNL     1      45.311   8.402  12.132  0.00  0.00    +0.000 A 
ATOM     12  C   UNL     1      44.236   9.132  11.590  0.00  0.00    +0.000 A 
ATOM     13  C   UNL     1      44.471  10.430  11.133  0.00  0.00    +0.000 A 
ATOM     14  C   UNL     1      45.740  10.989  11.208  0.00  0.00    +0.000 A 
ATOM     15  C   UNL     1      46.803  10.258  11.747  0.00  0.00    +0.000 A 
ATOM     16  C   UNL     1      46.600   8.939  12.219  0.00  0.00    +0.000 A 
BRANCH   8  18
ATOM     17  C   UNL     1      49.316   9.443  13.683  0.00  0.00    +0.000 C 
ATOM     18  C   UNL     1      48.948   8.041  13.139  0.00  0.00    +0.000 C 
ATOM     19  C   UNL     1      49.798   7.809  11.873  0.00  0.00    +0.000 C 
ATOM     20  C   UNL     1      49.338   7.014  14.219  0.00  0.00    +0.000 C 
ENDBRANCH   8  18
ENDBRANCH   7  10
ENDBRANCH   1   7
BRANCH   4  21
ATOM     21  C   UNL     1      44.641   1.921   8.959  0.00  0.00    +0.000 C 
BRANCH  21  22
ATOM     22  C   UNL     1      46.064   1.874   8.393  0.00  0.00    +0.000 C 
BRANCH  22  23
ATOM     23  N   UNL     1      46.201   2.506   7.089  0.00  0.00    +0.000 N 
ATOM     24  C   UNL     1      47.345   2.358   6.373  0.00  0.00    +0.000 C 
ATOM     25  N   UNL     1      48.275   1.489   6.534  0.00  0.00    +0.000 NA
ATOM     26  N   UNL     1      47.469   3.278   5.401  0.00  0.00    +0.000 N 
ATOM     27  H   UNL     1      45.838   3.453   7.054  0.00  0.00    +0.000 HD
ATOM     28  H   UNL     1      48.037   0.874   7.310  0.00  0.00    +0.000 HD
ATOM     29  H   UNL     1      46.616   3.479   4.898  0.00  0.00    +0.000 HD
ATOM     30  H   UNL     1      48.211   2.990   4.768  0.00  0.00    +0.000 HD
ENDBRANCH  22  23
ENDBRANCH  21  22
ENDBRANCH   4  21
TORSDOF 6
ENDMDL
MODEL 2
REMARK VINA RESULT:    -6.920      1.318      2.882
REMARK INTER + INTRA:          -9.893
REMARK INTER:                  -8.998
REMARK INTRA:                  -0.895
REMARK UNBOUND:                -0.545
REMARK  Name = 
REMARK  9 active torsions:
REMARK  status: ('A' for Active; 'I' for Inactive)
REMARK    1  A    between atoms: C_1  and  C_2
REMARK    2  A    between atoms: C_2  and  C_3
REMARK    3  A    between atoms: C_2  and  C_4
REMARK    4  A    between atoms: C_2  and  C_5
REMARK    5  A    between atoms: N_7  and  C_8
REMARK    6  A    between atoms: C_8  and  C_9
REMARK    7  A    between atoms: C_12  and  C_13
REMARK    8  A    between atoms: C_13  and  C_14
REMARK    9  A    between atoms: C_14  and  N_15
REMARK                            x       y       z     vdW  Elec       q    Type
REMARK                         _______ _______ _______ _____ _____    ______ ____
ROOT
ATOM      1  C   UNL     1      44.533   5.600  10.642  0.00  0.00    +0.000 A 
ATOM      2  C   UNL     1      43.707   4.521  10.956  0.00  0.00    +0.000 A 
ATOM      3  C   UNL     1      43.894   3.283  10.348  0.00  0.00    +0.000 A 
ATOM      4  C   UNL     1      44.888   3.090   9.377  0.00  0.00    +0.000 A 
ATOM      5  C   UNL     1      45.685   4.188   9.024  0.00  0.00    +0.000 A 
ATOM      6  C   UNL     1      45.511   5.430   9.651  0.00  0.00    +0.000 A 
ENDROOT
BRANCH   1   7
ATOM      7  C   UNL     1      44.442   6.867  11.455  0.00  0.00    +0.000 C 
BRANCH   7  10
ATOM      8  C   UNL     1      47.676   8.043  12.654  0.00  0.00    +0.000 A 
ATOM      9  C   UNL     1      46.518   8.162  11.907  0.00  0.00    +0.000 A 
ATOM     10  N   UNL     1      45.697   7.097  12.165  0.00  0.00    +0.000 N 
ATOM     11  C   UNL     1      46.259   6.296  13.136  0.00  0.00    +0.000 A 
ATOM     12  C   UNL     1      45.793   5.119  13.751  0.00  0.00    +0.000 A 
ATOM     13  C   UNL     1      46.605   4.491  14.698  0.00  0.00    +0.000 A 
ATOM     14  C   UNL     1      47.846   5.019  15.029  0.00  0.00    +0.000 A 
ATOM     15  C   UNL     1      48.303   6.188  14.413  0.00  0.00    +0.000 A 
ATOM     16  C   UNL     1      47.505   6.851  13.450  0.00  0.00    +0.000 A 
BRANCH   8  18
ATOM     17  C   UNL     1      50.159   8.269  12.168  0.00  0.00    +0.000 C 
ATOM     18  C   UNL     1      48.867   8.997  12.612  0.00  0.00    +0.000 C 
ATOM     19  C   UNL     1      49.139   9.590  14.011  0.00  0.00    +0.000 C 
ATOM     20  C   UNL     1      48.616  10.138  11.607  0.00  0.00    +0.000 C 
ENDBRANCH   8  18
ENDBRANCH   7  10
ENDBRANCH   1   7
BRANCH   4  21
ATOM     21  C   UNL     1      45.166   1.724   8.777  0.00  0.00    +0.000 C 
BRANCH  21  22
ATOM     22  C   UNL     1      46.529   1.636   8.083  0.00  0.00    +0.000 C 
BRANCH  22  23
ATOM     23  N   UNL     1      46.491   1.970   6.666  0.00  0.00    +0.000 N 
ATOM     24  C   UNL     1      47.603   2.439   6.043  0.00  0.00    +0.000 C 
ATOM     25  N   UNL     1      48.820   2.381   6.444  0.00  0.00    +0.000 NA
ATOM     26  N   UNL     1      47.325   3.043   4.876  0.00  0.00    +0.000 N 
ATOM     27  H   UNL     1      45.649   2.460   6.385  0.00  0.00    +0.000 HD
ATOM     28  H   UNL     1      48.863   1.903   7.343  0.00  0.00    +0.000 HD
ATOM     29  H   UNL     1      46.627   2.577   4.314  0.00  0.00    +0.000 HD
ATOM     30  H   UNL     1      48.191   3.170   4.357  0.00  0.00    +0.000 HD
ENDBRANCH  22  23
ENDBRANCH  21  22
ENDBRANCH   4  21
TORSDOF 6
ENDMDL
MODEL 3
REMARK VINA RESULT:    -6.673      3.777      7.130
REMARK INTER + INTRA:          -9.559
REMARK INTER:                  -9.052
REMARK INTRA:                  -0.506
REMARK UNBOUND:                -0.545
REMARK  Name = 
REMARK  9 active torsions:
REMARK  status: ('A' for Active; 'I' for Inactive)
REMARK    1  A    between atoms: C_1  and  C_2
REMARK    2  A    between atoms: C_2  and  C_3
REMARK    3  A    between atoms: C_2  and  C_4
REMARK    4  A    between atoms: C_2  and  C_5
REMARK    5  A    between atoms: N_7  and  C_8
REMARK    6  A    between atoms: C_8  and  C_9
REMARK    7  A    between atoms: C_12  and  C_13
REMARK    8  A    between atoms: C_13  and  C_14
REMARK    9  A    between atoms: C_14  and  N_15
REMARK                            x       y       z     vdW  Elec       q    Type
REMARK                         _______ _______ _______ _____ _____    ______ ____
ROOT
ATOM      1  C   UNL     1      48.308   6.340  14.421  0.00  0.00    +0.000 A 
ATOM      2  C   UNL     1      49.194   6.976  15.292  0.00  0.00    +0.000 A 
ATOM      3  C   UNL     1      49.359   6.517  16.596  0.00  0.00    +0.000 A 
ATOM      4  C   UNL     1      48.616   5.432  17.086  0.00  0.00    +0.000 A 
ATOM      5  C   UNL     1      47.689   4.826  16.227  0.00  0.00    +0.000 A 
ATOM      6  C   UNL     1      47.538   5.274  14.907  0.00  0.00    +0.000 A 
ENDROOT
BRANCH   1   7
ATOM      7  C   UNL     1      48.296   6.726  12.963  0.00  0.00    +0.000 C 
BRANCH   7  10
ATOM      8  C   UNL     1      45.092   5.689  11.569  0.00  0.00    +0.000 A 
ATOM      9  C   UNL     1      46.317   5.446  12.165  0.00  0.00    +0.000 A 
ATOM     10  N   UNL     1      46.938   6.636  12.433  0.00  0.00    +0.000 N 
ATOM     11  C   UNL     1      46.112   7.684  12.090  0.00  0.00    +0.000 A 
ATOM     12  C   UNL     1      46.286   9.077  12.201  0.00  0.00    +0.000 A 
ATOM     13  C   UNL     1      45.274   9.918  11.734  0.00  0.00    +0.000 A 
ATOM     14  C   UNL     1      44.118   9.392  11.173  0.00  0.00    +0.000 A 
ATOM     15  C   UNL     1      43.951   8.007  11.066  0.00  0.00    +0.000 A 
ATOM     16  C   UNL     1      44.957   7.126  11.531  0.00  0.00    +0.000 A 
BRANCH   8  18
ATOM     17  C   UNL     1      44.471   3.227  11.623  0.00  0.00    +0.000 C 
ATOM     18  C   UNL     1      44.118   4.627  11.067  0.00  0.00    +0.000 C 
ATOM     19  C   UNL     1      44.166   4.529   9.528  0.00  0.00    +0.000 C 
ATOM     20  C   UNL     1      42.680   4.949  11.520  0.00  0.00    +0.000 C 
ENDBRANCH   8  18
ENDBRANCH   7  10
ENDBRANCH   1   7
BRANCH   4  21
ATOM     21  C   UNL     1      48.854   4.862  18.473  0.00  0.00    +0.000 C 
BRANCH  21  22
ATOM     22  C   UNL     1      48.869   3.331  18.501  0.00  0.00    +0.000 C 
BRANCH  22  23
ATOM     23  N   UNL     1      50.167   2.748  18.191  0.00  0.00    +0.000 N 
ATOM     24  C   UNL     1      50.315   1.938  17.111  0.00  0.00    +0.000 C 
ATOM     25  N   UNL     1      49.529   1.804  16.107  0.00  0.00    +0.000 NA
ATOM     26  N   UNL     1      51.434   1.197  17.171  0.00  0.00    +0.000 N 
ATOM     27  H   UNL     1      50.667   2.408  19.006  0.00  0.00    +0.000 HD
ATOM     28  H   UNL     1      48.728   2.425  16.214  0.00  0.00    +0.000 HD
ATOM     29  H   UNL     1      52.249   1.687  17.512  0.00  0.00    +0.000 HD
ATOM     30  H   UNL     1      51.607   0.787  16.256  0.00  0.00    +0.000 HD
ENDBRANCH  22  23
ENDBRANCH  21  22
ENDBRANCH   4  21
TORSDOF 6
ENDMDL
MODEL 4
REMARK VINA RESULT:    -6.670      2.615      7.589
REMARK INTER + INTRA:          -9.554
REMARK INTER:                  -8.520
REMARK INTRA:                  -1.034
REMARK UNBOUND:                -0.545
REMARK  Name = 
REMARK  9 active torsions:
REMARK  status: ('A' for Active; 'I' for Inactive)
REMARK    1  A    between atoms: C_1  and  C_2
REMARK    2  A    between atoms: C_2  and  C_3
REMARK    3  A    between atoms: C_2  and  C_4
REMARK    4  A    between atoms: C_2  and  C_5
REMARK    5  A    between atoms: N_7  and  C_8
REMARK    6  A    between atoms: C_8  and  C_9
REMARK    7  A    between atoms: C_12  and  C_13
REMARK    8  A    between atoms: C_13  and  C_14
REMARK    9  A    between atoms: C_14  and  N_15
REMARK                            x       y       z     vdW  Elec       q    Type
REMARK                         _______ _______ _______ _____ _____    ______ ____
ROOT
ATOM      1  C   UNL     1      46.737   7.467  12.292  0.00  0.00    +0.000 A 
ATOM      2  C   UNL     1      46.567   8.410  13.306  0.00  0.00    +0.000 A 
ATOM      3  C   UNL     1      47.528   8.564  14.301  0.00  0.00    +0.000 A 
ATOM      4  C   UNL     1      48.673   7.754  14.339  0.00  0.00    +0.000 A 
ATOM      5  C   UNL     1      48.819   6.772  13.350  0.00  0.00    +0.000 A 
ATOM      6  C   UNL     1      47.861   6.630  12.336  0.00  0.00    +0.000 A 
ENDROOT
BRANCH   1   7
ATOM      7  C   UNL     1      45.788   7.458  11.120  0.00  0.00    +0.000 C 
BRANCH   7  10
ATOM      8  C   UNL     1      45.446   4.289   9.353  0.00  0.00    +0.000 A 
ATOM      9  C   UNL     1      45.950   5.568   9.509  0.00  0.00    +0.000 A 
ATOM     10  N   UNL     1      45.521   6.085  10.703  0.00  0.00    +0.000 N 
ATOM     11  C   UNL     1      44.791   5.138  11.388  0.00  0.00    +0.000 A 
ATOM     12  C   UNL     1      44.174   5.180  12.653  0.00  0.00    +0.000 A 
ATOM     13  C   UNL     1      43.460   4.061  13.088  0.00  0.00    +0.000 A 
ATOM     14  C   UNL     1      43.363   2.929  12.290  0.00  0.00    +0.000 A 
ATOM     15  C   UNL     1      43.978   2.894  11.034  0.00  0.00    +0.000 A 
ATOM     16  C   UNL     1      44.711   4.010  10.564  0.00  0.00    +0.000 A 
BRANCH   8  18
ATOM     17  C   UNL     1      46.004   1.946   8.547  0.00  0.00    +0.000 C 
ATOM     18  C   UNL     1      45.647   3.394   8.133  0.00  0.00    +0.000 C 
ATOM     19  C   UNL     1      46.809   3.915   7.262  0.00  0.00    +0.000 C 
ATOM     20  C   UNL     1      44.360   3.325   7.289  0.00  0.00    +0.000 C 
ENDBRANCH   8  18
ENDBRANCH   7  10
ENDBRANCH   1   7
BRANCH   4  21
ATOM     21  C   UNL     1      49.775   7.974  15.362  0.00  0.00    +0.000 C 
BRANCH  21  22
ATOM     22  C   UNL     1      50.102   6.718  16.174  0.00  0.00    +0.000 C 
BRANCH  22  23
ATOM     23  N   UNL     1      49.104   6.392  17.184  0.00  0.00    +0.000 N 
ATOM     24  C   UNL     1      48.305   5.305  17.031  0.00  0.00    +0.000 C 
ATOM     25  N   UNL     1      48.467   4.306  16.243  0.00  0.00    +0.000 NA
ATOM     26  N   UNL     1      47.218   5.349  17.819  0.00  0.00    +0.000 N 
ATOM     27  H   UNL     1      48.602   7.200  17.536  0.00  0.00    +0.000 HD
ATOM     28  H   UNL     1      49.328   4.426  15.711  0.00  0.00    +0.000 HD
ATOM     29  H   UNL     1      47.388   5.686  18.756  0.00  0.00    +0.000 HD
ATOM     30  H   UNL     1      46.783   4.429  17.832  0.00  0.00    +0.000 HD
ENDBRANCH  22  23
ENDBRANCH  21  22
ENDBRANCH   4  21
TORSDOF 6
ENDMDL
MODEL 5
REMARK VINA RESULT:    -6.622      3.513      6.860
REMARK INTER + INTRA:          -9.491
REMARK INTER:                  -8.594
REMARK INTRA:                  -0.897
REMARK UNBOUND:                -0.545
REMARK  Name = 
REMARK  9 active torsions:
REMARK  status: ('A' for Active; 'I' for Inactive)
REMARK    1  A    between atoms: C_1  and  C_2
REMARK    2  A    between atoms: C_2  and  C_3
REMARK    3  A    between atoms: C_2  and  C_4
REMARK    4  A    between atoms: C_2  and  C_5
REMARK    5  A    between atoms: N_7  and  C_8
REMARK    6  A    between atoms: C_8  and  C_9
REMARK    7  A    between atoms: C_12  and  C_13
REMARK    8  A    between atoms: C_13  and  C_14
REMARK    9  A    between atoms: C_14  and  N_15
REMARK                            x       y       z     vdW  Elec       q    Type
REMARK                         _______ _______ _______ _____ _____    ______ ____
ROOT
ATOM      1  C   UNL     1      48.441   7.964  13.951  0.00  0.00    +0.000 A 
ATOM      2  C   UNL     1      47.246   8.682  13.911  0.00  0.00    +0.000 A 
ATOM      3  C   UNL     1      46.213   8.295  13.062  0.00  0.00    +0.000 A 
ATOM      4  C   UNL     1      46.354   7.200  12.196  0.00  0.00    +0.000 A 
ATOM      5  C   UNL     1      47.574   6.510  12.199  0.00  0.00    +0.000 A 
ATOM      6  C   UNL     1      48.607   6.887  13.069  0.00  0.00    +0.000 A 
ENDROOT
BRANCH   1   7
ATOM      7  C   UNL     1      49.461   8.279  15.016  0.00  0.00    +0.000 C 
BRANCH   7  10
ATOM      8  C   UNL     1      49.414   5.246  17.036  0.00  0.00    +0.000 A 
ATOM      9  C   UNL     1      48.816   6.223  16.261  0.00  0.00    +0.000 A 
ATOM     10  N   UNL     1      49.775   7.075  15.781  0.00  0.00    +0.000 N 
ATOM     11  C   UNL     1      51.024   6.641  16.167  0.00  0.00    +0.000 A 
ATOM     12  C   UNL     1      52.308   7.154  15.900  0.00  0.00    +0.000 A 
ATOM     13  C   UNL     1      53.416   6.513  16.459  0.00  0.00    +0.000 A 
ATOM     14  C   UNL     1      53.255   5.389  17.258  0.00  0.00    +0.000 A 
ATOM     15  C   UNL     1      51.977   4.884  17.518  0.00  0.00    +0.000 A 
ATOM     16  C   UNL     1      50.833   5.509  16.967  0.00  0.00    +0.000 A 
BRANCH   8  18
ATOM     17  C   UNL     1      47.168   4.155  17.499  0.00  0.00    +0.000 C 
ATOM     18  C   UNL     1      48.687   4.140  17.795  0.00  0.00    +0.000 C 
ATOM     19  C   UNL     1      48.854   4.324  19.318  0.00  0.00    +0.000 C 
ATOM     20  C   UNL     1      49.220   2.754  17.381  0.00  0.00    +0.000 C 
ENDBRANCH   8  18
ENDBRANCH   7  10
ENDBRANCH   1   7
BRANCH   4  21
ATOM     21  C   UNL     1      45.203   6.708  11.335  0.00  0.00    +0.000 C 
BRANCH  21  22
ATOM     22  C   UNL     1      45.329   5.232  10.948  0.00  0.00    +0.000 C 
BRANCH  22  23
ATOM     23  N   UNL     1      44.301   4.380  11.531  0.00  0.00    +0.000 N 
ATOM     24  C   UNL     1      44.649   3.299  12.276  0.00  0.00    +0.000 C 
ATOM     25  N   UNL     1      45.785   3.036  12.809  0.00  0.00    +0.000 NA
ATOM     26  N   UNL     1      43.639   2.425  12.420  0.00  0.00    +0.000 N 
ATOM     27  H   UNL     1      43.525   4.191  10.905  0.00  0.00    +0.000 HD
ATOM     28  H   UNL     1      46.442   3.787  12.604  0.00  0.00    +0.000 HD
ATOM     29  H   UNL     1      42.736   2.846  12.585  0.00  0.00    +0.000 HD
ATOM     30  H   UNL     1      43.878   1.764  13.155  0.00  0.00    +0.000 HD
ENDBRANCH  22  23
ENDBRANCH  21  22
ENDBRANCH   4  21
TORSDOF 6
ENDMDL
MODEL 6
REMARK VINA RESULT:    -6.600      1.876      3.427
REMARK INTER + INTRA:          -9.460
REMARK INTER:                  -8.735
REMARK INTRA:                  -0.725
REMARK UNBOUND:                -0.545
REMARK  Name = 
REMARK  9 active torsions:
REMARK  status: ('A' for Active; 'I' for Inactive)
REMARK    1  A    between atoms: C_1  and  C_2
REMARK    2  A    between atoms: C_2  and  C_3
REMARK    3  A    between atoms: C_2  and  C_4
REMARK    4  A    between atoms: C_2  and  C_5
REMARK    5  A    between atoms: N_7  and  C_8
REMARK    6  A    between atoms: C_8  and  C_9
REMARK    7  A    between atoms: C_12  and  C_13
REMARK    8  A    between atoms: C_13  and  C_14
REMARK    9  A    between atoms: C_14  and  N_15
REMARK                            x       y       z     vdW  Elec       q    Type
REMARK                         _______ _______ _______ _____ _____    ______ ____
ROOT
ATOM      1  C   UNL     1      45.955   6.187  12.325  0.00  0.00    +0.000 A 
ATOM      2  C   UNL     1      45.758   6.282  10.947  0.00  0.00    +0.000 A 
ATOM      3  C   UNL     1      45.326   5.180  10.214  0.00  0.00    +0.000 A 
ATOM      4  C   UNL     1      45.113   3.936  10.827  0.00  0.00    +0.000 A 
ATOM      5  C   UNL     1      45.360   3.827  12.202  0.00  0.00    +0.000 A 
ATOM      6  C   UNL     1      45.776   4.942  12.944  0.00  0.00    +0.000 A 
ENDROOT
BRANCH   1   7
ATOM      7  C   UNL     1      46.226   7.437  13.124  0.00  0.00    +0.000 C 
BRANCH   7  10
ATOM      8  C   UNL     1      49.270   7.155  15.109  0.00  0.00    +0.000 A 
ATOM      9  C   UNL     1      47.926   6.933  14.870  0.00  0.00    +0.000 A 
ATOM     10  N   UNL     1      47.594   7.418  13.634  0.00  0.00    +0.000 N 
ATOM     11  C   UNL     1      48.720   7.903  13.003  0.00  0.00    +0.000 A 
ATOM     12  C   UNL     1      48.897   8.467  11.725  0.00  0.00    +0.000 A 
ATOM     13  C   UNL     1      50.170   8.909  11.358  0.00  0.00    +0.000 A 
ATOM     14  C   UNL     1      51.241   8.789  12.234  0.00  0.00    +0.000 A 
ATOM     15  C   UNL     1      51.058   8.227  13.501  0.00  0.00    +0.000 A 
ATOM     16  C   UNL     1      49.782   7.769  13.905  0.00  0.00    +0.000 A 
BRANCH   8  18
ATOM     17  C   UNL     1      51.537   6.660  16.141  0.00  0.00    +0.000 C 
ATOM     18  C   UNL     1      50.018   6.812  16.394  0.00  0.00    +0.000 C 
ATOM     19  C   UNL     1      49.519   5.470  16.971  0.00  0.00    +0.000 C 
ATOM     20  C   UNL     1      49.837   7.925  17.444  0.00  0.00    +0.000 C 
ENDBRANCH   8  18
ENDBRANCH   7  10
ENDBRANCH   1   7
BRANCH   4  21
ATOM     21  C   UNL     1      44.550   2.752  10.059  0.00  0.00    +0.000 C 
BRANCH  21  22
ATOM     22  C   UNL     1      44.801   2.838   8.550  0.00  0.00    +0.000 C 
BRANCH  22  23
ATOM     23  N   UNL     1      46.078   2.277   8.133  0.00  0.00    +0.000 N 
ATOM     24  C   UNL     1      46.860   2.940   7.242  0.00  0.00    +0.000 C 
ATOM     25  N   UNL     1      46.792   4.172   6.891  0.00  0.00    +0.000 NA
ATOM     26  N   UNL     1      47.790   2.149   6.682  0.00  0.00    +0.000 N 
ATOM     27  H   UNL     1      46.046   1.278   7.956  0.00  0.00    +0.000 HD
ATOM     28  H   UNL     1      46.036   4.631   7.397  0.00  0.00    +0.000 HD
ATOM     29  H   UNL     1      48.236   1.504   7.318  0.00  0.00    +0.000 HD
ATOM     30  H   UNL     1      48.475   2.732   6.206  0.00  0.00    +0.000 HD
ENDBRANCH  22  23
ENDBRANCH  21  22
ENDBRANCH   4  21
TORSDOF 6
ENDMDL
MODEL 7
REMARK VINA RESULT:    -6.578      3.609      6.121
REMARK INTER + INTRA:          -9.431
REMARK INTER:                  -8.554
REMARK INTRA:                  -0.878
REMARK UNBOUND:                -0.545
REMARK  Name = 
REMARK  9 active torsions:
REMARK  status: ('A' for Active; 'I' for Inactive)
REMARK    1  A    between atoms: C_1  and  C_2
REMARK    2  A    between atoms: C_2  and  C_3
REMARK    3  A    between atoms: C_2  and  C_4
REMARK    4  A    between atoms: C_2  and  C_5
REMARK    5  A    between atoms: N_7  and  C_8
REMARK    6  A    between atoms: C_8  and  C_9
REMARK    7  A    between atoms: C_12  and  C_13
REMARK    8  A    between atoms: C_13  and  C_14
REMARK    9  A    between atoms: C_14  and  N_15
REMARK                            x       y       z     vdW  Elec       q    Type
REMARK                         _______ _______ _______ _____ _____    ______ ____
ROOT
ATOM      1  C   UNL     1      48.142   7.614  13.675  0.00  0.00    +0.000 A 
ATOM      2  C   UNL     1      47.075   8.513  13.640  0.00  0.00    +0.000 A 
ATOM      3  C   UNL     1      45.909   8.204  12.945  0.00  0.00    +0.000 A 
ATOM      4  C   UNL     1      45.784   7.003  12.228  0.00  0.00    +0.000 A 
ATOM      5  C   UNL     1      46.876   6.124  12.221  0.00  0.00    +0.000 A 
ATOM      6  C   UNL     1      48.042   6.425  12.938  0.00  0.00    +0.000 A 
ENDROOT
BRANCH   1   7
ATOM      7  C   UNL     1      49.307   7.880  14.595  0.00  0.00    +0.000 C 
BRANCH   7  10
ATOM      8  C   UNL     1      48.843   5.680  17.463  0.00  0.00    +0.000 A 
ATOM      9  C   UNL     1      49.281   5.964  16.182  0.00  0.00    +0.000 A 
ATOM     10  N   UNL     1      49.057   7.286  15.905  0.00  0.00    +0.000 N 
ATOM     11  C   UNL     1      48.535   7.915  17.014  0.00  0.00    +0.000 A 
ATOM     12  C   UNL     1      48.171   9.258  17.233  0.00  0.00    +0.000 A 
ATOM     13  C   UNL     1      47.629   9.612  18.471  0.00  0.00    +0.000 A 
ATOM     14  C   UNL     1      47.456   8.660  19.467  0.00  0.00    +0.000 A 
ATOM     15  C   UNL     1      47.820   7.328  19.243  0.00  0.00    +0.000 A 
ATOM     16  C   UNL     1      48.374   6.936  18.000  0.00  0.00    +0.000 A 
BRANCH   8  18
ATOM     17  C   UNL     1      48.951   4.430  19.671  0.00  0.00    +0.000 C 
ATOM     18  C   UNL     1      48.865   4.308  18.130  0.00  0.00    +0.000 C 
ATOM     19  C   UNL     1      50.097   3.500  17.671  0.00  0.00    +0.000 C 
ATOM     20  C   UNL     1      47.581   3.522  17.804  0.00  0.00    +0.000 C 
ENDBRANCH   8  18
ENDBRANCH   7  10
ENDBRANCH   1   7
BRANCH   4  21
ATOM     21  C   UNL     1      44.486   6.611  11.546  0.00  0.00    +0.000 C 
BRANCH  21  22
ATOM     22  C   UNL     1      43.755   5.466  12.253  0.00  0.00    +0.000 C 
BRANCH  22  23
ATOM     23  N   UNL     1      43.527   4.302  11.409  0.00  0.00    +0.000 N 
ATOM     24  C   UNL     1      44.287   3.186  11.560  0.00  0.00    +0.000 C 
ATOM     25  N   UNL     1      45.033   2.864  12.552  0.00  0.00    +0.000 NA
ATOM     26  N   UNL     1      44.220   2.368  10.497  0.00  0.00    +0.000 N 
ATOM     27  H   UNL     1      43.359   4.531  10.435  0.00  0.00    +0.000 HD
ATOM     28  H   UNL     1      44.982   3.586  13.269  0.00  0.00    +0.000 HD
ATOM     29  H   UNL     1      43.297   2.264  10.101  0.00  0.00    +0.000 HD
ATOM     30  H   UNL     1      44.617   1.465  10.750  0.00  0.00    +0.000 HD
ENDBRANCH  22  23
ENDBRANCH  21  22
ENDBRANCH   4  21
TORSDOF 6
ENDMDL
MODEL 8
REMARK VINA RESULT:    -6.535      3.428      5.904
REMARK INTER + INTRA:          -9.372
REMARK INTER:                  -8.302
REMARK INTRA:                  -1.070
REMARK UNBOUND:                -0.545
REMARK  Name = 
REMARK  9 active torsions:
REMARK  status: ('A' for Active; 'I' for Inactive)
REMARK    1  A    between atoms: C_1  and  C_2
REMARK    2  A    between atoms: C_2  and  C_3
REMARK    3  A    between atoms: C_2  and  C_4
REMARK    4  A    between atoms: C_2  and  C_5
REMARK    5  A    between atoms: N_7  and  C_8
REMARK    6  A    between atoms: C_8  and  C_9
REMARK    7  A    between atoms: C_12  and  C_13
REMARK    8  A    between atoms: C_13  and  C_14
REMARK    9  A    between atoms: C_14  and  N_15
REMARK                            x       y       z     vdW  Elec       q    Type
REMARK                         _______ _______ _______ _____ _____    ______ ____
ROOT
ATOM      1  C   UNL     1      47.487   6.346  13.672  0.00  0.00    +0.000 A 
ATOM      2  C   UNL     1      46.664   7.342  13.145  0.00  0.00    +0.000 A 
ATOM      3  C   UNL     1      45.351   7.057  12.778  0.00  0.00    +0.000 A 
ATOM      4  C   UNL     1      44.829   5.759  12.888  0.00  0.00    +0.000 A 
ATOM      5  C   UNL     1      45.672   4.748  13.369  0.00  0.00    +0.000 A 
ATOM      6  C   UNL     1      46.988   5.038  13.758  0.00  0.00    +0.000 A 
ENDROOT
BRANCH   1   7
ATOM      7  C   UNL     1      48.830   6.720  14.248  0.00  0.00    +0.000 C 
BRANCH   7  10
ATOM      8  C   UNL     1      48.548   8.444  17.446  0.00  0.00    +0.000 A 
ATOM      9  C   UNL     1      48.546   8.397  16.064  0.00  0.00    +0.000 A 
ATOM     10  N   UNL     1      48.685   7.099  15.650  0.00  0.00    +0.000 N 
ATOM     11  C   UNL     1      48.708   6.259  16.742  0.00  0.00    +0.000 A 
ATOM     12  C   UNL     1      48.802   4.857  16.832  0.00  0.00    +0.000 A 
ATOM     13  C   UNL     1      48.835   4.267  18.098  0.00  0.00    +0.000 A 
ATOM     14  C   UNL     1      48.771   5.048  19.244  0.00  0.00    +0.000 A 
ATOM     15  C   UNL     1      48.677   6.440  19.148  0.00  0.00    +0.000 A 
ATOM     16  C   UNL     1      48.641   7.070  17.881  0.00  0.00    +0.000 A 
BRANCH   8  18
ATOM     17  C   UNL     1      48.289  10.970  17.419  0.00  0.00    +0.000 C 
ATOM     18  C   UNL     1      48.469   9.708  18.297  0.00  0.00    +0.000 C 
ATOM     19  C   UNL     1      49.768   9.901  19.106  0.00  0.00    +0.000 C 
ATOM     20  C   UNL     1      47.266   9.645  19.258  0.00  0.00    +0.000 C 
ENDBRANCH   8  18
ENDBRANCH   7  10
ENDBRANCH   1   7
BRANCH   4  21
ATOM     21  C   UNL     1      43.373   5.454  12.581  0.00  0.00    +0.000 C 
BRANCH  21  22
ATOM     22  C   UNL     1      43.072   5.402  11.081  0.00  0.00    +0.000 C 
BRANCH  22  23
ATOM     23  N   UNL     1      43.515   4.176  10.433  0.00  0.00    +0.000 N 
ATOM     24  C   UNL     1      44.421   4.224   9.422  0.00  0.00    +0.000 C 
ATOM     25  N   UNL     1      45.200   5.191   9.101  0.00  0.00    +0.000 NA
ATOM     26  N   UNL     1      44.442   3.095   8.695  0.00  0.00    +0.000 N 
ATOM     27  H   UNL     1      42.766   3.515  10.256  0.00  0.00    +0.000 HD
ATOM     28  H   UNL     1      45.058   5.972   9.740  0.00  0.00    +0.000 HD
ATOM     29  H   UNL     1      44.376   2.243   9.233  0.00  0.00    +0.000 HD
ATOM     30  H   UNL     1      45.274   3.096   8.108  0.00  0.00    +0.000 HD
ENDBRANCH  22  23
ENDBRANCH  21  22
ENDBRANCH   4  21
TORSDOF 6
ENDMDL
MODEL 9
REMARK VINA RESULT:    -6.466      3.207      5.212
REMARK INTER + INTRA:          -9.279
REMARK INTER:                  -8.276
REMARK INTRA:                  -1.003
REMARK UNBOUND:                -0.545
REMARK  Name = 
REMARK  9 active torsions:
REMARK  status: ('A' for Active; 'I' for Inactive)
REMARK    1  A    between atoms: C_1  and  C_2
REMARK    2  A    between atoms: C_2  and  C_3
REMARK    3  A    between atoms: C_2  and  C_4
REMARK    4  A    between atoms: C_2  and  C_5
REMARK    5  A    between atoms: N_7  and  C_8
REMARK    6  A    between atoms: C_8  and  C_9
REMARK    7  A    between atoms: C_12  and  C_13
REMARK    8  A    between atoms: C_13  and  C_14
REMARK    9  A    between atoms: C_14  and  N_15
REMARK                            x       y       z     vdW  Elec       q    Type
REMARK                         _______ _______ _______ _____ _____    ______ ____
ROOT
ATOM      1  C   UNL     1      47.323   6.577  13.435  0.00  0.00    +0.000 A 
ATOM      2  C   UNL     1      46.819   5.290  13.250  0.00  0.00    +0.000 A 
ATOM      3  C   UNL     1      45.599   5.090  12.610  0.00  0.00    +0.000 A 
ATOM      4  C   UNL     1      44.823   6.171  12.167  0.00  0.00    +0.000 A 
ATOM      5  C   UNL     1      45.305   7.467  12.399  0.00  0.00    +0.000 A 
ATOM      6  C   UNL     1      46.543   7.668  13.025  0.00  0.00    +0.000 A 
ENDROOT
BRANCH   1   7
ATOM      7  C   UNL     1      48.730   6.758  13.946  0.00  0.00    +0.000 C 
BRANCH   7  10
ATOM      8  C   UNL     1      48.572   6.341  17.563  0.00  0.00    +0.000 A 
ATOM      9  C   UNL     1      48.694   5.867  16.269  0.00  0.00    +0.000 A 
ATOM     10  N   UNL     1      48.719   6.922  15.396  0.00  0.00    +0.000 N 
ATOM     11  C   UNL     1      48.688   8.109  16.096  0.00  0.00    +0.000 A 
ATOM     12  C   UNL     1      48.725   9.446  15.655  0.00  0.00    +0.000 A 
ATOM     13  C   UNL     1      48.644  10.467  16.605  0.00  0.00    +0.000 A 
ATOM     14  C   UNL     1      48.534  10.170  17.957  0.00  0.00    +0.000 A 
ATOM     15  C   UNL     1      48.498   8.840  18.387  0.00  0.00    +0.000 A 
ATOM     16  C   UNL     1      48.579   7.781  17.452  0.00  0.00    +0.000 A 
BRANCH   8  18
ATOM     17  C   UNL     1      49.682   5.664  19.745  0.00  0.00    +0.000 C 
ATOM     18  C   UNL     1      48.454   5.484  18.820  0.00  0.00    +0.000 C 
ATOM     19  C   UNL     1      48.380   3.987  18.452  0.00  0.00    +0.000 C 
ATOM     20  C   UNL     1      47.207   5.878  19.634  0.00  0.00    +0.000 C 
ENDBRANCH   8  18
ENDBRANCH   7  10
ENDBRANCH   1   7
BRANCH   4  21
ATOM     21  C   UNL     1      43.538   5.966  11.383  0.00  0.00    +0.000 C 
BRANCH  21  22
ATOM     22  C   UNL     1      43.412   4.559  10.791  0.00  0.00    +0.000 C 
BRANCH  22  23
ATOM     23  N   UNL     1      43.895   4.450   9.422  0.00  0.00    +0.000 N 
ATOM     24  C   UNL     1      44.598   3.357   9.029  0.00  0.00    +0.000 C 
ATOM     25  N   UNL     1      44.683   2.217   9.611  0.00  0.00    +0.000 NA
ATOM     26  N   UNL     1      45.281   3.564   7.891  0.00  0.00    +0.000 N 
ATOM     27  H   UNL     1      44.279   5.315   9.055  0.00  0.00    +0.000 HD
ATOM     28  H   UNL     1      44.118   2.223  10.459  0.00  0.00    +0.000 HD
ATOM     29  H   UNL     1      44.780   4.086   7.186  0.00  0.00    +0.000 HD
ATOM     30  H   UNL     1      45.599   2.667   7.529  0.00  0.00    +0.000 HD
ENDBRANCH  22  23
ENDBRANCH  21  22
ENDBRANCH   4  21
TORSDOF 6
ENDMDL
