MODEL 1
REMARK VINA RESULT:    -7.685      0.000      0.000
REMARK INTER + INTRA:          -9.981
REMARK INTER:                  -9.482
REMARK INTRA:                  -0.499
REMARK UNBOUND:                -0.499
REMARK  Name = 
REMARK  4 active torsions:
REMARK  status: ('A' for Active; 'I' for Inactive)
REMARK    1  A    between atoms: C_2  and  C_4
REMARK    2  A    between atoms: C_7  and  O_8
REMARK    3  A    between atoms: O_8  and  C_9
REMARK    4  A    between atoms: C_9  and  C_10
REMARK                            x       y       z     vdW  Elec       q    Type
REMARK                         _______ _______ _______ _____ _____    ______ ____
ROOT
ATOM      1  C   UNL     1      46.389   2.450   7.720  0.00  0.00    +0.000 A 
ATOM      2  C   UNL     1      45.571   1.809   8.654  0.00  0.00    +0.000 A 
ATOM      3  C   UNL     1      44.656   2.568   9.393  0.00  0.00    +0.000 A 
ATOM      4  C   UNL     1      44.597   3.935   9.167  0.00  0.00    +0.000 A 
ATOM      5  N   UNL     1      45.380   4.575   8.271  0.00  0.00    +0.000 NA
ATOM      6  C   UNL     1      46.263   3.823   7.576  0.00  0.00    +0.000 A 
ENDROOT
BRANCH   1   8
ATOM      7  N   UNL     1      48.475   2.471   6.474  0.00  0.00    +0.000 N 
ATOM      8  C   UNL     1      47.398   1.749   6.901  0.00  0.00    +0.000 C 
ATOM      9  O   UNL     1      47.295   0.556   6.642  0.00  0.00    +0.000 OA
ATOM     10  H   UNL     1      49.204   1.950   6.002  0.00  0.00    +0.000 HD
ATOM     11  H   UNL     1      48.725   3.365   6.875  0.00  0.00    +0.000 HD
ENDBRANCH   1   8
BRANCH   4  12
ATOM     12  O   UNL     1      43.687   4.663   9.913  0.00  0.00    +0.000 OA
BRANCH  12  13
ATOM     13  C   UNL     1      43.489   4.096  11.215  0.00  0.00    +0.000 C 
BRANCH  13  14
ATOM     14  C   UNL     1      44.237   4.911  12.282  0.00  0.00    +0.000 C 
ATOM     15  C   UNL     1      44.604   6.308  11.757  0.00  0.00    +0.000 C 
ATOM     16  C   UNL     1      45.433   7.094  12.770  0.00  0.00    +0.000 C 
ATOM     17  C   UNL     1      46.683   6.326  13.189  0.00  0.00    +0.000 C 
ATOM     18  C   UNL     1      46.330   4.946  13.731  0.00  0.00    +0.000 C 
ATOM     19  C   UNL     1      45.495   4.148  12.733  0.00  0.00    +0.000 C 
ENDBRANCH  13  14
ENDBRANCH  12  13
ENDBRANCH   4  12
TORSDOF 4
ENDMDL
MODEL 2
REMARK VINA RESULT:    -7.217      2.710      6.186
REMARK INTER + INTRA:          -9.404
REMARK INTER:                  -9.053
REMARK INTRA:                  -0.351
REMARK UNBOUND:                -0.499
REMARK  Name = 
REMARK  4 active torsions:
REMARK  status: ('A' for Active; 'I' for Inactive)
REMARK    1  A    between atoms: C_2  and  C_4
REMARK    2  A    between atoms: C_7  and  O_8
REMARK    3  A    between atoms: O_8  and  C_9
REMARK    4  A    between atoms: C_9  and  C_10
REMARK                            x       y       z     vdW  Elec       q    Type
REMARK                         _______ _______ _______ _____ _____    ______ ____
ROOT
ATOM      1  C   UNL     1      46.553   5.233  13.070  0.00  0.00    +0.000 A 
ATOM      2  C   UNL     1      46.198   5.979  11.943  0.00  0.00    +0.000 A 
ATOM      3  C   UNL     1      45.413   5.383  10.951  0.00  0.00    +0.000 A 
ATOM      4  C   UNL     1      45.014   4.066  11.125  0.00  0.00    +0.000 A 
ATOM      5  N   UNL     1      45.348   3.326  12.206  0.00  0.00    +0.000 NA
ATOM      6  C   UNL     1      46.115   3.920  13.147  0.00  0.00    +0.000 A 
ENDROOT
BRANCH   1   8
ATOM      7  N   UNL     1      47.554   7.111  14.242  0.00  0.00    +0.000 N 
ATOM      8  C   UNL     1      47.391   5.758  14.166  0.00  0.00    +0.000 C 
ATOM      9  O   UNL     1      47.894   5.014  14.999  0.00  0.00    +0.000 OA
ATOM     10  H   UNL     1      48.047   7.457  15.057  0.00  0.00    +0.000 HD
ATOM     11  H   UNL     1      46.959   7.760  13.746  0.00  0.00    +0.000 HD
ENDBRANCH   1   8
BRANCH   4  12
ATOM     12  O   UNL     1      44.242   3.498  10.128  0.00  0.00    +0.000 OA
BRANCH  12  13
ATOM     13  C   UNL     1      44.507   4.085   8.847  0.00  0.00    +0.000 C 
BRANCH  13  14
ATOM     14  C   UNL     1      45.184   3.069   7.914  0.00  0.00    +0.000 C 
ATOM     15  C   UNL     1      45.717   1.862   8.701  0.00  0.00    +0.000 C 
ATOM     16  C   UNL     1      46.478   0.890   7.802  0.00  0.00    +0.000 C 
ATOM     17  C   UNL     1      47.606   1.588   7.050  0.00  0.00    +0.000 C 
ATOM     18  C   UNL     1      47.088   2.777   6.249  0.00  0.00    +0.000 C 
ATOM     19  C   UNL     1      46.317   3.755   7.131  0.00  0.00    +0.000 C 
ENDBRANCH  13  14
ENDBRANCH  12  13
ENDBRANCH   4  12
TORSDOF 4
ENDMDL
MODEL 3
REMARK VINA RESULT:    -7.217      2.749      6.110
REMARK INTER + INTRA:          -9.403
REMARK INTER:                  -8.928
REMARK INTRA:                  -0.476
REMARK UNBOUND:                -0.499
REMARK  Name = 
REMARK  4 active torsions:
REMARK  status: ('A' for Active; 'I' for Inactive)
REMARK    1  A    between atoms: C_2  and  C_4
REMARK    2  A    between atoms: C_7  and  O_8
REMARK    3  A    between atoms: O_8  and  C_9
REMARK    4  A    between atoms: C_9  and  C_10
REMARK                            x       y       z     vdW  Elec       q    Type
REMARK                         _______ _______ _______ _____ _____    ______ ____
ROOT
ATOM      1  C   UNL     1      46.543   5.077  13.167  0.00  0.00    +0.000 A 
ATOM      2  C   UNL     1      46.293   5.932  12.090  0.00  0.00    +0.000 A 
ATOM      3  C   UNL     1      45.452   5.501  11.059  0.00  0.00    +0.000 A 
ATOM      4  C   UNL     1      44.894   4.234  11.146  0.00  0.00    +0.000 A 
ATOM      5  N   UNL     1      45.124   3.390  12.177  0.00  0.00    +0.000 NA
ATOM      6  C   UNL     1      45.949   3.825  13.156  0.00  0.00    +0.000 A 
ENDROOT
BRANCH   1   8
ATOM      7  N   UNL     1      47.144   4.870  15.512  0.00  0.00    +0.000 N 
ATOM      8  C   UNL     1      47.428   5.424  14.297  0.00  0.00    +0.000 C 
ATOM      9  O   UNL     1      48.401   6.153  14.147  0.00  0.00    +0.000 OA
ATOM     10  H   UNL     1      47.819   5.038  16.249  0.00  0.00    +0.000 HD
ATOM     11  H   UNL     1      46.526   4.077  15.618  0.00  0.00    +0.000 HD
ENDBRANCH   1   8
BRANCH   4  12
ATOM     12  O   UNL     1      44.069   3.830  10.112  0.00  0.00    +0.000 OA
BRANCH  12  13
ATOM     13  C   UNL     1      44.412   2.522   9.635  0.00  0.00    +0.000 C 
BRANCH  13  14
ATOM     14  C   UNL     1      45.658   2.581   8.736  0.00  0.00    +0.000 C 
ATOM     15  C   UNL     1      45.466   3.584   7.588  0.00  0.00    +0.000 C 
ATOM     16  C   UNL     1      46.655   3.582   6.630  0.00  0.00    +0.000 C 
ATOM     17  C   UNL     1      46.937   2.185   6.088  0.00  0.00    +0.000 C 
ATOM     18  C   UNL     1      47.149   1.184   7.218  0.00  0.00    +0.000 C 
ATOM     19  C   UNL     1      45.972   1.177   8.190  0.00  0.00    +0.000 C 
ENDBRANCH  13  14
ENDBRANCH  12  13
ENDBRANCH   4  12
TORSDOF 4
ENDMDL
MODEL 4
REMARK VINA RESULT:    -6.653      2.734      6.348
REMARK INTER + INTRA:          -8.708
REMARK INTER:                  -8.265
REMARK INTRA:                  -0.443
REMARK UNBOUND:                -0.499
REMARK  Name = 
REMARK  4 active torsions:
REMARK  status: ('A' for Active; 'I' for Inactive)
REMARK    1  A    between atoms: C_2  and  C_4
REMARK    2  A    between atoms: C_7  and  O_8
REMARK    3  A    between atoms: O_8  and  C_9
REMARK    4  A    between atoms: C_9  and  C_10
REMARK                            x       y       z     vdW  Elec       q    Type
REMARK                         _______ _______ _______ _____ _____    ______ ____
ROOT
ATOM      1  C   UNL     1      45.492   7.227  12.420  0.00  0.00    +0.000 A 
ATOM      2  C   UNL     1      44.562   6.903  11.428  0.00  0.00    +0.000 A 
ATOM      3  C   UNL     1      44.357   5.559  11.099  0.00  0.00    +0.000 A 
ATOM      4  C   UNL     1      45.089   4.594  11.775  0.00  0.00    +0.000 A 
ATOM      5  N   UNL     1      45.995   4.885  12.735  0.00  0.00    +0.000 NA
ATOM      6  C   UNL     1      46.183   6.191  13.028  0.00  0.00    +0.000 A 
ENDROOT
BRANCH   1   8
ATOM      7  N   UNL     1      46.575   8.782  13.940  0.00  0.00    +0.000 N 
ATOM      8  C   UNL     1      45.798   8.611  12.831  0.00  0.00    +0.000 C 
ATOM      9  O   UNL     1      45.400   9.573  12.185  0.00  0.00    +0.000 OA
ATOM     10  H   UNL     1      46.857   9.733  14.147  0.00  0.00    +0.000 HD
ATOM     11  H   UNL     1      47.127   8.034  14.339  0.00  0.00    +0.000 HD
ENDBRANCH   1   8
BRANCH   4  12
ATOM     12  O   UNL     1      44.871   3.272  11.428  0.00  0.00    +0.000 OA
BRANCH  12  13
ATOM     13  C   UNL     1      44.440   3.141  10.067  0.00  0.00    +0.000 C 
BRANCH  13  14
ATOM     14  C   UNL     1      45.644   2.936   9.133  0.00  0.00    +0.000 C 
ATOM     15  C   UNL     1      45.621   3.941   7.970  0.00  0.00    +0.000 C 
ATOM     16  C   UNL     1      46.756   3.687   6.981  0.00  0.00    +0.000 C 
ATOM     17  C   UNL     1      46.736   2.254   6.460  0.00  0.00    +0.000 C 
ATOM     18  C   UNL     1      46.778   1.247   7.603  0.00  0.00    +0.000 C 
ATOM     19  C   UNL     1      45.654   1.490   8.607  0.00  0.00    +0.000 C 
ENDBRANCH  13  14
ENDBRANCH  12  13
ENDBRANCH   4  12
TORSDOF 4
ENDMDL
MODEL 5
REMARK VINA RESULT:    -5.975      4.197      6.538
REMARK INTER + INTRA:          -7.872
REMARK INTER:                  -7.470
REMARK INTRA:                  -0.401
REMARK UNBOUND:                -0.499
REMARK  Name = 
REMARK  4 active torsions:
REMARK  status: ('A' for Active; 'I' for Inactive)
REMARK    1  A    between atoms: C_2  and  C_4
REMARK    2  A    between atoms: C_7  and  O_8
REMARK    3  A    between atoms: O_8  and  C_9
REMARK    4  A    between atoms: C_9  and  C_10
REMARK                            x       y       z     vdW  Elec       q    Type
REMARK                         _______ _______ _______ _____ _____    ______ ____
ROOT
ATOM      1  C   UNL     1      45.512   5.274  12.197  0.00  0.00    +0.000 A 
ATOM      2  C   UNL     1      46.389   5.929  13.066  0.00  0.00    +0.000 A 
ATOM      3  C   UNL     1      47.117   5.177  13.995  0.00  0.00    +0.000 A 
ATOM      4  C   UNL     1      46.939   3.802  14.016  0.00  0.00    +0.000 A 
ATOM      5  N   UNL     1      46.095   3.148  13.187  0.00  0.00    +0.000 NA
ATOM      6  C   UNL     1      45.395   3.897  12.306  0.00  0.00    +0.000 A 
ENDROOT
BRANCH   1   8
ATOM      7  N   UNL     1      44.231   5.240  10.133  0.00  0.00    +0.000 N 
ATOM      8  C   UNL     1      44.684   5.971  11.194  0.00  0.00    +0.000 C 
ATOM      9  O   UNL     1      44.383   7.151  11.321  0.00  0.00    +0.000 OA
ATOM     10  H   UNL     1      43.583   5.709   9.511  0.00  0.00    +0.000 HD
ATOM     11  H   UNL     1      44.235   4.229  10.127  0.00  0.00    +0.000 HD
ENDBRANCH   1   8
BRANCH   4  12
ATOM     12  O   UNL     1      47.668   3.081  14.946  0.00  0.00    +0.000 OA
BRANCH  12  13
ATOM     13  C   UNL     1      47.457   3.564  16.280  0.00  0.00    +0.000 C 
BRANCH  13  14
ATOM     14  C   UNL     1      48.650   3.208  17.181  0.00  0.00    +0.000 C 
ATOM     15  C   UNL     1      49.511   4.447  17.475  0.00  0.00    +0.000 C 
ATOM     16  C   UNL     1      50.754   4.092  18.287  0.00  0.00    +0.000 C 
ATOM     17  C   UNL     1      51.580   3.006  17.605  0.00  0.00    +0.000 C 
ATOM     18  C   UNL     1      50.742   1.765  17.326  0.00  0.00    +0.000 C 
ATOM     19  C   UNL     1      49.490   2.102  16.520  0.00  0.00    +0.000 C 
ENDBRANCH  13  14
ENDBRANCH  12  13
ENDBRANCH   4  12
TORSDOF 4
ENDMDL
MODEL 6
REMARK VINA RESULT:    -5.725      3.750      6.708
REMARK INTER + INTRA:          -7.563
REMARK INTER:                  -7.067
REMARK INTRA:                  -0.496
REMARK UNBOUND:                -0.499
REMARK  Name = 
REMARK  4 active torsions:
REMARK  status: ('A' for Active; 'I' for Inactive)
REMARK    1  A    between atoms: C_2  and  C_4
REMARK    2  A    between atoms: C_7  and  O_8
REMARK    3  A    between atoms: O_8  and  C_9
REMARK    4  A    between atoms: C_9  and  C_10
REMARK                            x       y       z     vdW  Elec       q    Type
REMARK                         _______ _______ _______ _____ _____    ______ ____
ROOT
ATOM      1  C   UNL     1      48.108   6.159  14.695  0.00  0.00    +0.000 A 
ATOM      2  C   UNL     1      47.211   5.133  14.387  0.00  0.00    +0.000 A 
ATOM      3  C   UNL     1      46.582   5.130  13.137  0.00  0.00    +0.000 A 
ATOM      4  C   UNL     1      46.876   6.151  12.246  0.00  0.00    +0.000 A 
ATOM      5  N   UNL     1      47.738   7.155  12.524  0.00  0.00    +0.000 NA
ATOM      6  C   UNL     1      48.325   7.142  13.742  0.00  0.00    +0.000 A 
ENDROOT
BRANCH   1   8
ATOM      7  N   UNL     1      48.046   6.372  17.114  0.00  0.00    +0.000 N 
ATOM      8  C   UNL     1      48.811   6.268  15.988  0.00  0.00    +0.000 C 
ATOM      9  O   UNL     1      50.034   6.234  16.056  0.00  0.00    +0.000 OA
ATOM     10  H   UNL     1      48.543   6.343  17.997  0.00  0.00    +0.000 HD
ATOM     11  H   UNL     1      47.061   6.144  17.127  0.00  0.00    +0.000 HD
ENDBRANCH   1   8
BRANCH   4  12
ATOM     12  O   UNL     1      46.238   6.127  11.019  0.00  0.00    +0.000 OA
BRANCH  12  13
ATOM     13  C   UNL     1      44.932   5.544  11.107  0.00  0.00    +0.000 C 
BRANCH  13  14
ATOM     14  C   UNL     1      44.716   4.522   9.980  0.00  0.00    +0.000 C 
ATOM     15  C   UNL     1      44.819   3.083  10.510  0.00  0.00    +0.000 C 
ATOM     16  C   UNL     1      44.705   2.056   9.386  0.00  0.00    +0.000 C 
ATOM     17  C   UNL     1      45.736   2.306   8.290  0.00  0.00    +0.000 C 
ATOM     18  C   UNL     1      45.631   3.725   7.742  0.00  0.00    +0.000 C 
ATOM     19  C   UNL     1      45.736   4.765   8.854  0.00  0.00    +0.000 C 
ENDBRANCH  13  14
ENDBRANCH  12  13
ENDBRANCH   4  12
TORSDOF 4
ENDMDL
MODEL 7
REMARK VINA RESULT:    -5.566      4.037      6.174
REMARK INTER + INTRA:          -7.367
REMARK INTER:                  -7.110
REMARK INTRA:                  -0.257
REMARK UNBOUND:                -0.499
REMARK  Name = 
REMARK  4 active torsions:
REMARK  status: ('A' for Active; 'I' for Inactive)
REMARK    1  A    between atoms: C_2  and  C_4
REMARK    2  A    between atoms: C_7  and  O_8
REMARK    3  A    between atoms: O_8  and  C_9
REMARK    4  A    between atoms: C_9  and  C_10
REMARK                            x       y       z     vdW  Elec       q    Type
REMARK                         _______ _______ _______ _____ _____    ______ ____
ROOT
ATOM      1  C   UNL     1      44.896   4.324  11.868  0.00  0.00    +0.000 A 
ATOM      2  C   UNL     1      45.313   5.594  12.272  0.00  0.00    +0.000 A 
ATOM      3  C   UNL     1      46.296   5.706  13.262  0.00  0.00    +0.000 A 
ATOM      4  C   UNL     1      46.822   4.544  13.806  0.00  0.00    +0.000 A 
ATOM      5  N   UNL     1      46.431   3.305  13.432  0.00  0.00    +0.000 NA
ATOM      6  C   UNL     1      45.473   3.222  12.482  0.00  0.00    +0.000 A 
ENDROOT
BRANCH   1   8
ATOM      7  N   UNL     1      43.926   4.824   9.698  0.00  0.00    +0.000 N 
ATOM      8  C   UNL     1      43.855   4.092  10.847  0.00  0.00    +0.000 C 
ATOM      9  O   UNL     1      42.978   3.251  11.007  0.00  0.00    +0.000 OA
ATOM     10  H   UNL     1      43.265   4.580   8.970  0.00  0.00    +0.000 HD
ATOM     11  H   UNL     1      44.760   5.325   9.421  0.00  0.00    +0.000 HD
ENDBRANCH   1   8
BRANCH   4  12
ATOM     12  O   UNL     1      47.789   4.681  14.786  0.00  0.00    +0.000 OA
BRANCH  12  13
ATOM     13  C   UNL     1      47.318   4.243  16.067  0.00  0.00    +0.000 C 
BRANCH  13  14
ATOM     14  C   UNL     1      48.154   4.867  17.195  0.00  0.00    +0.000 C 
ATOM     15  C   UNL     1      49.301   3.936  17.616  0.00  0.00    +0.000 C 
ATOM     16  C   UNL     1      50.081   4.498  18.802  0.00  0.00    +0.000 C 
ATOM     17  C   UNL     1      49.165   4.798  19.984  0.00  0.00    +0.000 C 
ATOM     18  C   UNL     1      48.034   5.738  19.585  0.00  0.00    +0.000 C 
ATOM     19  C   UNL     1      47.247   5.195  18.395  0.00  0.00    +0.000 C 
ENDBRANCH  13  14
ENDBRANCH  12  13
ENDBRANCH   4  12
TORSDOF 4
ENDMDL
MODEL 8
REMARK VINA RESULT:    -5.417      3.130      4.671
REMARK INTER + INTRA:          -7.183
REMARK INTER:                  -6.847
REMARK INTRA:                  -0.336
REMARK UNBOUND:                -0.499
REMARK  Name = 
REMARK  4 active torsions:
REMARK  status: ('A' for Active; 'I' for Inactive)
REMARK    1  A    between atoms: C_2  and  C_4
REMARK    2  A    between atoms: C_7  and  O_8
REMARK    3  A    between atoms: O_8  and  C_9
REMARK    4  A    between atoms: C_9  and  C_10
REMARK                            x       y       z     vdW  Elec       q    Type
REMARK                         _______ _______ _______ _____ _____    ______ ____
ROOT
ATOM      1  C   UNL     1      44.963   3.719  10.389  0.00  0.00    +0.000 A 
ATOM      2  C   UNL     1      45.303   5.074  10.404  0.00  0.00    +0.000 A 
ATOM      3  C   UNL     1      45.659   5.675  11.617  0.00  0.00    +0.000 A 
ATOM      4  C   UNL     1      45.661   4.896  12.764  0.00  0.00    +0.000 A 
ATOM      5  N   UNL     1      45.333   3.585  12.773  0.00  0.00    +0.000 NA
ATOM      6  C   UNL     1      44.983   3.029  11.592  0.00  0.00    +0.000 A 
ENDROOT
BRANCH   1   8
ATOM      7  N   UNL     1      44.253   3.735   8.066  0.00  0.00    +0.000 N 
ATOM      8  C   UNL     1      44.556   2.993   9.171  0.00  0.00    +0.000 C 
ATOM      9  O   UNL     1      44.522   1.768   9.137  0.00  0.00    +0.000 OA
ATOM     10  H   UNL     1      44.075   3.217   7.214  0.00  0.00    +0.000 HD
ATOM     11  H   UNL     1      44.515   4.707   7.974  0.00  0.00    +0.000 HD
ENDBRANCH   1   8
BRANCH   4  12
ATOM     12  O   UNL     1      46.013   5.514  13.951  0.00  0.00    +0.000 OA
BRANCH  12  13
ATOM     13  C   UNL     1      47.359   5.205  14.335  0.00  0.00    +0.000 C 
BRANCH  13  14
ATOM     14  C   UNL     1      47.427   4.837  15.826  0.00  0.00    +0.000 C 
ATOM     15  C   UNL     1      48.579   5.574  16.528  0.00  0.00    +0.000 C 
ATOM     16  C   UNL     1      48.721   5.145  17.985  0.00  0.00    +0.000 C 
ATOM     17  C   UNL     1      48.889   3.634  18.112  0.00  0.00    +0.000 C 
ATOM     18  C   UNL     1      47.742   2.890  17.437  0.00  0.00    +0.000 C 
ATOM     19  C   UNL     1      47.580   3.313  15.979  0.00  0.00    +0.000 C 
ENDBRANCH  13  14
ENDBRANCH  12  13
ENDBRANCH   4  12
TORSDOF 4
ENDMDL
MODEL 9
REMARK VINA RESULT:    -5.259      5.448      8.194
REMARK INTER + INTRA:          -6.988
REMARK INTER:                  -6.585
REMARK INTRA:                  -0.403
REMARK UNBOUND:                -0.499
REMARK  Name = 
REMARK  4 active torsions:
REMARK  status: ('A' for Active; 'I' for Inactive)
REMARK    1  A    between atoms: C_2  and  C_4
REMARK    2  A    between atoms: C_7  and  O_8
REMARK    3  A    between atoms: O_8  and  C_9
REMARK    4  A    between atoms: C_9  and  C_10
REMARK                            x       y       z     vdW  Elec       q    Type
REMARK                         _______ _______ _______ _____ _____    ______ ____
ROOT
ATOM      1  C   UNL     1      48.305   4.804  18.072  0.00  0.00    +0.000 A 
ATOM      2  C   UNL     1      47.368   3.933  17.512  0.00  0.00    +0.000 A 
ATOM      3  C   UNL     1      47.105   4.005  16.139  0.00  0.00    +0.000 A 
ATOM      4  C   UNL     1      47.790   4.944  15.383  0.00  0.00    +0.000 A 
ATOM      5  N   UNL     1      48.700   5.797  15.904  0.00  0.00    +0.000 NA
ATOM      6  C   UNL     1      48.929   5.716  17.234  0.00  0.00    +0.000 A 
ENDROOT
BRANCH   1   8
ATOM      7  N   UNL     1      48.559   3.648  20.193  0.00  0.00    +0.000 N 
ATOM      8  C   UNL     1      48.645   4.825  19.508  0.00  0.00    +0.000 C 
ATOM      9  O   UNL     1      49.022   5.851  20.061  0.00  0.00    +0.000 OA
ATOM     10  H   UNL     1      48.893   3.661  21.150  0.00  0.00    +0.000 HD
ATOM     11  H   UNL     1      48.509   2.751  19.730  0.00  0.00    +0.000 HD
ENDBRANCH   1   8
BRANCH   4  12
ATOM     12  O   UNL     1      47.510   4.998  14.029  0.00  0.00    +0.000 OA
BRANCH  12  13
ATOM     13  C   UNL     1      46.594   3.969  13.633  0.00  0.00    +0.000 C 
BRANCH  13  14
ATOM     14  C   UNL     1      45.679   4.463  12.501  0.00  0.00    +0.000 C 
ATOM     15  C   UNL     1      44.969   5.769  12.892  0.00  0.00    +0.000 C 
ATOM     16  C   UNL     1      43.982   6.220  11.818  0.00  0.00    +0.000 C 
ATOM     17  C   UNL     1      42.968   5.129  11.493  0.00  0.00    +0.000 C 
ATOM     18  C   UNL     1      43.659   3.833  11.085  0.00  0.00    +0.000 C 
ATOM     19  C   UNL     1      44.656   3.370  12.144  0.00  0.00    +0.000 C 
ENDBRANCH  13  14
ENDBRANCH  12  13
ENDBRANCH   4  12
TORSDOF 4
ENDMDL
