MODEL 1
REMARK VINA RESULT:    -8.434      0.000      0.000
REMARK INTER + INTRA:         -11.737
REMARK INTER:                 -10.900
REMARK INTRA:                  -0.837
REMARK UNBOUND:                -0.837
REMARK  Name = 
REMARK  5 active torsions:
REMARK  status: ('A' for Active; 'I' for Inactive)
REMARK    1  A    between atoms: C_2  and  C_3
REMARK    2  A    between atoms: C_6  and  O_7
REMARK    3  A    between atoms: O_7  and  C_8
REMARK    4  A    between atoms: C_8  and  C_9
REMARK    5  A    between atoms: C_13  and  C_14
REMARK                            x       y       z     vdW  Elec       q    Type
REMARK                         _______ _______ _______ _____ _____    ______ ____
ROOT
ATOM      1  C   UNL     1      44.839   3.897  12.069  0.00  0.00    +0.000 A 
ATOM      2  C   UNL     1      45.674   3.203  12.938  0.00  0.00    +0.000 A 
ATOM      3  N   UNL     1      46.712   3.759  13.594  0.00  0.00    +0.000 NA
ATOM      4  C   UNL     1      46.925   5.079  13.383  0.00  0.00    +0.000 A 
ATOM      5  C   UNL     1      46.161   5.897  12.548  0.00  0.00    +0.000 A 
ATOM      6  C   UNL     1      45.091   5.263  11.894  0.00  0.00    +0.000 A 
ENDROOT
BRANCH   5   7
ATOM      7  C   UNL     1      46.453   7.334  12.366  0.00  0.00    +0.000 A 
ATOM      8  C   UNL     1      47.774   7.800  12.205  0.00  0.00    +0.000 A 
ATOM      9  C   UNL     1      48.055   9.163  12.043  0.00  0.00    +0.000 A 
ATOM     10  C   UNL     1      47.017  10.090  12.026  0.00  0.00    +0.000 A 
ATOM     11  C   UNL     1      45.712   9.645  12.176  0.00  0.00    +0.000 A 
ATOM     12  F   UNL     1      44.708  10.531  12.157  0.00  0.00    +0.000 F 
ATOM     13  C   UNL     1      45.425   8.295  12.349  0.00  0.00    +0.000 A 
ENDBRANCH   5   7
BRANCH   1  14
ATOM     14  C   UNL     1      43.678   3.193  11.419  0.00  0.00    +0.000 C 
BRANCH  14  15
ATOM     15  O   UNL     1      43.585   3.552  10.039  0.00  0.00    +0.000 OA
BRANCH  15  19
ATOM     16  C   UNL     1      46.609   2.408   7.404  0.00  0.00    +0.000 A 
ATOM     17  C   UNL     1      46.039   1.433   8.229  0.00  0.00    +0.000 A 
ATOM     18  C   UNL     1      45.023   1.774   9.130  0.00  0.00    +0.000 A 
ATOM     19  C   UNL     1      44.571   3.092   9.212  0.00  0.00    +0.000 A 
ATOM     20  C   UNL     1      45.150   4.066   8.393  0.00  0.00    +0.000 A 
ATOM     21  C   UNL     1      46.165   3.729   7.492  0.00  0.00    +0.000 A 
BRANCH  16  23
ATOM     22  N   UNL     1      48.467   1.747   5.719  0.00  0.00    +0.000 NA
ATOM     23  C   UNL     1      47.634   2.047   6.468  0.00  0.00    +0.000 C 
ENDBRANCH  16  23
ENDBRANCH  15  19
ENDBRANCH  14  15
ENDBRANCH   1  14
TORSDOF 5
ENDMDL
MODEL 2
REMARK VINA RESULT:    -8.387      1.697      2.322
REMARK INTER + INTRA:         -11.676
REMARK INTER:                 -10.878
REMARK INTRA:                  -0.798
REMARK UNBOUND:                -0.837
REMARK  Name = 
REMARK  5 active torsions:
REMARK  status: ('A' for Active; 'I' for Inactive)
REMARK    1  A    between atoms: C_2  and  C_3
REMARK    2  A    between atoms: C_6  and  O_7
REMARK    3  A    between atoms: O_7  and  C_8
REMARK    4  A    between atoms: C_8  and  C_9
REMARK    5  A    between atoms: C_13  and  C_14
REMARK                            x       y       z     vdW  Elec       q    Type
REMARK                         _______ _______ _______ _____ _____    ______ ____
ROOT
ATOM      1  C   UNL     1      44.628   4.945  11.692  0.00  0.00    +0.000 A 
ATOM      2  C   UNL     1      44.782   4.179  12.842  0.00  0.00    +0.000 A 
ATOM      3  N   UNL     1      45.761   4.367  13.750  0.00  0.00    +0.000 NA
ATOM      4  C   UNL     1      46.627   5.378  13.506  0.00  0.00    +0.000 A 
ATOM      5  C   UNL     1      46.584   6.230  12.400  0.00  0.00    +0.000 A 
ATOM      6  C   UNL     1      45.541   5.988  11.491  0.00  0.00    +0.000 A 
ENDROOT
BRANCH   5   7
ATOM      7  C   UNL     1      47.567   7.315  12.199  0.00  0.00    +0.000 A 
ATOM      8  C   UNL     1      47.173   8.668  12.179  0.00  0.00    +0.000 A 
ATOM      9  C   UNL     1      48.101   9.699  11.978  0.00  0.00    +0.000 A 
ATOM     10  C   UNL     1      49.449   9.396  11.805  0.00  0.00    +0.000 A 
ATOM     11  C   UNL     1      49.852   8.069  11.831  0.00  0.00    +0.000 A 
ATOM     12  F   UNL     1      51.147   7.771  11.668  0.00  0.00    +0.000 F 
ATOM     13  C   UNL     1      48.935   7.040  12.018  0.00  0.00    +0.000 A 
ENDBRANCH   5   7
BRANCH   1  14
ATOM     14  C   UNL     1      43.474   4.682  10.763  0.00  0.00    +0.000 C 
BRANCH  14  15
ATOM     15  O   UNL     1      43.551   3.360  10.229  0.00  0.00    +0.000 OA
BRANCH  15  19
ATOM     16  C   UNL     1      46.506   2.395   7.446  0.00  0.00    +0.000 A 
ATOM     17  C   UNL     1      46.020   3.706   7.475  0.00  0.00    +0.000 A 
ATOM     18  C   UNL     1      45.026   4.072   8.392  0.00  0.00    +0.000 A 
ATOM     19  C   UNL     1      44.512   3.130   9.284  0.00  0.00    +0.000 A 
ATOM     20  C   UNL     1      44.994   1.818   9.245  0.00  0.00    +0.000 A 
ATOM     21  C   UNL     1      45.985   1.448   8.332  0.00  0.00    +0.000 A 
BRANCH  16  23
ATOM     22  N   UNL     1      48.380   1.750   5.773  0.00  0.00    +0.000 NA
ATOM     23  C   UNL     1      47.539   2.033   6.520  0.00  0.00    +0.000 C 
ENDBRANCH  16  23
ENDBRANCH  15  19
ENDBRANCH  14  15
ENDBRANCH   1  14
TORSDOF 5
ENDMDL
MODEL 3
REMARK VINA RESULT:    -7.976      3.463      7.134
REMARK INTER + INTRA:         -11.145
REMARK INTER:                 -10.376
REMARK INTRA:                  -0.769
REMARK UNBOUND:                -0.837
REMARK  Name = 
REMARK  5 active torsions:
REMARK  status: ('A' for Active; 'I' for Inactive)
REMARK    1  A    between atoms: C_2  and  C_3
REMARK    2  A    between atoms: C_6  and  O_7
REMARK    3  A    between atoms: O_7  and  C_8
REMARK    4  A    between atoms: C_8  and  C_9
REMARK    5  A    between atoms: C_13  and  C_14
REMARK                            x       y       z     vdW  Elec       q    Type
REMARK                         _______ _______ _______ _____ _____    ______ ____
ROOT
ATOM      1  C   UNL     1      44.003   5.162  11.017  0.00  0.00    +0.000 A 
ATOM      2  C   UNL     1      43.223   4.231  11.694  0.00  0.00    +0.000 A 
ATOM      3  N   UNL     1      43.181   2.918  11.394  0.00  0.00    +0.000 NA
ATOM      4  C   UNL     1      43.967   2.506  10.371  0.00  0.00    +0.000 A 
ATOM      5  C   UNL     1      44.805   3.328   9.614  0.00  0.00    +0.000 A 
ATOM      6  C   UNL     1      44.808   4.685   9.976  0.00  0.00    +0.000 A 
ENDROOT
BRANCH   5   7
ATOM      7  C   UNL     1      45.636   2.806   8.509  0.00  0.00    +0.000 A 
ATOM      8  C   UNL     1      46.118   3.651   7.490  0.00  0.00    +0.000 A 
ATOM      9  C   UNL     1      46.897   3.157   6.435  0.00  0.00    +0.000 A 
ATOM     10  C   UNL     1      47.220   1.804   6.385  0.00  0.00    +0.000 A 
ATOM     11  C   UNL     1      46.759   0.962   7.385  0.00  0.00    +0.000 A 
ATOM     12  F   UNL     1      47.070  -0.340   7.344  0.00  0.00    +0.000 F 
ATOM     13  C   UNL     1      45.976   1.443   8.429  0.00  0.00    +0.000 A 
ENDBRANCH   5   7
BRANCH   1  14
ATOM     14  C   UNL     1      44.011   6.601  11.460  0.00  0.00    +0.000 C 
BRANCH  14  15
ATOM     15  O   UNL     1      44.903   6.780  12.561  0.00  0.00    +0.000 OA
BRANCH  15  19
ATOM     16  C   UNL     1      48.387   8.966  11.864  0.00  0.00    +0.000 A 
ATOM     17  C   UNL     1      47.236   9.655  12.259  0.00  0.00    +0.000 A 
ATOM     18  C   UNL     1      46.045   8.960  12.501  0.00  0.00    +0.000 A 
ATOM     19  C   UNL     1      45.996   7.574  12.348  0.00  0.00    +0.000 A 
ATOM     20  C   UNL     1      47.147   6.890  11.944  0.00  0.00    +0.000 A 
ATOM     21  C   UNL     1      48.338   7.579  11.701  0.00  0.00    +0.000 A 
BRANCH  16  23
ATOM     22  N   UNL     1      50.593  10.268  11.453  0.00  0.00    +0.000 NA
ATOM     23  C   UNL     1      49.610   9.681  11.639  0.00  0.00    +0.000 C 
ENDBRANCH  16  23
ENDBRANCH  15  19
ENDBRANCH  14  15
ENDBRANCH   1  14
TORSDOF 5
ENDMDL
MODEL 4
REMARK VINA RESULT:    -7.956      2.124      2.843
REMARK INTER + INTRA:         -11.118
REMARK INTER:                 -10.315
REMARK INTRA:                  -0.804
REMARK UNBOUND:                -0.837
REMARK  Name = 
REMARK  5 active torsions:
REMARK  status: ('A' for Active; 'I' for Inactive)
REMARK    1  A    between atoms: C_2  and  C_3
REMARK    2  A    between atoms: C_6  and  O_7
REMARK    3  A    between atoms: O_7  and  C_8
REMARK    4  A    between atoms: C_8  and  C_9
REMARK    5  A    between atoms: C_13  and  C_14
REMARK                            x       y       z     vdW  Elec       q    Type
REMARK                         _______ _______ _______ _____ _____    ______ ____
ROOT
ATOM      1  C   UNL     1      44.507   4.959  11.646  0.00  0.00    +0.000 A 
ATOM      2  C   UNL     1      43.625   5.992  11.347  0.00  0.00    +0.000 A 
ATOM      3  N   UNL     1      43.944   7.300  11.408  0.00  0.00    +0.000 NA
ATOM      4  C   UNL     1      45.212   7.598  11.777  0.00  0.00    +0.000 A 
ATOM      5  C   UNL     1      46.201   6.664  12.094  0.00  0.00    +0.000 A 
ATOM      6  C   UNL     1      45.811   5.317  12.010  0.00  0.00    +0.000 A 
ENDROOT
BRANCH   5   7
ATOM      7  C   UNL     1      47.568   7.064  12.490  0.00  0.00    +0.000 A 
ATOM      8  C   UNL     1      48.399   7.798  11.621  0.00  0.00    +0.000 A 
ATOM      9  C   UNL     1      49.699   8.169  11.990  0.00  0.00    +0.000 A 
ATOM     10  C   UNL     1      50.191   7.823  13.245  0.00  0.00    +0.000 A 
ATOM     11  C   UNL     1      49.381   7.108  14.114  0.00  0.00    +0.000 A 
ATOM     12  F   UNL     1      49.846   6.774  15.325  0.00  0.00    +0.000 F 
ATOM     13  C   UNL     1      48.093   6.725  13.751  0.00  0.00    +0.000 A 
ENDBRANCH   5   7
BRANCH   1  14
ATOM     14  C   UNL     1      44.065   3.528  11.504  0.00  0.00    +0.000 C 
BRANCH  14  15
ATOM     15  O   UNL     1      43.621   3.271  10.171  0.00  0.00    +0.000 OA
BRANCH  15  19
ATOM     16  C   UNL     1      46.592   2.371   7.384  0.00  0.00    +0.000 A 
ATOM     17  C   UNL     1      46.114   3.684   7.448  0.00  0.00    +0.000 A 
ATOM     18  C   UNL     1      45.115   4.028   8.367  0.00  0.00    +0.000 A 
ATOM     19  C   UNL     1      44.588   3.063   9.227  0.00  0.00    +0.000 A 
ATOM     20  C   UNL     1      45.061   1.750   9.152  0.00  0.00    +0.000 A 
ATOM     21  C   UNL     1      46.058   1.401   8.236  0.00  0.00    +0.000 A 
BRANCH  16  23
ATOM     22  N   UNL     1      48.471   1.744   5.710  0.00  0.00    +0.000 NA
ATOM     23  C   UNL     1      47.630   2.030   6.456  0.00  0.00    +0.000 C 
ENDBRANCH  16  23
ENDBRANCH  15  19
ENDBRANCH  14  15
ENDBRANCH   1  14
TORSDOF 5
ENDMDL
MODEL 5
REMARK VINA RESULT:    -7.860      2.816      3.868
REMARK INTER + INTRA:         -10.995
REMARK INTER:                 -10.456
REMARK INTRA:                  -0.539
REMARK UNBOUND:                -0.837
REMARK  Name = 
REMARK  5 active torsions:
REMARK  status: ('A' for Active; 'I' for Inactive)
REMARK    1  A    between atoms: C_2  and  C_3
REMARK    2  A    between atoms: C_6  and  O_7
REMARK    3  A    between atoms: O_7  and  C_8
REMARK    4  A    between atoms: C_8  and  C_9
REMARK    5  A    between atoms: C_13  and  C_14
REMARK                            x       y       z     vdW  Elec       q    Type
REMARK                         _______ _______ _______ _____ _____    ______ ____
ROOT
ATOM      1  C   UNL     1      44.798   5.063  11.987  0.00  0.00    +0.000 A 
ATOM      2  C   UNL     1      45.120   6.258  11.354  0.00  0.00    +0.000 A 
ATOM      3  N   UNL     1      46.076   7.107  11.781  0.00  0.00    +0.000 NA
ATOM      4  C   UNL     1      46.756   6.743  12.894  0.00  0.00    +0.000 A 
ATOM      5  C   UNL     1      46.545   5.569  13.622  0.00  0.00    +0.000 A 
ATOM      6  C   UNL     1      45.539   4.723  13.127  0.00  0.00    +0.000 A 
ENDROOT
BRANCH   5   7
ATOM      7  C   UNL     1      47.328   5.237  14.831  0.00  0.00    +0.000 A 
ATOM      8  C   UNL     1      48.260   6.143  15.373  0.00  0.00    +0.000 A 
ATOM      9  C   UNL     1      49.012   5.827  16.513  0.00  0.00    +0.000 A 
ATOM     10  C   UNL     1      48.836   4.598  17.142  0.00  0.00    +0.000 A 
ATOM     11  C   UNL     1      47.915   3.700  16.624  0.00  0.00    +0.000 A 
ATOM     12  F   UNL     1      47.738   2.517  17.226  0.00  0.00    +0.000 F 
ATOM     13  C   UNL     1      47.174   4.001  15.486  0.00  0.00    +0.000 A 
ENDBRANCH   5   7
BRANCH   1  14
ATOM     14  C   UNL     1      43.743   4.162  11.403  0.00  0.00    +0.000 C 
BRANCH  14  15
ATOM     15  O   UNL     1      43.673   4.326   9.986  0.00  0.00    +0.000 OA
BRANCH  15  19
ATOM     16  C   UNL     1      46.585   2.556   7.580  0.00  0.00    +0.000 A 
ATOM     17  C   UNL     1      45.849   1.740   8.445  0.00  0.00    +0.000 A 
ATOM     18  C   UNL     1      44.864   2.294   9.272  0.00  0.00    +0.000 A 
ATOM     19  C   UNL     1      44.609   3.666   9.240  0.00  0.00    +0.000 A 
ATOM     20  C   UNL     1      45.354   4.479   8.381  0.00  0.00    +0.000 A 
ATOM     21  C   UNL     1      46.339   3.931   7.554  0.00  0.00    +0.000 A 
BRANCH  16  23
ATOM     22  N   UNL     1      48.374   1.517   6.016  0.00  0.00    +0.000 NA
ATOM     23  C   UNL     1      47.577   1.979   6.721  0.00  0.00    +0.000 C 
ENDBRANCH  16  23
ENDBRANCH  15  19
ENDBRANCH  14  15
ENDBRANCH   1  14
TORSDOF 5
ENDMDL
MODEL 6
REMARK VINA RESULT:    -7.321      3.727      7.553
REMARK INTER + INTRA:         -10.299
REMARK INTER:                  -9.698
REMARK INTRA:                  -0.601
REMARK UNBOUND:                -0.837
REMARK  Name = 
REMARK  5 active torsions:
REMARK  status: ('A' for Active; 'I' for Inactive)
REMARK    1  A    between atoms: C_2  and  C_3
REMARK    2  A    between atoms: C_6  and  O_7
REMARK    3  A    between atoms: O_7  and  C_8
REMARK    4  A    between atoms: C_8  and  C_9
REMARK    5  A    between atoms: C_13  and  C_14
REMARK                            x       y       z     vdW  Elec       q    Type
REMARK                         _______ _______ _______ _____ _____    ______ ____
ROOT
ATOM      1  C   UNL     1      44.557   4.768  11.762  0.00  0.00    +0.000 A 
ATOM      2  C   UNL     1      43.495   3.954  12.139  0.00  0.00    +0.000 A 
ATOM      3  N   UNL     1      43.107   2.856  11.461  0.00  0.00    +0.000 NA
ATOM      4  C   UNL     1      43.820   2.544  10.353  0.00  0.00    +0.000 A 
ATOM      5  C   UNL     1      44.913   3.265   9.867  0.00  0.00    +0.000 A 
ATOM      6  C   UNL     1      45.273   4.397  10.617  0.00  0.00    +0.000 A 
ENDROOT
BRANCH   5   7
ATOM      7  C   UNL     1      45.645   2.865   8.647  0.00  0.00    +0.000 A 
ATOM      8  C   UNL     1      46.011   3.808   7.667  0.00  0.00    +0.000 A 
ATOM      9  C   UNL     1      46.695   3.430   6.504  0.00  0.00    +0.000 A 
ATOM     10  C   UNL     1      47.040   2.096   6.304  0.00  0.00    +0.000 A 
ATOM     11  C   UNL     1      46.693   1.158   7.264  0.00  0.00    +0.000 A 
ATOM     12  F   UNL     1      47.024  -0.127   7.080  0.00  0.00    +0.000 F 
ATOM     13  C   UNL     1      46.003   1.524   8.415  0.00  0.00    +0.000 A 
ENDBRANCH   5   7
BRANCH   1  14
ATOM     14  C   UNL     1      44.939   5.949  12.614  0.00  0.00    +0.000 C 
BRANCH  14  15
ATOM     15  O   UNL     1      46.350   6.166  12.566  0.00  0.00    +0.000 OA
BRANCH  15  19
ATOM     16  C   UNL     1      48.321   5.278  16.134  0.00  0.00    +0.000 A 
ATOM     17  C   UNL     1      48.674   6.445  15.449  0.00  0.00    +0.000 A 
ATOM     18  C   UNL     1      48.040   6.780  14.246  0.00  0.00    +0.000 A 
ATOM     19  C   UNL     1      47.049   5.950  13.721  0.00  0.00    +0.000 A 
ATOM     20  C   UNL     1      46.705   4.779  14.403  0.00  0.00    +0.000 A 
ATOM     21  C   UNL     1      47.336   4.441  15.603  0.00  0.00    +0.000 A 
BRANCH  16  23
ATOM     22  N   UNL     1      49.481   4.700  18.380  0.00  0.00    +0.000 NA
ATOM     23  C   UNL     1      48.959   4.953  17.375  0.00  0.00    +0.000 C 
ENDBRANCH  16  23
ENDBRANCH  15  19
ENDBRANCH  14  15
ENDBRANCH   1  14
TORSDOF 5
ENDMDL
MODEL 7
REMARK VINA RESULT:    -6.755      2.410      3.209
REMARK INTER + INTRA:          -9.567
REMARK INTER:                  -8.783
REMARK INTRA:                  -0.784
REMARK UNBOUND:                -0.837
REMARK  Name = 
REMARK  5 active torsions:
REMARK  status: ('A' for Active; 'I' for Inactive)
REMARK    1  A    between atoms: C_2  and  C_3
REMARK    2  A    between atoms: C_6  and  O_7
REMARK    3  A    between atoms: O_7  and  C_8
REMARK    4  A    between atoms: C_8  and  C_9
REMARK    5  A    between atoms: C_13  and  C_14
REMARK                            x       y       z     vdW  Elec       q    Type
REMARK                         _______ _______ _______ _____ _____    ______ ____
ROOT
ATOM      1  C   UNL     1      45.174   6.353  11.710  0.00  0.00    +0.000 A 
ATOM      2  C   UNL     1      44.258   7.399  11.716  0.00  0.00    +0.000 A 
ATOM      3  N   UNL     1      44.598   8.702  11.763  0.00  0.00    +0.000 NA
ATOM      4  C   UNL     1      45.923   8.982  11.795  0.00  0.00    +0.000 A 
ATOM      5  C   UNL     1      46.948   8.034  11.784  0.00  0.00    +0.000 A 
ATOM      6  C   UNL     1      46.532   6.693  11.731  0.00  0.00    +0.000 A 
ENDROOT
BRANCH   5   7
ATOM      7  C   UNL     1      48.376   8.414  11.822  0.00  0.00    +0.000 A 
ATOM      8  C   UNL     1      48.802   9.607  12.440  0.00  0.00    +0.000 A 
ATOM      9  C   UNL     1      50.154   9.975  12.468  0.00  0.00    +0.000 A 
ATOM     10  C   UNL     1      51.112   9.147  11.887  0.00  0.00    +0.000 A 
ATOM     11  C   UNL     1      50.707   7.967  11.284  0.00  0.00    +0.000 A 
ATOM     12  F   UNL     1      51.624   7.164  10.726  0.00  0.00    +0.000 F 
ATOM     13  C   UNL     1      49.366   7.600  11.241  0.00  0.00    +0.000 A 
ENDBRANCH   5   7
BRANCH   1  14
ATOM     14  C   UNL     1      44.692   4.931  11.611  0.00  0.00    +0.000 C 
BRANCH  14  15
ATOM     15  O   UNL     1      44.156   4.673  10.312  0.00  0.00    +0.000 OA
BRANCH  15  19
ATOM     16  C   UNL     1      46.606   2.688   7.581  0.00  0.00    +0.000 A 
ATOM     17  C   UNL     1      45.829   1.925   8.458  0.00  0.00    +0.000 A 
ATOM     18  C   UNL     1      44.995   2.550   9.392  0.00  0.00    +0.000 A 
ATOM     19  C   UNL     1      44.933   3.943   9.457  0.00  0.00    +0.000 A 
ATOM     20  C   UNL     1      45.718   4.703   8.585  0.00  0.00    +0.000 A 
ATOM     21  C   UNL     1      46.553   4.083   7.651  0.00  0.00    +0.000 A 
BRANCH  16  23
ATOM     22  N   UNL     1      48.108   1.512   5.824  0.00  0.00    +0.000 NA
ATOM     23  C   UNL     1      47.441   2.041   6.613  0.00  0.00    +0.000 C 
ENDBRANCH  16  23
ENDBRANCH  15  19
ENDBRANCH  14  15
ENDBRANCH   1  14
TORSDOF 5
ENDMDL
MODEL 8
REMARK VINA RESULT:    -6.471      4.002      8.007
REMARK INTER + INTRA:          -9.200
REMARK INTER:                  -8.545
REMARK INTRA:                  -0.654
REMARK UNBOUND:                -0.837
REMARK  Name = 
REMARK  5 active torsions:
REMARK  status: ('A' for Active; 'I' for Inactive)
REMARK    1  A    between atoms: C_2  and  C_3
REMARK    2  A    between atoms: C_6  and  O_7
REMARK    3  A    between atoms: O_7  and  C_8
REMARK    4  A    between atoms: C_8  and  C_9
REMARK    5  A    between atoms: C_13  and  C_14
REMARK                            x       y       z     vdW  Elec       q    Type
REMARK                         _______ _______ _______ _____ _____    ______ ____
ROOT
ATOM      1  C   UNL     1      46.807   7.175  13.021  0.00  0.00    +0.000 A 
ATOM      2  C   UNL     1      45.976   8.279  12.869  0.00  0.00    +0.000 A 
ATOM      3  N   UNL     1      44.958   8.345  11.988  0.00  0.00    +0.000 NA
ATOM      4  C   UNL     1      44.747   7.247  11.224  0.00  0.00    +0.000 A 
ATOM      5  C   UNL     1      45.495   6.068  11.279  0.00  0.00    +0.000 A 
ATOM      6  C   UNL     1      46.540   6.059  12.218  0.00  0.00    +0.000 A 
ENDROOT
BRANCH   5   7
ATOM      7  C   UNL     1      45.207   4.908  10.411  0.00  0.00    +0.000 A 
ATOM      8  C   UNL     1      44.512   3.783  10.896  0.00  0.00    +0.000 A 
ATOM      9  C   UNL     1      44.246   2.676  10.078  0.00  0.00    +0.000 A 
ATOM     10  C   UNL     1      44.661   2.679   8.749  0.00  0.00    +0.000 A 
ATOM     11  C   UNL     1      45.339   3.783   8.256  0.00  0.00    +0.000 A 
ATOM     12  F   UNL     1      45.739   3.794   6.978  0.00  0.00    +0.000 F 
ATOM     13  C   UNL     1      45.617   4.880   9.065  0.00  0.00    +0.000 A 
ENDBRANCH   5   7
BRANCH   1  14
ATOM     14  C   UNL     1      47.889   7.186  14.067  0.00  0.00    +0.000 C 
BRANCH  14  15
ATOM     15  O   UNL     1      48.315   5.854  14.360  0.00  0.00    +0.000 OA
BRANCH  15  19
ATOM     16  C   UNL     1      48.437   4.872  18.413  0.00  0.00    +0.000 A 
ATOM     17  C   UNL     1      47.577   4.152  17.578  0.00  0.00    +0.000 A 
ATOM     18  C   UNL     1      47.503   4.451  16.211  0.00  0.00    +0.000 A 
ATOM     19  C   UNL     1      48.288   5.471  15.672  0.00  0.00    +0.000 A 
ATOM     20  C   UNL     1      49.139   6.195  16.512  0.00  0.00    +0.000 A 
ATOM     21  C   UNL     1      49.216   5.900  17.876  0.00  0.00    +0.000 A 
BRANCH  16  23
ATOM     22  N   UNL     1      48.595   4.270  20.931  0.00  0.00    +0.000 NA
ATOM     23  C   UNL     1      48.525   4.546  19.806  0.00  0.00    +0.000 C 
ENDBRANCH  16  23
ENDBRANCH  15  19
ENDBRANCH  14  15
ENDBRANCH   1  14
TORSDOF 5
ENDMDL
MODEL 9
REMARK VINA RESULT:    -6.327      3.430      7.314
REMARK INTER + INTRA:          -9.014
REMARK INTER:                  -8.347
REMARK INTRA:                  -0.666
REMARK UNBOUND:                -0.837
REMARK  Name = 
REMARK  5 active torsions:
REMARK  status: ('A' for Active; 'I' for Inactive)
REMARK    1  A    between atoms: C_2  and  C_3
REMARK    2  A    between atoms: C_6  and  O_7
REMARK    3  A    between atoms: O_7  and  C_8
REMARK    4  A    between atoms: C_8  and  C_9
REMARK    5  A    between atoms: C_13  and  C_14
REMARK                            x       y       z     vdW  Elec       q    Type
REMARK                         _______ _______ _______ _____ _____    ______ ____
ROOT
ATOM      1  C   UNL     1      44.878   6.235  11.568  0.00  0.00    +0.000 A 
ATOM      2  C   UNL     1      43.548   5.956  11.863  0.00  0.00    +0.000 A 
ATOM      3  N   UNL     1      42.829   4.984  11.268  0.00  0.00    +0.000 NA
ATOM      4  C   UNL     1      43.470   4.242  10.334  0.00  0.00    +0.000 A 
ATOM      5  C   UNL     1      44.802   4.406   9.947  0.00  0.00    +0.000 A 
ATOM      6  C   UNL     1      45.501   5.431  10.605  0.00  0.00    +0.000 A 
ENDROOT
BRANCH   5   7
ATOM      7  C   UNL     1      45.436   3.556   8.918  0.00  0.00    +0.000 A 
ATOM      8  C   UNL     1      45.586   2.167   9.102  0.00  0.00    +0.000 A 
ATOM      9  C   UNL     1      46.197   1.361   8.131  0.00  0.00    +0.000 A 
ATOM     10  C   UNL     1      46.660   1.928   6.948  0.00  0.00    +0.000 A 
ATOM     11  C   UNL     1      46.512   3.293   6.750  0.00  0.00    +0.000 A 
ATOM     12  F   UNL     1      46.953   3.845   5.612  0.00  0.00    +0.000 F 
ATOM     13  C   UNL     1      45.918   4.102   7.713  0.00  0.00    +0.000 A 
ENDBRANCH   5   7
BRANCH   1  14
ATOM     14  C   UNL     1      45.606   7.314  12.323  0.00  0.00    +0.000 C 
BRANCH  14  15
ATOM     15  O   UNL     1      46.892   6.854  12.739  0.00  0.00    +0.000 OA
BRANCH  15  19
ATOM     16  C   UNL     1      50.138   9.445  12.343  0.00  0.00    +0.000 A 
ATOM     17  C   UNL     1      49.222   9.676  13.374  0.00  0.00    +0.000 A 
ATOM     18  C   UNL     1      48.117   8.832  13.541  0.00  0.00    +0.000 A 
ATOM     19  C   UNL     1      47.920   7.753  12.678  0.00  0.00    +0.000 A 
ATOM     20  C   UNL     1      48.832   7.531  11.642  0.00  0.00    +0.000 A 
ATOM     21  C   UNL     1      49.937   8.371  11.472  0.00  0.00    +0.000 A 
BRANCH  16  23
ATOM     22  N   UNL     1      52.194  11.000  12.066  0.00  0.00    +0.000 NA
ATOM     23  C   UNL     1      51.278  10.300  12.191  0.00  0.00    +0.000 C 
ENDBRANCH  16  23
ENDBRANCH  15  19
ENDBRANCH  14  15
ENDBRANCH   1  14
TORSDOF 5
ENDMDL
