MODEL 1
REMARK VINA RESULT:    -7.494      0.000      0.000
REMARK INTER + INTRA:          -9.313
REMARK INTER:                  -9.465
REMARK INTRA:                   0.152
REMARK UNBOUND:                 0.152
REMARK  Name = 
REMARK  5 active torsions:
REMARK  status: ('A' for Active; 'I' for Inactive)
REMARK    1  A    between atoms: N_1  and  C_2
REMARK    2  A    between atoms: C_2  and  C_3
REMARK    3  A    between atoms: N_6  and  C_7
REMARK    4  A    between atoms: C_7  and  N_8
REMARK    5  A    between atoms: C_13  and  C_14
REMARK                            x       y       z     vdW  Elec       q    Type
REMARK                         _______ _______ _______ _____ _____    ______ ____
ROOT
ATOM      1  N   UNL     1      44.004   4.380  10.548  0.00  0.00    +0.000 N 
ATOM      2  C   UNL     1      43.532   3.223  11.126  0.00  0.00    +0.000 A 
ATOM      3  C   UNL     1      44.095   2.156  10.469  0.00  0.00    +0.000 A 
ATOM      4  C   UNL     1      44.958   2.674   9.469  0.00  0.00    +0.000 A 
ATOM      5  C   UNL     1      45.764   2.080   8.491  0.00  0.00    +0.000 A 
ATOM      6  C   UNL     1      46.483   2.947   7.680  0.00  0.00    +0.000 A 
ATOM      7  N   UNL     1      46.482   4.305   7.791  0.00  0.00    +0.000 NA
ATOM      8  C   UNL     1      45.701   4.878   8.738  0.00  0.00    +0.000 A 
ATOM      9  C   UNL     1      44.923   4.070   9.564  0.00  0.00    +0.000 A 
ENDROOT
BRANCH   6  10
ATOM     10  C   UNL     1      47.304   2.372   6.564  0.00  0.00    +0.000 C 
ATOM     11  N   UNL     1      47.271   3.071   5.388  0.00  0.00    +0.000 N 
ATOM     12  O   UNL     1      47.953   1.339   6.678  0.00  0.00    +0.000 OA
ATOM     13  H   UNL     1      46.691   3.897   5.322  0.00  0.00    +0.000 HD
ATOM     14  H   UNL     1      47.761   2.713   4.580  0.00  0.00    +0.000 HD
ENDBRANCH   6  10
BRANCH   1  15
ATOM     15  C   UNL     1      43.601   5.721  10.982  0.00  0.00    +0.000 C 
BRANCH  15  19
ATOM     16  C   UNL     1      47.011   6.996  13.278  0.00  0.00    +0.000 C 
ATOM     17  C   UNL     1      46.335   5.673  13.656  0.00  0.00    +0.000 C 
ATOM     18  C   UNL     1      45.394   5.167  12.556  0.00  0.00    +0.000 C 
ATOM     19  N   UNL     1      44.367   6.153  12.172  0.00  0.00    +0.000 NA
ATOM     20  C   UNL     1      44.953   7.476  11.869  0.00  0.00    +0.000 C 
ATOM     21  C   UNL     1      45.898   7.999  12.953  0.00  0.00    +0.000 C 
BRANCH  16  22
ATOM     22  C   UNL     1      48.024   6.787  12.133  0.00  0.00    +0.000 C 
BRANCH  22  23
ATOM     23  N   UNL     1      49.393   6.650  12.617  0.00  0.00    +0.000 NA
ATOM     24  H   UNL     1      49.786   7.578  12.779  0.00  0.00    +0.000 HD
ATOM     25  H   UNL     1      49.971   6.226  11.891  0.00  0.00    +0.000 HD
ENDBRANCH  22  23
ENDBRANCH  16  22
ENDBRANCH  15  19
ENDBRANCH   1  15
TORSDOF 5
ENDMDL
MODEL 2
REMARK VINA RESULT:    -6.522      3.809      5.921
REMARK INTER + INTRA:          -8.086
REMARK INTER:                  -7.698
REMARK INTRA:                  -0.388
REMARK UNBOUND:                 0.152
REMARK  Name = 
REMARK  5 active torsions:
REMARK  status: ('A' for Active; 'I' for Inactive)
REMARK    1  A    between atoms: N_1  and  C_2
REMARK    2  A    between atoms: C_2  and  C_3
REMARK    3  A    between atoms: N_6  and  C_7
REMARK    4  A    between atoms: C_7  and  N_8
REMARK    5  A    between atoms: C_13  and  C_14
REMARK                            x       y       z     vdW  Elec       q    Type
REMARK                         _______ _______ _______ _____ _____    ______ ____
ROOT
ATOM      1  N   UNL     1      47.675   6.708  13.914  0.00  0.00    +0.000 N 
ATOM      2  C   UNL     1      48.443   7.441  13.037  0.00  0.00    +0.000 A 
ATOM      3  C   UNL     1      47.970   7.220  11.766  0.00  0.00    +0.000 A 
ATOM      4  C   UNL     1      46.861   6.341  11.867  0.00  0.00    +0.000 A 
ATOM      5  C   UNL     1      46.011   5.752  10.925  0.00  0.00    +0.000 A 
ATOM      6  C   UNL     1      45.014   4.929  11.428  0.00  0.00    +0.000 A 
ATOM      7  N   UNL     1      44.792   4.688  12.752  0.00  0.00    +0.000 NA
ATOM      8  C   UNL     1      45.616   5.259  13.662  0.00  0.00    +0.000 A 
ATOM      9  C   UNL     1      46.663   6.067  13.225  0.00  0.00    +0.000 A 
ENDROOT
BRANCH   6  10
ATOM     10  C   UNL     1      44.120   4.209  10.462  0.00  0.00    +0.000 C 
ATOM     11  N   UNL     1      44.187   4.639   9.165  0.00  0.00    +0.000 N 
ATOM     12  O   UNL     1      43.365   3.304  10.800  0.00  0.00    +0.000 OA
ATOM     13  H   UNL     1      44.793   5.416   8.934  0.00  0.00    +0.000 HD
ATOM     14  H   UNL     1      43.575   4.232   8.471  0.00  0.00    +0.000 HD
ENDBRANCH   6  10
BRANCH   1  15
ATOM     15  C   UNL     1      47.904   6.686  15.361  0.00  0.00    +0.000 C 
BRANCH  15  19
ATOM     16  C   UNL     1      49.518   3.675  17.979  0.00  0.00    +0.000 C 
ATOM     17  C   UNL     1      50.496   4.620  17.270  0.00  0.00    +0.000 C 
ATOM     18  C   UNL     1      49.790   5.847  16.679  0.00  0.00    +0.000 C 
ATOM     19  N   UNL     1      48.690   5.498  15.762  0.00  0.00    +0.000 NA
ATOM     20  C   UNL     1      47.752   4.526  16.364  0.00  0.00    +0.000 C 
ATOM     21  C   UNL     1      48.435   3.294  16.963  0.00  0.00    +0.000 C 
BRANCH  16  22
ATOM     22  C   UNL     1      48.972   4.319  19.270  0.00  0.00    +0.000 C 
BRANCH  22  23
ATOM     23  N   UNL     1      48.334   3.347  20.152  0.00  0.00    +0.000 NA
ATOM     24  H   UNL     1      48.939   3.175  20.955  0.00  0.00    +0.000 HD
ATOM     25  H   UNL     1      48.250   2.452  19.670  0.00  0.00    +0.000 HD
ENDBRANCH  22  23
ENDBRANCH  16  22
ENDBRANCH  15  19
ENDBRANCH   1  15
TORSDOF 5
ENDMDL
MODEL 3
REMARK VINA RESULT:    -6.489      1.127      1.691
REMARK INTER + INTRA:          -8.044
REMARK INTER:                  -8.235
REMARK INTRA:                   0.191
REMARK UNBOUND:                 0.152
REMARK  Name = 
REMARK  5 active torsions:
REMARK  status: ('A' for Active; 'I' for Inactive)
REMARK    1  A    between atoms: N_1  and  C_2
REMARK    2  A    between atoms: C_2  and  C_3
REMARK    3  A    between atoms: N_6  and  C_7
REMARK    4  A    between atoms: C_7  and  N_8
REMARK    5  A    between atoms: C_13  and  C_14
REMARK                            x       y       z     vdW  Elec       q    Type
REMARK                         _______ _______ _______ _____ _____    ______ ____
ROOT
ATOM      1  N   UNL     1      44.289   4.745  10.841  0.00  0.00    +0.000 N 
ATOM      2  C   UNL     1      43.717   3.655  11.458  0.00  0.00    +0.000 A 
ATOM      3  C   UNL     1      44.045   2.533  10.735  0.00  0.00    +0.000 A 
ATOM      4  C   UNL     1      44.863   2.945   9.651  0.00  0.00    +0.000 A 
ATOM      5  C   UNL     1      45.464   2.264   8.586  0.00  0.00    +0.000 A 
ATOM      6  C   UNL     1      46.211   3.036   7.708  0.00  0.00    +0.000 A 
ATOM      7  N   UNL     1      46.421   4.378   7.830  0.00  0.00    +0.000 NA
ATOM      8  C   UNL     1      45.838   5.035   8.861  0.00  0.00    +0.000 A 
ATOM      9  C   UNL     1      45.043   4.328   9.760  0.00  0.00    +0.000 A 
ENDROOT
BRANCH   6  10
ATOM     10  C   UNL     1      46.816   2.375   6.505  0.00  0.00    +0.000 C 
ATOM     11  N   UNL     1      47.082   3.205   5.449  0.00  0.00    +0.000 N 
ATOM     12  O   UNL     1      47.048   1.174   6.451  0.00  0.00    +0.000 OA
ATOM     13  H   UNL     1      46.838   4.184   5.518  0.00  0.00    +0.000 HD
ATOM     14  H   UNL     1      47.443   2.818   4.588  0.00  0.00    +0.000 HD
ENDBRANCH   6  10
BRANCH   1  15
ATOM     15  C   UNL     1      44.135   6.119  11.328  0.00  0.00    +0.000 C 
BRANCH  15  19
ATOM     16  C   UNL     1      47.557   8.346  12.692  0.00  0.00    +0.000 C 
ATOM     17  C   UNL     1      46.582   9.031  11.727  0.00  0.00    +0.000 C 
ATOM     18  C   UNL     1      45.249   8.281  11.619  0.00  0.00    +0.000 C 
ATOM     19  N   UNL     1      45.409   6.867  11.235  0.00  0.00    +0.000 NA
ATOM     20  C   UNL     1      46.399   6.169  12.084  0.00  0.00    +0.000 C 
ATOM     21  C   UNL     1      47.736   6.902  12.208  0.00  0.00    +0.000 C 
BRANCH  16  22
ATOM     22  C   UNL     1      47.062   8.465  14.148  0.00  0.00    +0.000 C 
BRANCH  22  23
ATOM     23  N   UNL     1      47.928   7.765  15.091  0.00  0.00    +0.000 NA
ATOM     24  H   UNL     1      48.874   8.138  15.018  0.00  0.00    +0.000 HD
ATOM     25  H   UNL     1      47.994   6.781  14.828  0.00  0.00    +0.000 HD
ENDBRANCH  22  23
ENDBRANCH  16  22
ENDBRANCH  15  19
ENDBRANCH   1  15
TORSDOF 5
ENDMDL
MODEL 4
REMARK VINA RESULT:    -6.169      4.693      8.282
REMARK INTER + INTRA:          -7.640
REMARK INTER:                  -7.180
REMARK INTRA:                  -0.460
REMARK UNBOUND:                 0.152
REMARK  Name = 
REMARK  5 active torsions:
REMARK  status: ('A' for Active; 'I' for Inactive)
REMARK    1  A    between atoms: N_1  and  C_2
REMARK    2  A    between atoms: C_2  and  C_3
REMARK    3  A    between atoms: N_6  and  C_7
REMARK    4  A    between atoms: C_7  and  N_8
REMARK    5  A    between atoms: C_13  and  C_14
REMARK                            x       y       z     vdW  Elec       q    Type
REMARK                         _______ _______ _______ _____ _____    ______ ____
ROOT
ATOM      1  N   UNL     1      47.995   6.190  14.318  0.00  0.00    +0.000 N 
ATOM      2  C   UNL     1      48.583   7.434  14.292  0.00  0.00    +0.000 A 
ATOM      3  C   UNL     1      49.004   7.736  15.564  0.00  0.00    +0.000 A 
ATOM      4  C   UNL     1      48.684   6.631  16.395  0.00  0.00    +0.000 A 
ATOM      5  C   UNL     1      48.843   6.377  17.762  0.00  0.00    +0.000 A 
ATOM      6  C   UNL     1      48.395   5.144  18.213  0.00  0.00    +0.000 A 
ATOM      7  N   UNL     1      47.853   4.172  17.425  0.00  0.00    +0.000 NA
ATOM      8  C   UNL     1      47.700   4.420  16.102  0.00  0.00    +0.000 A 
ATOM      9  C   UNL     1      48.094   5.653  15.587  0.00  0.00    +0.000 A 
ENDROOT
BRANCH   6  10
ATOM     10  C   UNL     1      48.468   4.845  19.682  0.00  0.00    +0.000 C 
ATOM     11  N   UNL     1      48.425   3.518  20.015  0.00  0.00    +0.000 N 
ATOM     12  O   UNL     1      48.546   5.719  20.536  0.00  0.00    +0.000 OA
ATOM     13  H   UNL     1      48.320   2.829  19.283  0.00  0.00    +0.000 HD
ATOM     14  H   UNL     1      48.419   3.248  20.989  0.00  0.00    +0.000 HD
ENDBRANCH   6  10
BRANCH   1  15
ATOM     15  C   UNL     1      47.412   5.549  13.136  0.00  0.00    +0.000 C 
BRANCH  15  19
ATOM     16  C   UNL     1      43.388   5.371  11.617  0.00  0.00    +0.000 C 
ATOM     17  C   UNL     1      44.228   6.615  11.303  0.00  0.00    +0.000 C 
ATOM     18  C   UNL     1      45.721   6.391  11.576  0.00  0.00    +0.000 C 
ATOM     19  N   UNL     1      45.997   5.944  12.954  0.00  0.00    +0.000 NA
ATOM     20  C   UNL     1      45.158   4.791  13.343  0.00  0.00    +0.000 C 
ATOM     21  C   UNL     1      43.665   4.991  13.076  0.00  0.00    +0.000 C 
BRANCH  16  22
ATOM     22  C   UNL     1      43.681   4.242  10.606  0.00  0.00    +0.000 C 
BRANCH  22  23
ATOM     23  N   UNL     1      43.703   4.719   9.228  0.00  0.00    +0.000 NA
ATOM     24  H   UNL     1      42.883   5.302   9.061  0.00  0.00    +0.000 HD
ATOM     25  H   UNL     1      43.617   3.927   8.591  0.00  0.00    +0.000 HD
ENDBRANCH  22  23
ENDBRANCH  16  22
ENDBRANCH  15  19
ENDBRANCH   1  15
TORSDOF 5
ENDMDL
MODEL 5
REMARK VINA RESULT:    -6.157      3.865      5.688
REMARK INTER + INTRA:          -7.625
REMARK INTER:                  -7.174
REMARK INTRA:                  -0.450
REMARK UNBOUND:                 0.152
REMARK  Name = 
REMARK  5 active torsions:
REMARK  status: ('A' for Active; 'I' for Inactive)
REMARK    1  A    between atoms: N_1  and  C_2
REMARK    2  A    between atoms: C_2  and  C_3
REMARK    3  A    between atoms: N_6  and  C_7
REMARK    4  A    between atoms: C_7  and  N_8
REMARK    5  A    between atoms: C_13  and  C_14
REMARK                            x       y       z     vdW  Elec       q    Type
REMARK                         _______ _______ _______ _____ _____    ______ ____
ROOT
ATOM      1  N   UNL     1      47.558   6.372  13.707  0.00  0.00    +0.000 N 
ATOM      2  C   UNL     1      47.205   7.562  13.110  0.00  0.00    +0.000 A 
ATOM      3  C   UNL     1      46.191   7.308  12.218  0.00  0.00    +0.000 A 
ATOM      4  C   UNL     1      45.896   5.922  12.285  0.00  0.00    +0.000 A 
ATOM      5  C   UNL     1      44.996   5.096  11.604  0.00  0.00    +0.000 A 
ATOM      6  C   UNL     1      45.002   3.755  11.962  0.00  0.00    +0.000 A 
ATOM      7  N   UNL     1      45.786   3.209  12.935  0.00  0.00    +0.000 NA
ATOM      8  C   UNL     1      46.658   4.010  13.592  0.00  0.00    +0.000 A 
ATOM      9  C   UNL     1      46.731   5.360  13.257  0.00  0.00    +0.000 A 
ENDROOT
BRANCH   6  10
ATOM     10  C   UNL     1      44.113   2.806  11.214  0.00  0.00    +0.000 C 
ATOM     11  N   UNL     1      44.624   2.322  10.041  0.00  0.00    +0.000 N 
ATOM     12  O   UNL     1      42.996   2.489  11.607  0.00  0.00    +0.000 OA
ATOM     13  H   UNL     1      45.533   2.639   9.731  0.00  0.00    +0.000 HD
ATOM     14  H   UNL     1      44.059   1.717   9.461  0.00  0.00    +0.000 HD
ENDBRANCH   6  10
BRANCH   1  15
ATOM     15  C   UNL     1      48.624   6.257  14.706  0.00  0.00    +0.000 C 
BRANCH  15  19
ATOM     16  C   UNL     1      48.637   6.085  19.007  0.00  0.00    +0.000 C 
ATOM     17  C   UNL     1      47.790   5.061  18.242  0.00  0.00    +0.000 C 
ATOM     18  C   UNL     1      48.159   4.998  16.755  0.00  0.00    +0.000 C 
ATOM     19  N   UNL     1      48.078   6.307  16.081  0.00  0.00    +0.000 NA
ATOM     20  C   UNL     1      48.816   7.357  16.816  0.00  0.00    +0.000 C 
ATOM     21  C   UNL     1      48.465   7.436  18.303  0.00  0.00    +0.000 C 
BRANCH  16  22
ATOM     22  C   UNL     1      50.103   5.613  19.113  0.00  0.00    +0.000 C 
BRANCH  22  23
ATOM     23  N   UNL     1      50.219   4.281  19.698  0.00  0.00    +0.000 NA
ATOM     24  H   UNL     1      49.663   3.625  19.151  0.00  0.00    +0.000 HD
ATOM     25  H   UNL     1      49.810   4.282  20.633  0.00  0.00    +0.000 HD
ENDBRANCH  22  23
ENDBRANCH  16  22
ENDBRANCH  15  19
ENDBRANCH   1  15
TORSDOF 5
ENDMDL
MODEL 6
REMARK VINA RESULT:    -5.823      3.085      5.263
REMARK INTER + INTRA:          -7.202
REMARK INTER:                  -6.744
REMARK INTRA:                  -0.458
REMARK UNBOUND:                 0.152
REMARK  Name = 
REMARK  5 active torsions:
REMARK  status: ('A' for Active; 'I' for Inactive)
REMARK    1  A    between atoms: N_1  and  C_2
REMARK    2  A    between atoms: C_2  and  C_3
REMARK    3  A    between atoms: N_6  and  C_7
REMARK    4  A    between atoms: C_7  and  N_8
REMARK    5  A    between atoms: C_13  and  C_14
REMARK                            x       y       z     vdW  Elec       q    Type
REMARK                         _______ _______ _______ _____ _____    ______ ____
ROOT
ATOM      1  N   UNL     1      47.658   6.561  13.653  0.00  0.00    +0.000 N 
ATOM      2  C   UNL     1      47.765   5.681  14.705  0.00  0.00    +0.000 A 
ATOM      3  C   UNL     1      46.949   4.606  14.449  0.00  0.00    +0.000 A 
ATOM      4  C   UNL     1      46.337   4.823  13.188  0.00  0.00    +0.000 A 
ATOM      5  C   UNL     1      45.407   4.100  12.432  0.00  0.00    +0.000 A 
ATOM      6  C   UNL     1      45.046   4.653  11.212  0.00  0.00    +0.000 A 
ATOM      7  N   UNL     1      45.549   5.810  10.697  0.00  0.00    +0.000 NA
ATOM      8  C   UNL     1      46.449   6.509  11.430  0.00  0.00    +0.000 A 
ATOM      9  C   UNL     1      46.829   6.031  12.682  0.00  0.00    +0.000 A 
ENDROOT
BRANCH   6  10
ATOM     10  C   UNL     1      43.995   3.962  10.392  0.00  0.00    +0.000 C 
ATOM     11  N   UNL     1      43.934   4.337   9.077  0.00  0.00    +0.000 N 
ATOM     12  O   UNL     1      43.228   3.128  10.858  0.00  0.00    +0.000 OA
ATOM     13  H   UNL     1      44.559   5.058   8.741  0.00  0.00    +0.000 HD
ATOM     14  H   UNL     1      43.217   3.949   8.480  0.00  0.00    +0.000 HD
ENDBRANCH   6  10
BRANCH   1  15
ATOM     15  C   UNL     1      48.379   7.836  13.591  0.00  0.00    +0.000 C 
BRANCH  15  19
ATOM     16  C   UNL     1      52.135   8.941  11.802  0.00  0.00    +0.000 C 
ATOM     17  C   UNL     1      51.237   7.951  11.052  0.00  0.00    +0.000 C 
ATOM     18  C   UNL     1      49.805   7.933  11.602  0.00  0.00    +0.000 C 
ATOM     19  N   UNL     1      49.744   7.655  13.049  0.00  0.00    +0.000 NA
ATOM     20  C   UNL     1      50.651   8.531  13.822  0.00  0.00    +0.000 C 
ATOM     21  C   UNL     1      52.084   8.566  13.288  0.00  0.00    +0.000 C 
BRANCH  16  22
ATOM     22  C   UNL     1      51.714  10.396  11.505  0.00  0.00    +0.000 C 
BRANCH  22  23
ATOM     23  N   UNL     1      51.615  10.668  10.075  0.00  0.00    +0.000 NA
ATOM     24  H   UNL     1      50.631  10.751   9.817  0.00  0.00    +0.000 HD
ATOM     25  H   UNL     1      51.974   9.870   9.551  0.00  0.00    +0.000 HD
ENDBRANCH  22  23
ENDBRANCH  16  22
ENDBRANCH  15  19
ENDBRANCH   1  15
TORSDOF 5
ENDMDL
MODEL 7
REMARK VINA RESULT:    -5.612      4.242      6.059
REMARK INTER + INTRA:          -6.936
REMARK INTER:                  -6.491
REMARK INTRA:                  -0.445
REMARK UNBOUND:                 0.152
REMARK  Name = 
REMARK  5 active torsions:
REMARK  status: ('A' for Active; 'I' for Inactive)
REMARK    1  A    between atoms: N_1  and  C_2
REMARK    2  A    between atoms: C_2  and  C_3
REMARK    3  A    between atoms: N_6  and  C_7
REMARK    4  A    between atoms: C_7  and  N_8
REMARK    5  A    between atoms: C_13  and  C_14
REMARK                            x       y       z     vdW  Elec       q    Type
REMARK                         _______ _______ _______ _____ _____    ______ ____
ROOT
ATOM      1  N   UNL     1      46.539   4.719  13.271  0.00  0.00    +0.000 N 
ATOM      2  C   UNL     1      45.655   3.737  12.885  0.00  0.00    +0.000 A 
ATOM      3  C   UNL     1      44.644   4.330  12.168  0.00  0.00    +0.000 A 
ATOM      4  C   UNL     1      44.929   5.718  12.091  0.00  0.00    +0.000 A 
ATOM      5  C   UNL     1      44.259   6.808  11.523  0.00  0.00    +0.000 A 
ATOM      6  C   UNL     1      44.875   8.044  11.659  0.00  0.00    +0.000 A 
ATOM      7  N   UNL     1      46.077   8.257  12.265  0.00  0.00    +0.000 NA
ATOM      8  C   UNL     1      46.723   7.201  12.815  0.00  0.00    +0.000 A 
ATOM      9  C   UNL     1      46.144   5.936  12.749  0.00  0.00    +0.000 A 
ENDROOT
BRANCH   6  10
ATOM     10  C   UNL     1      44.168   9.260  11.138  0.00  0.00    +0.000 C 
ATOM     11  N   UNL     1      42.907   9.045  10.652  0.00  0.00    +0.000 N 
ATOM     12  O   UNL     1      44.678  10.375  11.129  0.00  0.00    +0.000 OA
ATOM     13  H   UNL     1      42.537   8.104  10.640  0.00  0.00    +0.000 HD
ATOM     14  H   UNL     1      42.393   9.812  10.240  0.00  0.00    +0.000 HD
ENDBRANCH   6  10
BRANCH   1  15
ATOM     15  C   UNL     1      47.738   4.454  14.072  0.00  0.00    +0.000 C 
BRANCH  15  19
ATOM     16  C   UNL     1      48.470   4.172  18.304  0.00  0.00    +0.000 C 
ATOM     17  C   UNL     1      47.509   3.163  17.665  0.00  0.00    +0.000 C 
ATOM     18  C   UNL     1      47.624   3.139  16.136  0.00  0.00    +0.000 C 
ATOM     19  N   UNL     1      47.430   4.465  15.519  0.00  0.00    +0.000 NA
ATOM     20  C   UNL     1      48.278   5.500  16.148  0.00  0.00    +0.000 C 
ATOM     21  C   UNL     1      48.180   5.539  17.674  0.00  0.00    +0.000 C 
BRANCH  16  22
ATOM     22  C   UNL     1      49.934   3.706  18.152  0.00  0.00    +0.000 C 
BRANCH  22  23
ATOM     23  N   UNL     1      50.797   4.227  19.205  0.00  0.00    +0.000 NA
ATOM     24  H   UNL     1      51.570   3.579  19.356  0.00  0.00    +0.000 HD
ATOM     25  H   UNL     1      50.282   4.257  20.086  0.00  0.00    +0.000 HD
ENDBRANCH  22  23
ENDBRANCH  16  22
ENDBRANCH  15  19
ENDBRANCH   1  15
TORSDOF 5
ENDMDL
MODEL 8
REMARK VINA RESULT:    -5.422      3.733      6.034
REMARK INTER + INTRA:          -6.696
REMARK INTER:                  -6.278
REMARK INTRA:                  -0.418
REMARK UNBOUND:                 0.152
REMARK  Name = 
REMARK  5 active torsions:
REMARK  status: ('A' for Active; 'I' for Inactive)
REMARK    1  A    between atoms: N_1  and  C_2
REMARK    2  A    between atoms: C_2  and  C_3
REMARK    3  A    between atoms: N_6  and  C_7
REMARK    4  A    between atoms: C_7  and  N_8
REMARK    5  A    between atoms: C_13  and  C_14
REMARK                            x       y       z     vdW  Elec       q    Type
REMARK                         _______ _______ _______ _____ _____    ______ ____
ROOT
ATOM      1  N   UNL     1      47.992   6.691  13.427  0.00  0.00    +0.000 N 
ATOM      2  C   UNL     1      48.147   7.495  12.321  0.00  0.00    +0.000 A 
ATOM      3  C   UNL     1      47.223   7.110  11.379  0.00  0.00    +0.000 A 
ATOM      4  C   UNL     1      46.460   6.050  11.934  0.00  0.00    +0.000 A 
ATOM      5  C   UNL     1      45.417   5.256  11.445  0.00  0.00    +0.000 A 
ATOM      6  C   UNL     1      44.916   4.298  12.314  0.00  0.00    +0.000 A 
ATOM      7  N   UNL     1      45.339   4.106  13.596  0.00  0.00    +0.000 NA
ATOM      8  C   UNL     1      46.349   4.875  14.067  0.00  0.00    +0.000 A 
ATOM      9  C   UNL     1      46.926   5.832  13.236  0.00  0.00    +0.000 A 
ENDROOT
BRANCH   6  10
ATOM     10  C   UNL     1      43.850   3.365  11.819  0.00  0.00    +0.000 C 
ATOM     11  N   UNL     1      43.738   2.184  12.501  0.00  0.00    +0.000 N 
ATOM     12  O   UNL     1      43.129   3.624  10.862  0.00  0.00    +0.000 OA
ATOM     13  H   UNL     1      44.378   1.990  13.260  0.00  0.00    +0.000 HD
ATOM     14  H   UNL     1      43.075   1.488  12.190  0.00  0.00    +0.000 HD
ENDBRANCH   6  10
BRANCH   1  15
ATOM     15  C   UNL     1      48.824   6.804  14.628  0.00  0.00    +0.000 C 
BRANCH  15  19
ATOM     16  C   UNL     1      50.295  10.222  16.792  0.00  0.00    +0.000 C 
ATOM     17  C   UNL     1      48.889  10.298  16.183  0.00  0.00    +0.000 C 
ATOM     18  C   UNL     1      48.358   8.918  15.775  0.00  0.00    +0.000 C 
ATOM     19  N   UNL     1      49.257   8.201  14.852  0.00  0.00    +0.000 NA
ATOM     20  C   UNL     1      50.649   8.162  15.349  0.00  0.00    +0.000 C 
ATOM     21  C   UNL     1      51.198   9.528  15.765  0.00  0.00    +0.000 C 
BRANCH  16  22
ATOM     22  C   UNL     1      50.259   9.529  18.170  0.00  0.00    +0.000 C 
BRANCH  22  23
ATOM     23  N   UNL     1      51.592   9.308  18.718  0.00  0.00    +0.000 NA
ATOM     24  H   UNL     1      51.512   9.049  19.702  0.00  0.00    +0.000 HD
ATOM     25  H   UNL     1      52.117  10.183  18.702  0.00  0.00    +0.000 HD
ENDBRANCH  22  23
ENDBRANCH  16  22
ENDBRANCH  15  19
ENDBRANCH   1  15
TORSDOF 5
ENDMDL
MODEL 9
REMARK VINA RESULT:    -5.411      3.601      5.391
REMARK INTER + INTRA:          -6.682
REMARK INTER:                  -6.271
REMARK INTRA:                  -0.410
REMARK UNBOUND:                 0.152
REMARK  Name = 
REMARK  5 active torsions:
REMARK  status: ('A' for Active; 'I' for Inactive)
REMARK    1  A    between atoms: N_1  and  C_2
REMARK    2  A    between atoms: C_2  and  C_3
REMARK    3  A    between atoms: N_6  and  C_7
REMARK    4  A    between atoms: C_7  and  N_8
REMARK    5  A    between atoms: C_13  and  C_14
REMARK                            x       y       z     vdW  Elec       q    Type
REMARK                         _______ _______ _______ _____ _____    ______ ____
ROOT
ATOM      1  N   UNL     1      47.703   6.271  13.906  0.00  0.00    +0.000 N 
ATOM      2  C   UNL     1      47.718   5.359  14.937  0.00  0.00    +0.000 A 
ATOM      3  C   UNL     1      46.843   4.346  14.625  0.00  0.00    +0.000 A 
ATOM      4  C   UNL     1      46.290   4.634  13.351  0.00  0.00    +0.000 A 
ATOM      5  C   UNL     1      45.342   3.992  12.546  0.00  0.00    +0.000 A 
ATOM      6  C   UNL     1      45.058   4.598  11.330  0.00  0.00    +0.000 A 
ATOM      7  N   UNL     1      45.652   5.733  10.864  0.00  0.00    +0.000 NA
ATOM      8  C   UNL     1      46.569   6.353  11.645  0.00  0.00    +0.000 A 
ATOM      9  C   UNL     1      46.875   5.820  12.895  0.00  0.00    +0.000 A 
ENDROOT
BRANCH   6  10
ATOM     10  C   UNL     1      43.994   3.998  10.459  0.00  0.00    +0.000 C 
ATOM     11  N   UNL     1      43.941   4.479   9.179  0.00  0.00    +0.000 N 
ATOM     12  O   UNL     1      43.210   3.144  10.857  0.00  0.00    +0.000 OA
ATOM     13  H   UNL     1      44.581   5.212   8.901  0.00  0.00    +0.000 HD
ATOM     14  H   UNL     1      43.217   4.156   8.553  0.00  0.00    +0.000 HD
ENDBRANCH   6  10
BRANCH   1  15
ATOM     15  C   UNL     1      48.506   7.497  13.902  0.00  0.00    +0.000 C 
BRANCH  15  19
ATOM     16  C   UNL     1      50.120   9.962  17.041  0.00  0.00    +0.000 C 
ATOM     17  C   UNL     1      50.797   8.616  16.754  0.00  0.00    +0.000 C 
ATOM     18  C   UNL     1      50.367   8.026  15.405  0.00  0.00    +0.000 C 
ATOM     19  N   UNL     1      48.905   7.881  15.275  0.00  0.00    +0.000 NA
ATOM     20  C   UNL     1      48.190   9.129  15.615  0.00  0.00    +0.000 C 
ATOM     21  C   UNL     1      48.605   9.737  16.956  0.00  0.00    +0.000 C 
BRANCH  16  22
ATOM     22  C   UNL     1      50.648  11.055  16.088  0.00  0.00    +0.000 C 
BRANCH  22  23
ATOM     23  N   UNL     1      52.099  11.190  16.144  0.00  0.00    +0.000 NA
ATOM     24  H   UNL     1      52.339  12.009  16.702  0.00  0.00    +0.000 HD
ATOM     25  H   UNL     1      52.461  11.375  15.208  0.00  0.00    +0.000 HD
ENDBRANCH  22  23
ENDBRANCH  16  22
ENDBRANCH  15  19
ENDBRANCH   1  15
TORSDOF 5
ENDMDL
