MODEL 1
REMARK VINA RESULT:    -8.774      0.000      0.000
REMARK INTER + INTRA:         -12.116
REMARK INTER:                 -11.339
REMARK INTRA:                  -0.778
REMARK UNBOUND:                -0.778
REMARK  Name = 
REMARK  5 active torsions:
REMARK  status: ('A' for Active; 'I' for Inactive)
REMARK    1  A    between atoms: C_2  and  C_4
REMARK    2  A    between atoms: C_7  and  N_8
REMARK    3  A    between atoms: N_8  and  C_9
REMARK    4  A    between atoms: C_9  and  C_10
REMARK    5  A    between atoms: C_14  and  C_15
REMARK                            x       y       z     vdW  Elec       q    Type
REMARK                         _______ _______ _______ _____ _____    ______ ____
ROOT
ATOM      1  N   UNL     1      43.792   4.971   9.726  0.00  0.00    +0.000 N 
ATOM      2  H   UNL     1      42.915   5.116   9.236  0.00  0.00    +0.000 HD
ENDROOT
BRANCH   1   6
ATOM      3  C   UNL     1      46.299   2.072   7.922  0.00  0.00    +0.000 A 
ATOM      4  C   UNL     1      46.442   3.430   7.622  0.00  0.00    +0.000 A 
ATOM      5  C   UNL     1      45.611   4.376   8.234  0.00  0.00    +0.000 A 
ATOM      6  C   UNL     1      44.609   3.985   9.133  0.00  0.00    +0.000 A 
ATOM      7  C   UNL     1      44.509   2.626   9.453  0.00  0.00    +0.000 A 
ATOM      8  C   UNL     1      45.333   1.675   8.847  0.00  0.00    +0.000 A 
BRANCH   3  10
ATOM      9  N   UNL     1      46.851  -0.279   7.605  0.00  0.00    +0.000 N 
ATOM     10  C   UNL     1      47.121   1.022   7.273  0.00  0.00    +0.000 C 
ATOM     11  O   UNL     1      47.995   1.288   6.460  0.00  0.00    +0.000 OA
ATOM     12  H   UNL     1      47.348  -0.984   7.074  0.00  0.00    +0.000 HD
ATOM     13  H   UNL     1      45.982  -0.552   8.043  0.00  0.00    +0.000 HD
ENDBRANCH   3  10
ENDBRANCH   1   6
BRANCH   1  14
ATOM     14  C   UNL     1      43.771   5.179  11.195  0.00  0.00    +0.000 C 
ATOM     15  C   UNL     1      42.709   4.430  11.984  0.00  0.00    +0.000 C 
ATOM     16  C   UNL     1      42.587   5.907  11.810  0.00  0.00    +0.000 C 
BRANCH  14  17
ATOM     17  C   UNL     1      45.154   5.486  11.778  0.00  0.00    +0.000 A 
ATOM     18  C   UNL     1      45.971   6.528  11.305  0.00  0.00    +0.000 A 
ATOM     19  C   UNL     1      47.161   6.879  11.947  0.00  0.00    +0.000 A 
ATOM     20  C   UNL     1      47.564   6.198  13.092  0.00  0.00    +0.000 A 
ATOM     21  C   UNL     1      46.793   5.144  13.590  0.00  0.00    +0.000 A 
ATOM     22  C   UNL     1      45.616   4.784  12.910  0.00  0.00    +0.000 A 
BRANCH  21  23
ATOM     23  C   UNL     1      47.177   4.424  14.859  0.00  0.00    +0.000 C 
ATOM     24  F   UNL     1      47.537   3.124  14.659  0.00  0.00    +0.000 F 
ATOM     25  F   UNL     1      48.234   5.005  15.492  0.00  0.00    +0.000 F 
ATOM     26  F   UNL     1      46.167   4.393  15.772  0.00  0.00    +0.000 F 
ENDBRANCH  21  23
ENDBRANCH  14  17
ENDBRANCH   1  14
TORSDOF 5
ENDMDL
MODEL 2
REMARK VINA RESULT:    -8.644      1.827      2.437
REMARK INTER + INTRA:         -11.948
REMARK INTER:                 -11.091
REMARK INTRA:                  -0.858
REMARK UNBOUND:                -0.778
REMARK  Name = 
REMARK  5 active torsions:
REMARK  status: ('A' for Active; 'I' for Inactive)
REMARK    1  A    between atoms: C_2  and  C_4
REMARK    2  A    between atoms: C_7  and  N_8
REMARK    3  A    between atoms: N_8  and  C_9
REMARK    4  A    between atoms: C_9  and  C_10
REMARK    5  A    between atoms: C_14  and  C_15
REMARK                            x       y       z     vdW  Elec       q    Type
REMARK                         _______ _______ _______ _____ _____    ______ ____
ROOT
ATOM      1  N   UNL     1      43.933   5.109   9.768  0.00  0.00    +0.000 N 
ATOM      2  H   UNL     1      43.164   5.423   9.184  0.00  0.00    +0.000 HD
ENDROOT
BRANCH   1   6
ATOM      3  C   UNL     1      46.335   2.133   7.945  0.00  0.00    +0.000 A 
ATOM      4  C   UNL     1      46.509   3.485   7.634  0.00  0.00    +0.000 A 
ATOM      5  C   UNL     1      45.713   4.457   8.253  0.00  0.00    +0.000 A 
ATOM      6  C   UNL     1      44.715   4.098   9.169  0.00  0.00    +0.000 A 
ATOM      7  C   UNL     1      44.584   2.744   9.500  0.00  0.00    +0.000 A 
ATOM      8  C   UNL     1      45.374   1.768   8.888  0.00  0.00    +0.000 A 
BRANCH   3  10
ATOM      9  N   UNL     1      46.817  -0.234   7.633  0.00  0.00    +0.000 N 
ATOM     10  C   UNL     1      47.119   1.057   7.291  0.00  0.00    +0.000 C 
ATOM     11  O   UNL     1      47.990   1.296   6.466  0.00  0.00    +0.000 OA
ATOM     12  H   UNL     1      47.288  -0.955   7.099  0.00  0.00    +0.000 HD
ATOM     13  H   UNL     1      45.946  -0.480   8.082  0.00  0.00    +0.000 HD
ENDBRANCH   3  10
ENDBRANCH   1   6
BRANCH   1  14
ATOM     14  C   UNL     1      43.709   5.149  11.234  0.00  0.00    +0.000 C 
ATOM     15  C   UNL     1      42.518   4.374  11.773  0.00  0.00    +0.000 C 
ATOM     16  C   UNL     1      42.478   5.866  11.763  0.00  0.00    +0.000 C 
BRANCH  14  17
ATOM     17  C   UNL     1      45.006   5.311  12.035  0.00  0.00    +0.000 A 
ATOM     18  C   UNL     1      45.503   4.318  12.896  0.00  0.00    +0.000 A 
ATOM     19  C   UNL     1      46.758   4.429  13.501  0.00  0.00    +0.000 A 
ATOM     20  C   UNL     1      47.557   5.540  13.252  0.00  0.00    +0.000 A 
ATOM     21  C   UNL     1      47.098   6.563  12.415  0.00  0.00    +0.000 A 
ATOM     22  C   UNL     1      45.818   6.448  11.843  0.00  0.00    +0.000 A 
BRANCH  21  23
ATOM     23  C   UNL     1      47.964   7.752  12.084  0.00  0.00    +0.000 C 
ATOM     24  F   UNL     1      48.810   8.107  13.093  0.00  0.00    +0.000 F 
ATOM     25  F   UNL     1      48.758   7.537  10.998  0.00  0.00    +0.000 F 
ATOM     26  F   UNL     1      47.237   8.868  11.800  0.00  0.00    +0.000 F 
ENDBRANCH  21  23
ENDBRANCH  14  17
ENDBRANCH   1  14
TORSDOF 5
ENDMDL
MODEL 3
REMARK VINA RESULT:    -8.128      1.999      2.698
REMARK INTER + INTRA:         -11.281
REMARK INTER:                 -10.565
REMARK INTRA:                  -0.716
REMARK UNBOUND:                -0.778
REMARK  Name = 
REMARK  5 active torsions:
REMARK  status: ('A' for Active; 'I' for Inactive)
REMARK    1  A    between atoms: C_2  and  C_4
REMARK    2  A    between atoms: C_7  and  N_8
REMARK    3  A    between atoms: N_8  and  C_9
REMARK    4  A    between atoms: C_9  and  C_10
REMARK    5  A    between atoms: C_14  and  C_15
REMARK                            x       y       z     vdW  Elec       q    Type
REMARK                         _______ _______ _______ _____ _____    ______ ____
ROOT
ATOM      1  N   UNL     1      43.794   4.676  10.009  0.00  0.00    +0.000 N 
ATOM      2  H   UNL     1      42.842   4.372   9.832  0.00  0.00    +0.000 HD
ENDROOT
BRANCH   1   6
ATOM      3  C   UNL     1      46.605   2.758   7.484  0.00  0.00    +0.000 A 
ATOM      4  C   UNL     1      45.682   2.015   8.226  0.00  0.00    +0.000 A 
ATOM      5  C   UNL     1      44.754   2.665   9.048  0.00  0.00    +0.000 A 
ATOM      6  C   UNL     1      44.745   4.061   9.167  0.00  0.00    +0.000 A 
ATOM      7  C   UNL     1      45.648   4.791   8.385  0.00  0.00    +0.000 A 
ATOM      8  C   UNL     1      46.578   4.151   7.562  0.00  0.00    +0.000 A 
BRANCH   3  10
ATOM      9  N   UNL     1      47.935   2.741   5.444  0.00  0.00    +0.000 N 
ATOM     10  C   UNL     1      47.637   2.124   6.630  0.00  0.00    +0.000 C 
ATOM     11  O   UNL     1      48.222   1.103   6.964  0.00  0.00    +0.000 OA
ATOM     12  H   UNL     1      48.715   2.354   4.927  0.00  0.00    +0.000 HD
ATOM     13  H   UNL     1      47.689   3.704   5.265  0.00  0.00    +0.000 HD
ENDBRANCH   3  10
ENDBRANCH   1   6
BRANCH   1  14
ATOM     14  C   UNL     1      44.122   5.042  11.409  0.00  0.00    +0.000 C 
ATOM     15  C   UNL     1      44.288   3.903  12.401  0.00  0.00    +0.000 C 
ATOM     16  C   UNL     1      43.087   4.783  12.491  0.00  0.00    +0.000 C 
BRANCH  14  17
ATOM     17  C   UNL     1      44.929   6.341  11.517  0.00  0.00    +0.000 A 
ATOM     18  C   UNL     1      44.333   7.613  11.549  0.00  0.00    +0.000 A 
ATOM     19  C   UNL     1      45.078   8.769  11.794  0.00  0.00    +0.000 A 
ATOM     20  C   UNL     1      46.448   8.681  12.024  0.00  0.00    +0.000 A 
ATOM     21  C   UNL     1      47.089   7.439  11.986  0.00  0.00    +0.000 A 
ATOM     22  C   UNL     1      46.326   6.291  11.704  0.00  0.00    +0.000 A 
BRANCH  21  23
ATOM     23  C   UNL     1      48.561   7.307  12.285  0.00  0.00    +0.000 C 
ATOM     24  F   UNL     1      49.360   7.579  11.213  0.00  0.00    +0.000 F 
ATOM     25  F   UNL     1      48.973   8.149  13.273  0.00  0.00    +0.000 F 
ATOM     26  F   UNL     1      48.904   6.055  12.695  0.00  0.00    +0.000 F 
ENDBRANCH  21  23
ENDBRANCH  14  17
ENDBRANCH   1  14
TORSDOF 5
ENDMDL
MODEL 4
REMARK VINA RESULT:    -7.417      4.277      6.933
REMARK INTER + INTRA:         -10.363
REMARK INTER:                  -9.477
REMARK INTRA:                  -0.886
REMARK UNBOUND:                -0.778
REMARK  Name = 
REMARK  5 active torsions:
REMARK  status: ('A' for Active; 'I' for Inactive)
REMARK    1  A    between atoms: C_2  and  C_4
REMARK    2  A    between atoms: C_7  and  N_8
REMARK    3  A    between atoms: N_8  and  C_9
REMARK    4  A    between atoms: C_9  and  C_10
REMARK    5  A    between atoms: C_14  and  C_15
REMARK                            x       y       z     vdW  Elec       q    Type
REMARK                         _______ _______ _______ _____ _____    ______ ____
ROOT
ATOM      1  N   UNL     1      44.691   6.597  10.826  0.00  0.00    +0.000 N 
ATOM      2  H   UNL     1      44.999   6.723   9.867  0.00  0.00    +0.000 HD
ENDROOT
BRANCH   1   6
ATOM      3  C   UNL     1      47.434   8.158  13.653  0.00  0.00    +0.000 A 
ATOM      4  C   UNL     1      47.689   6.950  12.997  0.00  0.00    +0.000 A 
ATOM      5  C   UNL     1      46.777   6.454  12.057  0.00  0.00    +0.000 A 
ATOM      6  C   UNL     1      45.584   7.135  11.777  0.00  0.00    +0.000 A 
ATOM      7  C   UNL     1      45.365   8.363  12.413  0.00  0.00    +0.000 A 
ATOM      8  C   UNL     1      46.270   8.866  13.351  0.00  0.00    +0.000 A 
BRANCH   3  10
ATOM      9  N   UNL     1      47.764   9.243  15.808  0.00  0.00    +0.000 N 
ATOM     10  C   UNL     1      48.342   8.711  14.686  0.00  0.00    +0.000 C 
ATOM     11  O   UNL     1      49.559   8.685  14.565  0.00  0.00    +0.000 OA
ATOM     12  H   UNL     1      48.401   9.518  16.546  0.00  0.00    +0.000 HD
ATOM     13  H   UNL     1      46.810   9.039  16.068  0.00  0.00    +0.000 HD
ENDBRANCH   3  10
ENDBRANCH   1   6
BRANCH   1  14
ATOM     14  C   UNL     1      43.899   5.376  11.111  0.00  0.00    +0.000 C 
ATOM     15  C   UNL     1      42.432   5.568  11.459  0.00  0.00    +0.000 C 
ATOM     16  C   UNL     1      43.389   5.152  12.525  0.00  0.00    +0.000 C 
BRANCH  14  17
ATOM     17  C   UNL     1      44.400   4.143  10.350  0.00  0.00    +0.000 A 
ATOM     18  C   UNL     1      43.885   2.852  10.558  0.00  0.00    +0.000 A 
ATOM     19  C   UNL     1      44.255   1.773   9.752  0.00  0.00    +0.000 A 
ATOM     20  C   UNL     1      45.150   1.960   8.703  0.00  0.00    +0.000 A 
ATOM     21  C   UNL     1      45.703   3.223   8.467  0.00  0.00    +0.000 A 
ATOM     22  C   UNL     1      45.343   4.289   9.311  0.00  0.00    +0.000 A 
BRANCH  21  23
ATOM     23  C   UNL     1      46.633   3.467   7.306  0.00  0.00    +0.000 C 
ATOM     24  F   UNL     1      47.222   4.697   7.330  0.00  0.00    +0.000 F 
ATOM     25  F   UNL     1      47.657   2.569   7.257  0.00  0.00    +0.000 F 
ATOM     26  F   UNL     1      46.004   3.381   6.101  0.00  0.00    +0.000 F 
ENDBRANCH  21  23
ENDBRANCH  14  17
ENDBRANCH   1  14
TORSDOF 5
ENDMDL
MODEL 5
REMARK VINA RESULT:    -6.937      4.474      7.035
REMARK INTER + INTRA:          -9.742
REMARK INTER:                  -8.677
REMARK INTRA:                  -1.065
REMARK UNBOUND:                -0.778
REMARK  Name = 
REMARK  5 active torsions:
REMARK  status: ('A' for Active; 'I' for Inactive)
REMARK    1  A    between atoms: C_2  and  C_4
REMARK    2  A    between atoms: C_7  and  N_8
REMARK    3  A    between atoms: N_8  and  C_9
REMARK    4  A    between atoms: C_9  and  C_10
REMARK    5  A    between atoms: C_14  and  C_15
REMARK                            x       y       z     vdW  Elec       q    Type
REMARK                         _______ _______ _______ _____ _____    ______ ____
ROOT
ATOM      1  N   UNL     1      47.780   6.687  12.876  0.00  0.00    +0.000 N 
ATOM      2  H   UNL     1      48.378   6.281  12.164  0.00  0.00    +0.000 HD
ENDROOT
BRANCH   1   6
ATOM      3  C   UNL     1      47.958   4.697  16.612  0.00  0.00    +0.000 A 
ATOM      4  C   UNL     1      48.643   5.898  16.406  0.00  0.00    +0.000 A 
ATOM      5  C   UNL     1      48.565   6.548  15.168  0.00  0.00    +0.000 A 
ATOM      6  C   UNL     1      47.829   6.001  14.108  0.00  0.00    +0.000 A 
ATOM      7  C   UNL     1      47.116   4.820  14.346  0.00  0.00    +0.000 A 
ATOM      8  C   UNL     1      47.187   4.165  15.578  0.00  0.00    +0.000 A 
BRANCH   3  10
ATOM      9  N   UNL     1      47.210   2.860  18.026  0.00  0.00    +0.000 N 
ATOM     10  C   UNL     1      48.036   3.944  17.887  0.00  0.00    +0.000 C 
ATOM     11  O   UNL     1      48.814   4.252  18.779  0.00  0.00    +0.000 OA
ATOM     12  H   UNL     1      47.354   2.298  18.855  0.00  0.00    +0.000 HD
ATOM     13  H   UNL     1      46.770   2.417  17.232  0.00  0.00    +0.000 HD
ENDBRANCH   3  10
ENDBRANCH   1   6
BRANCH   1  14
ATOM     14  C   UNL     1      46.534   7.338  12.401  0.00  0.00    +0.000 C 
ATOM     15  C   UNL     1      46.652   8.764  11.888  0.00  0.00    +0.000 C 
ATOM     16  C   UNL     1      45.976   8.508  13.193  0.00  0.00    +0.000 C 
BRANCH  14  17
ATOM     17  C   UNL     1      45.521   6.345  11.822  0.00  0.00    +0.000 A 
ATOM     18  C   UNL     1      44.202   6.234  12.293  0.00  0.00    +0.000 A 
ATOM     19  C   UNL     1      43.257   5.427  11.654  0.00  0.00    +0.000 A 
ATOM     20  C   UNL     1      43.608   4.710  10.514  0.00  0.00    +0.000 A 
ATOM     21  C   UNL     1      44.913   4.776  10.016  0.00  0.00    +0.000 A 
ATOM     22  C   UNL     1      45.858   5.568  10.694  0.00  0.00    +0.000 A 
BRANCH  21  23
ATOM     23  C   UNL     1      45.307   4.054   8.752  0.00  0.00    +0.000 C 
ATOM     24  F   UNL     1      44.316   4.015   7.817  0.00  0.00    +0.000 F 
ATOM     25  F   UNL     1      46.375   4.629   8.132  0.00  0.00    +0.000 F 
ATOM     26  F   UNL     1      45.659   2.758   8.975  0.00  0.00    +0.000 F 
ENDBRANCH  21  23
ENDBRANCH  14  17
ENDBRANCH   1  14
TORSDOF 5
ENDMDL
MODEL 6
REMARK VINA RESULT:    -6.859      4.198      6.554
REMARK INTER + INTRA:          -9.642
REMARK INTER:                  -9.016
REMARK INTRA:                  -0.626
REMARK UNBOUND:                -0.778
REMARK  Name = 
REMARK  5 active torsions:
REMARK  status: ('A' for Active; 'I' for Inactive)
REMARK    1  A    between atoms: C_2  and  C_4
REMARK    2  A    between atoms: C_7  and  N_8
REMARK    3  A    between atoms: N_8  and  C_9
REMARK    4  A    between atoms: C_9  and  C_10
REMARK    5  A    between atoms: C_14  and  C_15
REMARK                            x       y       z     vdW  Elec       q    Type
REMARK                         _______ _______ _______ _____ _____    ______ ____
ROOT
ATOM      1  N   UNL     1      44.596   5.095  11.619  0.00  0.00    +0.000 N 
ATOM      2  H   UNL     1      44.080   5.823  11.135  0.00  0.00    +0.000 HD
ENDROOT
BRANCH   1   6
ATOM      3  C   UNL     1      48.093   6.577  13.497  0.00  0.00    +0.000 A 
ATOM      4  C   UNL     1      47.679   7.073  12.257  0.00  0.00    +0.000 A 
ATOM      5  C   UNL     1      46.516   6.579  11.655  0.00  0.00    +0.000 A 
ATOM      6  C   UNL     1      45.761   5.566  12.262  0.00  0.00    +0.000 A 
ATOM      7  C   UNL     1      46.166   5.112  13.522  0.00  0.00    +0.000 A 
ATOM      8  C   UNL     1      47.326   5.599  14.131  0.00  0.00    +0.000 A 
BRANCH   3  10
ATOM      9  N   UNL     1      50.313   7.569  13.367  0.00  0.00    +0.000 N 
ATOM     10  C   UNL     1      49.337   7.032  14.163  0.00  0.00    +0.000 C 
ATOM     11  O   UNL     1      49.494   6.954  15.374  0.00  0.00    +0.000 OA
ATOM     12  H   UNL     1      51.108   7.970  13.851  0.00  0.00    +0.000 HD
ATOM     13  H   UNL     1      50.121   7.900  12.433  0.00  0.00    +0.000 HD
ENDBRANCH   3  10
ENDBRANCH   1   6
BRANCH   1  14
ATOM     14  C   UNL     1      44.534   3.736  11.028  0.00  0.00    +0.000 C 
ATOM     15  C   UNL     1      43.352   2.864  11.421  0.00  0.00    +0.000 C 
ATOM     16  C   UNL     1      44.711   2.535  11.942  0.00  0.00    +0.000 C 
BRANCH  14  17
ATOM     17  C   UNL     1      45.180   3.654   9.640  0.00  0.00    +0.000 A 
ATOM     18  C   UNL     1      45.530   4.790   8.890  0.00  0.00    +0.000 A 
ATOM     19  C   UNL     1      46.249   4.690   7.696  0.00  0.00    +0.000 A 
ATOM     20  C   UNL     1      46.646   3.444   7.222  0.00  0.00    +0.000 A 
ATOM     21  C   UNL     1      46.308   2.284   7.926  0.00  0.00    +0.000 A 
ATOM     22  C   UNL     1      45.555   2.403   9.108  0.00  0.00    +0.000 A 
BRANCH  21  23
ATOM     23  C   UNL     1      46.772   0.925   7.465  0.00  0.00    +0.000 C 
ATOM     24  F   UNL     1      46.127  -0.108   8.080  0.00  0.00    +0.000 F 
ATOM     25  F   UNL     1      46.585   0.732   6.130  0.00  0.00    +0.000 F 
ATOM     26  F   UNL     1      48.099   0.719   7.689  0.00  0.00    +0.000 F 
ENDBRANCH  21  23
ENDBRANCH  14  17
ENDBRANCH   1  14
TORSDOF 5
ENDMDL
MODEL 7
REMARK VINA RESULT:    -6.518      2.734      5.051
REMARK INTER + INTRA:          -9.201
REMARK INTER:                  -8.283
REMARK INTRA:                  -0.918
REMARK UNBOUND:                -0.778
REMARK  Name = 
REMARK  5 active torsions:
REMARK  status: ('A' for Active; 'I' for Inactive)
REMARK    1  A    between atoms: C_2  and  C_4
REMARK    2  A    between atoms: C_7  and  N_8
REMARK    3  A    between atoms: N_8  and  C_9
REMARK    4  A    between atoms: C_9  and  C_10
REMARK    5  A    between atoms: C_14  and  C_15
REMARK                            x       y       z     vdW  Elec       q    Type
REMARK                         _______ _______ _______ _____ _____    ______ ____
ROOT
ATOM      1  N   UNL     1      46.770   7.517  13.663  0.00  0.00    +0.000 N 
ATOM      2  H   UNL     1      46.166   7.859  14.404  0.00  0.00    +0.000 HD
ENDROOT
BRANCH   1   6
ATOM      3  C   UNL     1      44.785   4.820  11.067  0.00  0.00    +0.000 A 
ATOM      4  C   UNL     1      44.793   4.611  12.449  0.00  0.00    +0.000 A 
ATOM      5  C   UNL     1      45.446   5.518  13.294  0.00  0.00    +0.000 A 
ATOM      6  C   UNL     1      46.123   6.630  12.776  0.00  0.00    +0.000 A 
ATOM      7  C   UNL     1      46.068   6.847  11.394  0.00  0.00    +0.000 A 
ATOM      8  C   UNL     1      45.419   5.947  10.544  0.00  0.00    +0.000 A 
BRANCH   3  10
ATOM      9  N   UNL     1      44.071   4.255   8.808  0.00  0.00    +0.000 N 
ATOM     10  C   UNL     1      44.147   3.873  10.121  0.00  0.00    +0.000 C 
ATOM     11  O   UNL     1      43.718   2.785  10.479  0.00  0.00    +0.000 OA
ATOM     12  H   UNL     1      43.731   3.554   8.162  0.00  0.00    +0.000 HD
ATOM     13  H   UNL     1      44.645   4.997   8.432  0.00  0.00    +0.000 HD
ENDBRANCH   3  10
ENDBRANCH   1   6
BRANCH   1  14
ATOM     14  C   UNL     1      48.207   7.366  13.998  0.00  0.00    +0.000 C 
ATOM     15  C   UNL     1      49.165   8.392  13.413  0.00  0.00    +0.000 C 
ATOM     16  C   UNL     1      49.178   6.994  12.890  0.00  0.00    +0.000 C 
BRANCH  14  17
ATOM     17  C   UNL     1      48.440   6.724  15.370  0.00  0.00    +0.000 A 
ATOM     18  C   UNL     1      48.712   7.471  16.529  0.00  0.00    +0.000 A 
ATOM     19  C   UNL     1      48.775   6.875  17.791  0.00  0.00    +0.000 A 
ATOM     20  C   UNL     1      48.558   5.508  17.929  0.00  0.00    +0.000 A 
ATOM     21  C   UNL     1      48.300   4.720  16.803  0.00  0.00    +0.000 A 
ATOM     22  C   UNL     1      48.274   5.334  15.537  0.00  0.00    +0.000 A 
BRANCH  21  23
ATOM     23  C   UNL     1      48.007   3.246  16.927  0.00  0.00    +0.000 C 
ATOM     24  F   UNL     1      46.818   2.977  17.538  0.00  0.00    +0.000 F 
ATOM     25  F   UNL     1      47.950   2.619  15.719  0.00  0.00    +0.000 F 
ATOM     26  F   UNL     1      48.953   2.581  17.648  0.00  0.00    +0.000 F 
ENDBRANCH  21  23
ENDBRANCH  14  17
ENDBRANCH   1  14
TORSDOF 5
ENDMDL
MODEL 8
REMARK VINA RESULT:    -6.309      4.190      6.972
REMARK INTER + INTRA:          -8.931
REMARK INTER:                  -7.785
REMARK INTRA:                  -1.146
REMARK UNBOUND:                -0.778
REMARK  Name = 
REMARK  5 active torsions:
REMARK  status: ('A' for Active; 'I' for Inactive)
REMARK    1  A    between atoms: C_2  and  C_4
REMARK    2  A    between atoms: C_7  and  N_8
REMARK    3  A    between atoms: N_8  and  C_9
REMARK    4  A    between atoms: C_9  and  C_10
REMARK    5  A    between atoms: C_14  and  C_15
REMARK                            x       y       z     vdW  Elec       q    Type
REMARK                         _______ _______ _______ _____ _____    ______ ____
ROOT
ATOM      1  N   UNL     1      48.116   6.879  12.932  0.00  0.00    +0.000 N 
ATOM      2  H   UNL     1      48.737   6.415  12.277  0.00  0.00    +0.000 HD
ENDROOT
BRANCH   1   6
ATOM      3  C   UNL     1      47.854   4.867  16.651  0.00  0.00    +0.000 A 
ATOM      4  C   UNL     1      47.221   4.357  15.514  0.00  0.00    +0.000 A 
ATOM      5  C   UNL     1      47.326   5.030  14.290  0.00  0.00    +0.000 A 
ATOM      6  C   UNL     1      48.038   6.232  14.184  0.00  0.00    +0.000 A 
ATOM      7  C   UNL     1      48.701   6.704  15.323  0.00  0.00    +0.000 A 
ATOM      8  C   UNL     1      48.601   6.040  16.548  0.00  0.00    +0.000 A 
BRANCH   3  10
ATOM      9  N   UNL     1      47.199   4.964  18.995  0.00  0.00    +0.000 N 
ATOM     10  C   UNL     1      47.743   4.221  17.982  0.00  0.00    +0.000 C 
ATOM     11  O   UNL     1      48.101   3.068  18.178  0.00  0.00    +0.000 OA
ATOM     12  H   UNL     1      47.034   4.472  19.865  0.00  0.00    +0.000 HD
ATOM     13  H   UNL     1      46.650   5.793  18.817  0.00  0.00    +0.000 HD
ENDBRANCH   3  10
ENDBRANCH   1   6
BRANCH   1  14
ATOM     14  C   UNL     1      46.948   7.584  12.350  0.00  0.00    +0.000 C 
ATOM     15  C   UNL     1      47.108   9.069  12.065  0.00  0.00    +0.000 C 
ATOM     16  C   UNL     1      46.235   8.629  13.192  0.00  0.00    +0.000 C 
BRANCH  14  17
ATOM     17  C   UNL     1      46.072   6.677  11.479  0.00  0.00    +0.000 A 
ATOM     18  C   UNL     1      46.465   6.224  10.208  0.00  0.00    +0.000 A 
ATOM     19  C   UNL     1      45.715   5.283   9.498  0.00  0.00    +0.000 A 
ATOM     20  C   UNL     1      44.548   4.762  10.047  0.00  0.00    +0.000 A 
ATOM     21  C   UNL     1      44.107   5.194  11.302  0.00  0.00    +0.000 A 
ATOM     22  C   UNL     1      44.859   6.167  11.987  0.00  0.00    +0.000 A 
BRANCH  21  23
ATOM     23  C   UNL     1      42.877   4.607  11.946  0.00  0.00    +0.000 C 
ATOM     24  F   UNL     1      41.733   5.294  11.662  0.00  0.00    +0.000 F 
ATOM     25  F   UNL     1      42.642   3.324  11.554  0.00  0.00    +0.000 F 
ATOM     26  F   UNL     1      42.960   4.572  13.305  0.00  0.00    +0.000 F 
ENDBRANCH  21  23
ENDBRANCH  14  17
ENDBRANCH   1  14
TORSDOF 5
ENDMDL
MODEL 9
REMARK VINA RESULT:    -6.218      3.063      4.959
REMARK INTER + INTRA:          -8.813
REMARK INTER:                  -7.641
REMARK INTRA:                  -1.171
REMARK UNBOUND:                -0.778
REMARK  Name = 
REMARK  5 active torsions:
REMARK  status: ('A' for Active; 'I' for Inactive)
REMARK    1  A    between atoms: C_2  and  C_4
REMARK    2  A    between atoms: C_7  and  N_8
REMARK    3  A    between atoms: N_8  and  C_9
REMARK    4  A    between atoms: C_9  and  C_10
REMARK    5  A    between atoms: C_14  and  C_15
REMARK                            x       y       z     vdW  Elec       q    Type
REMARK                         _______ _______ _______ _____ _____    ______ ____
ROOT
ATOM      1  N   UNL     1      46.858   7.906  12.617  0.00  0.00    +0.000 N 
ATOM      2  H   UNL     1      46.276   8.603  13.070  0.00  0.00    +0.000 HD
ENDROOT
BRANCH   1   6
ATOM      3  C   UNL     1      44.822   4.318  11.654  0.00  0.00    +0.000 A 
ATOM      4  C   UNL     1      45.192   5.222  10.655  0.00  0.00    +0.000 A 
ATOM      5  C   UNL     1      45.874   6.399  10.989  0.00  0.00    +0.000 A 
ATOM      6  C   UNL     1      46.173   6.708  12.324  0.00  0.00    +0.000 A 
ATOM      7  C   UNL     1      45.832   5.771  13.306  0.00  0.00    +0.000 A 
ATOM      8  C   UNL     1      45.152   4.594  12.981  0.00  0.00    +0.000 A 
BRANCH   3  10
ATOM      9  N   UNL     1      43.709   2.296  12.432  0.00  0.00    +0.000 N 
ATOM     10  C   UNL     1      44.063   3.077  11.365  0.00  0.00    +0.000 C 
ATOM     11  O   UNL     1      43.744   2.759  10.228  0.00  0.00    +0.000 OA
ATOM     12  H   UNL     1      43.101   1.512  12.226  0.00  0.00    +0.000 HD
ATOM     13  H   UNL     1      43.706   2.651  13.378  0.00  0.00    +0.000 HD
ENDBRANCH   3  10
ENDBRANCH   1   6
BRANCH   1  14
ATOM     14  C   UNL     1      48.296   7.907  12.982  0.00  0.00    +0.000 C 
ATOM     15  C   UNL     1      49.250   8.615  12.034  0.00  0.00    +0.000 C 
ATOM     16  C   UNL     1      49.268   7.126  12.113  0.00  0.00    +0.000 C 
BRANCH  14  17
ATOM     17  C   UNL     1      48.532   7.868  14.496  0.00  0.00    +0.000 A 
ATOM     18  C   UNL     1      48.325   8.979  15.332  0.00  0.00    +0.000 A 
ATOM     19  C   UNL     1      48.405   8.878  16.723  0.00  0.00    +0.000 A 
ATOM     20  C   UNL     1      48.689   7.653  17.319  0.00  0.00    +0.000 A 
ATOM     21  C   UNL     1      48.919   6.523  16.528  0.00  0.00    +0.000 A 
ATOM     22  C   UNL     1      48.866   6.653  15.128  0.00  0.00    +0.000 A 
BRANCH  21  23
ATOM     23  C   UNL     1      49.175   5.172  17.147  0.00  0.00    +0.000 C 
ATOM     24  F   UNL     1      50.478   4.777  17.072  0.00  0.00    +0.000 F 
ATOM     25  F   UNL     1      48.854   5.133  18.471  0.00  0.00    +0.000 F 
ATOM     26  F   UNL     1      48.452   4.179  16.559  0.00  0.00    +0.000 F 
ENDBRANCH  21  23
ENDBRANCH  14  17
ENDBRANCH   1  14
TORSDOF 5
ENDMDL
