MODEL 1
REMARK VINA RESULT:    -7.584      0.000      0.000
REMARK INTER + INTRA:         -11.901
REMARK INTER:                 -10.687
REMARK INTRA:                  -1.213
REMARK UNBOUND:                -1.213
REMARK  Name = 
REMARK  7 active torsions:
REMARK  status: ('A' for Active; 'I' for Inactive)
REMARK    1  A    between atoms: C_2  and  C_3
REMARK    2  A    between atoms: C_8  and  C_9
REMARK    3  A    between atoms: N_11  and  C_12
REMARK    4  A    between atoms: C_12  and  C_13
REMARK    5  A    between atoms: C_16  and  C_17
REMARK    6  A    between atoms: C_17  and  N_18
REMARK    7  A    between atoms: C_19  and  C_21
REMARK                            x       y       z     vdW  Elec       q    Type
REMARK                         _______ _______ _______ _____ _____    ______ ____
ROOT
ATOM      1  C   UNL     1      50.163   7.075  15.706  0.00  0.00    +0.000 A 
ATOM      2  C   UNL     1      50.604   7.840  14.618  0.00  0.00    +0.000 A 
ATOM      3  C   UNL     1      49.814   7.977  13.471  0.00  0.00    +0.000 A 
ATOM      4  C   UNL     1      48.551   7.374  13.396  0.00  0.00    +0.000 A 
ATOM      5  C   UNL     1      48.112   6.605  14.483  0.00  0.00    +0.000 A 
ATOM      6  C   UNL     1      48.905   6.463  15.628  0.00  0.00    +0.000 A 
ENDROOT
BRANCH   1   7
ATOM      7  C   UNL     1      51.030   6.915  16.931  0.00  0.00    +0.000 C 
BRANCH   7  10
ATOM      8  C   UNL     1      51.155   4.669  17.937  0.00  0.00    +0.000 C 
ATOM      9  O   UNL     1      50.213   4.890  18.694  0.00  0.00    +0.000 OA
ATOM     10  N   UNL     1      51.612   5.591  17.024  0.00  0.00    +0.000 N 
ATOM     11  H   UNL     1      52.299   5.348  16.324  0.00  0.00    +0.000 HD
BRANCH   8  17
ATOM     12  C   UNL     1      51.304   2.157  17.402  0.00  0.00    +0.000 A 
ATOM     13  C   UNL     1      52.065   0.973  17.443  0.00  0.00    +0.000 A 
ATOM     14  C   UNL     1      53.313   0.948  18.065  0.00  0.00    +0.000 A 
ATOM     15  C   UNL     1      53.815   2.102  18.655  0.00  0.00    +0.000 A 
ATOM     16  C   UNL     1      53.072   3.284  18.611  0.00  0.00    +0.000 A 
ATOM     17  C   UNL     1      51.811   3.328  17.993  0.00  0.00    +0.000 A 
BRANCH  12  19
ATOM     18  N   UNL     1      49.032   2.018  16.164  0.00  0.00    +0.000 NA
ATOM     19  C   UNL     1      50.038   2.106  16.736  0.00  0.00    +0.000 C 
ENDBRANCH  12  19
ENDBRANCH   8  17
ENDBRANCH   7  10
ENDBRANCH   1   7
BRANCH   4  20
ATOM     20  C   UNL     1      47.694   7.525  12.164  0.00  0.00    +0.000 C 
BRANCH  20  21
ATOM     21  N   UNL     1      46.972   6.314  11.863  0.00  0.00    +0.000 N 
ATOM     22  C   UNL     1      45.601   6.274  11.892  0.00  0.00    +0.000 C 
ATOM     23  O   UNL     1      44.927   7.273  12.131  0.00  0.00    +0.000 OA
ATOM     24  H   UNL     1      47.498   5.446  11.886  0.00  0.00    +0.000 HD
BRANCH  22  25
ATOM     25  C   UNL     1      44.970   4.989  11.561  0.00  0.00    +0.000 A 
ATOM     26  C   UNL     1      44.240   4.310  12.527  0.00  0.00    +0.000 A 
ATOM     27  S   UNL     1      43.537   2.861  11.964  0.00  0.00    +0.000 S 
ATOM     28  C   UNL     1      44.227   3.062  10.422  0.00  0.00    +0.000 A 
ATOM     29  N   UNL     1      44.034   2.137   9.444  0.00  0.00    +0.000 NA
ATOM     30  C   UNL     1      44.638   2.401   8.333  0.00  0.00    +0.000 A 
ATOM     31  N   UNL     1      45.412   3.511   8.112  0.00  0.00    +0.000 N 
ATOM     32  C   UNL     1      45.612   4.483   9.060  0.00  0.00    +0.000 A 
ATOM     33  O   UNL     1      46.282   5.483   8.816  0.00  0.00    +0.000 OA
ATOM     34  C   UNL     1      44.966   4.230  10.333  0.00  0.00    +0.000 A 
ATOM     35  H   UNL     1      45.852   3.663   7.217  0.00  0.00    +0.000 HD
ENDBRANCH  22  25
ENDBRANCH  20  21
ENDBRANCH   4  20
TORSDOF 7
ENDMDL
MODEL 2
REMARK VINA RESULT:    -7.470      1.307      2.108
REMARK INTER + INTRA:         -11.740
REMARK INTER:                 -10.631
REMARK INTRA:                  -1.109
REMARK UNBOUND:                -1.213
REMARK  Name = 
REMARK  7 active torsions:
REMARK  status: ('A' for Active; 'I' for Inactive)
REMARK    1  A    between atoms: C_2  and  C_3
REMARK    2  A    between atoms: C_8  and  C_9
REMARK    3  A    between atoms: N_11  and  C_12
REMARK    4  A    between atoms: C_12  and  C_13
REMARK    5  A    between atoms: C_16  and  C_17
REMARK    6  A    between atoms: C_17  and  N_18
REMARK    7  A    between atoms: C_19  and  C_21
REMARK                            x       y       z     vdW  Elec       q    Type
REMARK                         _______ _______ _______ _____ _____    ______ ____
ROOT
ATOM      1  C   UNL     1      49.917   7.031  15.978  0.00  0.00    +0.000 A 
ATOM      2  C   UNL     1      48.766   6.388  15.505  0.00  0.00    +0.000 A 
ATOM      3  C   UNL     1      48.236   6.703  14.248  0.00  0.00    +0.000 A 
ATOM      4  C   UNL     1      48.861   7.647  13.424  0.00  0.00    +0.000 A 
ATOM      5  C   UNL     1      50.010   8.293  13.899  0.00  0.00    +0.000 A 
ATOM      6  C   UNL     1      50.538   7.984  15.159  0.00  0.00    +0.000 A 
ENDROOT
BRANCH   1   7
ATOM      7  C   UNL     1      50.471   6.702  17.343  0.00  0.00    +0.000 C 
BRANCH   7  10
ATOM      8  C   UNL     1      50.932   4.445  18.221  0.00  0.00    +0.000 C 
ATOM      9  O   UNL     1      49.998   4.498  19.016  0.00  0.00    +0.000 OA
ATOM     10  N   UNL     1      51.227   5.465  17.345  0.00  0.00    +0.000 N 
ATOM     11  H   UNL     1      51.914   5.353  16.613  0.00  0.00    +0.000 HD
BRANCH   8  17
ATOM     12  C   UNL     1      51.434   2.035  17.474  0.00  0.00    +0.000 A 
ATOM     13  C   UNL     1      52.349   0.965  17.438  0.00  0.00    +0.000 A 
ATOM     14  C   UNL     1      53.573   1.049  18.101  0.00  0.00    +0.000 A 
ATOM     15  C   UNL     1      53.899   2.202  18.807  0.00  0.00    +0.000 A 
ATOM     16  C   UNL     1      53.003   3.273  18.839  0.00  0.00    +0.000 A 
ATOM     17  C   UNL     1      51.763   3.205  18.183  0.00  0.00    +0.000 A 
BRANCH  12  19
ATOM     18  N   UNL     1      49.226   1.787  16.143  0.00  0.00    +0.000 NA
ATOM     19  C   UNL     1      50.204   1.876  16.761  0.00  0.00    +0.000 C 
ENDBRANCH  12  19
ENDBRANCH   8  17
ENDBRANCH   7  10
ENDBRANCH   1   7
BRANCH   4  20
ATOM     20  C   UNL     1      48.296   7.983  12.066  0.00  0.00    +0.000 C 
BRANCH  20  21
ATOM     21  N   UNL     1      47.580   6.869  11.494  0.00  0.00    +0.000 N 
ATOM     22  C   UNL     1      46.213   6.885  11.374  0.00  0.00    +0.000 C 
ATOM     23  O   UNL     1      45.543   7.860  11.704  0.00  0.00    +0.000 OA
ATOM     24  H   UNL     1      48.078   5.987  11.427  0.00  0.00    +0.000 HD
BRANCH  22  25
ATOM     25  C   UNL     1      45.590   5.698  10.770  0.00  0.00    +0.000 A 
ATOM     26  C   UNL     1      45.717   5.471   9.406  0.00  0.00    +0.000 A 
ATOM     27  S   UNL     1      44.976   4.028   8.879  0.00  0.00    +0.000 S 
ATOM     28  C   UNL     1      44.414   3.680  10.447  0.00  0.00    +0.000 A 
ATOM     29  N   UNL     1      43.669   2.569  10.692  0.00  0.00    +0.000 NA
ATOM     30  C   UNL     1      43.285   2.443  11.919  0.00  0.00    +0.000 A 
ATOM     31  N   UNL     1      43.587   3.326  12.924  0.00  0.00    +0.000 N 
ATOM     32  C   UNL     1      44.358   4.444  12.729  0.00  0.00    +0.000 A 
ATOM     33  O   UNL     1      44.639   5.195  13.660  0.00  0.00    +0.000 OA
ATOM     34  C   UNL     1      44.805   4.642  11.364  0.00  0.00    +0.000 A 
ATOM     35  H   UNL     1      43.262   3.166  13.866  0.00  0.00    +0.000 HD
ENDBRANCH  22  25
ENDBRANCH  20  21
ENDBRANCH   4  20
TORSDOF 7
ENDMDL
MODEL 3
REMARK VINA RESULT:    -6.942      2.732      8.989
REMARK INTER + INTRA:         -10.996
REMARK INTER:                  -9.910
REMARK INTRA:                  -1.085
REMARK UNBOUND:                -1.213
REMARK  Name = 
REMARK  7 active torsions:
REMARK  status: ('A' for Active; 'I' for Inactive)
REMARK    1  A    between atoms: C_2  and  C_3
REMARK    2  A    between atoms: C_8  and  C_9
REMARK    3  A    between atoms: N_11  and  C_12
REMARK    4  A    between atoms: C_12  and  C_13
REMARK    5  A    between atoms: C_16  and  C_17
REMARK    6  A    between atoms: C_17  and  N_18
REMARK    7  A    between atoms: C_19  and  C_21
REMARK                            x       y       z     vdW  Elec       q    Type
REMARK                         _______ _______ _______ _____ _____    ______ ____
ROOT
ATOM      1  C   UNL     1      46.855   7.681  13.231  0.00  0.00    +0.000 A 
ATOM      2  C   UNL     1      47.200   8.957  13.698  0.00  0.00    +0.000 A 
ATOM      3  C   UNL     1      48.260   9.129  14.595  0.00  0.00    +0.000 A 
ATOM      4  C   UNL     1      49.018   8.033  15.026  0.00  0.00    +0.000 A 
ATOM      5  C   UNL     1      48.671   6.756  14.562  0.00  0.00    +0.000 A 
ATOM      6  C   UNL     1      47.607   6.582  13.668  0.00  0.00    +0.000 A 
ENDROOT
BRANCH   1   7
ATOM      7  C   UNL     1      45.698   7.502  12.279  0.00  0.00    +0.000 C 
BRANCH   7  10
ATOM      8  C   UNL     1      44.790   5.683  10.885  0.00  0.00    +0.000 C 
ATOM      9  O   UNL     1      43.629   6.039  11.071  0.00  0.00    +0.000 OA
ATOM     10  N   UNL     1      45.870   6.350  11.416  0.00  0.00    +0.000 N 
ATOM     11  H   UNL     1      46.817   6.121  11.150  0.00  0.00    +0.000 HD
BRANCH   8  17
ATOM     12  C   UNL     1      44.621   3.181  10.312  0.00  0.00    +0.000 A 
ATOM     13  C   UNL     1      44.832   2.158   9.368  0.00  0.00    +0.000 A 
ATOM     14  C   UNL     1      45.450   2.429   8.147  0.00  0.00    +0.000 A 
ATOM     15  C   UNL     1      45.868   3.723   7.856  0.00  0.00    +0.000 A 
ATOM     16  C   UNL     1      45.654   4.746   8.782  0.00  0.00    +0.000 A 
ATOM     17  C   UNL     1      45.037   4.492  10.019  0.00  0.00    +0.000 A 
BRANCH  12  19
ATOM     18  N   UNL     1      43.449   2.481  12.513  0.00  0.00    +0.000 NA
ATOM     19  C   UNL     1      43.970   2.826  11.536  0.00  0.00    +0.000 C 
ENDBRANCH  12  19
ENDBRANCH   8  17
ENDBRANCH   7  10
ENDBRANCH   1   7
BRANCH   4  20
ATOM     20  C   UNL     1      50.166   8.216  15.988  0.00  0.00    +0.000 C 
BRANCH  20  21
ATOM     21  N   UNL     1      50.846   6.972  16.252  0.00  0.00    +0.000 N 
ATOM     22  C   UNL     1      51.330   6.675  17.501  0.00  0.00    +0.000 C 
ATOM     23  O   UNL     1      51.167   7.429  18.458  0.00  0.00    +0.000 OA
ATOM     24  H   UNL     1      51.182   6.452  15.448  0.00  0.00    +0.000 HD
BRANCH  22  25
ATOM     25  C   UNL     1      52.000   5.376  17.657  0.00  0.00    +0.000 A 
ATOM     26  C   UNL     1      53.356   5.331  17.953  0.00  0.00    +0.000 A 
ATOM     27  S   UNL     1      53.964   3.749  18.147  0.00  0.00    +0.000 S 
ATOM     28  C   UNL     1      52.448   3.065  17.792  0.00  0.00    +0.000 A 
ATOM     29  N   UNL     1      52.279   1.715  17.764  0.00  0.00    +0.000 NA
ATOM     30  C   UNL     1      51.086   1.333  17.453  0.00  0.00    +0.000 A 
ATOM     31  N   UNL     1      50.043   2.181  17.174  0.00  0.00    +0.000 N 
ATOM     32  C   UNL     1      50.161   3.547  17.218  0.00  0.00    +0.000 A 
ATOM     33  O   UNL     1      49.197   4.277  16.998  0.00  0.00    +0.000 OA
ATOM     34  C   UNL     1      51.486   4.032  17.549  0.00  0.00    +0.000 A 
ATOM     35  H   UNL     1      49.131   1.817  16.944  0.00  0.00    +0.000 HD
ENDBRANCH  22  25
ENDBRANCH  20  21
ENDBRANCH   4  20
TORSDOF 7
ENDMDL
MODEL 4
REMARK VINA RESULT:    -6.655      2.227      2.989
REMARK INTER + INTRA:         -10.592
REMARK INTER:                  -9.614
REMARK INTRA:                  -0.978
REMARK UNBOUND:                -1.213
REMARK  Name = 
REMARK  7 active torsions:
REMARK  status: ('A' for Active; 'I' for Inactive)
REMARK    1  A    between atoms: C_2  and  C_3
REMARK    2  A    between atoms: C_8  and  C_9
REMARK    3  A    between atoms: N_11  and  C_12
REMARK    4  A    between atoms: C_12  and  C_13
REMARK    5  A    between atoms: C_16  and  C_17
REMARK    6  A    between atoms: C_17  and  N_18
REMARK    7  A    between atoms: C_19  and  C_21
REMARK                            x       y       z     vdW  Elec       q    Type
REMARK                         _______ _______ _______ _____ _____    ______ ____
ROOT
ATOM      1  C   UNL     1      49.907   5.980  18.439  0.00  0.00    +0.000 A 
ATOM      2  C   UNL     1      49.022   5.446  17.492  0.00  0.00    +0.000 A 
ATOM      3  C   UNL     1      48.647   6.186  16.366  0.00  0.00    +0.000 A 
ATOM      4  C   UNL     1      49.169   7.468  16.144  0.00  0.00    +0.000 A 
ATOM      5  C   UNL     1      50.051   8.003  17.093  0.00  0.00    +0.000 A 
ATOM      6  C   UNL     1      50.422   7.266  18.224  0.00  0.00    +0.000 A 
ENDROOT
BRANCH   1   7
ATOM      7  C   UNL     1      50.291   5.184  19.662  0.00  0.00    +0.000 C 
BRANCH   7  10
ATOM      8  C   UNL     1      52.296   3.950  18.932  0.00  0.00    +0.000 C 
ATOM      9  O   UNL     1      52.979   4.970  18.885  0.00  0.00    +0.000 OA
ATOM     10  N   UNL     1      50.976   3.953  19.323  0.00  0.00    +0.000 N 
ATOM     11  H   UNL     1      50.468   3.094  19.480  0.00  0.00    +0.000 HD
BRANCH   8  17
ATOM     12  C   UNL     1      52.386   1.689  17.710  0.00  0.00    +0.000 A 
ATOM     13  C   UNL     1      53.134   0.541  17.381  0.00  0.00    +0.000 A 
ATOM     14  C   UNL     1      54.409   0.344  17.909  0.00  0.00    +0.000 A 
ATOM     15  C   UNL     1      54.953   1.288  18.773  0.00  0.00    +0.000 A 
ATOM     16  C   UNL     1      54.225   2.434  19.098  0.00  0.00    +0.000 A 
ATOM     17  C   UNL     1      52.936   2.649  18.579  0.00  0.00    +0.000 A 
BRANCH  12  19
ATOM     18  N   UNL     1      50.017   1.939  16.696  0.00  0.00    +0.000 NA
ATOM     19  C   UNL     1      51.090   1.825  17.119  0.00  0.00    +0.000 C 
ENDBRANCH  12  19
ENDBRANCH   8  17
ENDBRANCH   7  10
ENDBRANCH   1   7
BRANCH   4  20
ATOM     20  C   UNL     1      48.772   8.265  14.926  0.00  0.00    +0.000 C 
BRANCH  20  21
ATOM     21  N   UNL     1      47.594   7.724  14.294  0.00  0.00    +0.000 N 
ATOM     22  C   UNL     1      47.683   6.942  13.169  0.00  0.00    +0.000 C 
ATOM     23  O   UNL     1      48.765   6.631  12.678  0.00  0.00    +0.000 OA
ATOM     24  H   UNL     1      46.704   8.144  14.542  0.00  0.00    +0.000 HD
BRANCH  22  25
ATOM     25  C   UNL     1      46.419   6.440  12.613  0.00  0.00    +0.000 A 
ATOM     26  C   UNL     1      45.522   7.325  12.029  0.00  0.00    +0.000 A 
ATOM     27  S   UNL     1      44.130   6.571  11.392  0.00  0.00    +0.000 S 
ATOM     28  C   UNL     1      44.652   5.040  11.920  0.00  0.00    +0.000 A 
ATOM     29  N   UNL     1      43.891   3.932  11.711  0.00  0.00    +0.000 NA
ATOM     30  C   UNL     1      44.393   2.842  12.188  0.00  0.00    +0.000 A 
ATOM     31  N   UNL     1      45.591   2.761  12.851  0.00  0.00    +0.000 N 
ATOM     32  C   UNL     1      46.404   3.847  13.060  0.00  0.00    +0.000 A 
ATOM     33  O   UNL     1      47.488   3.731  13.625  0.00  0.00    +0.000 OA
ATOM     34  C   UNL     1      45.881   5.101  12.555  0.00  0.00    +0.000 A 
ATOM     35  H   UNL     1      45.932   1.875  13.193  0.00  0.00    +0.000 HD
ENDBRANCH  22  25
ENDBRANCH  20  21
ENDBRANCH   4  20
TORSDOF 7
ENDMDL
MODEL 5
REMARK VINA RESULT:    -6.623      3.293      8.666
REMARK INTER + INTRA:         -10.547
REMARK INTER:                 -10.460
REMARK INTRA:                  -0.087
REMARK UNBOUND:                -1.213
REMARK  Name = 
REMARK  7 active torsions:
REMARK  status: ('A' for Active; 'I' for Inactive)
REMARK    1  A    between atoms: C_2  and  C_3
REMARK    2  A    between atoms: C_8  and  C_9
REMARK    3  A    between atoms: N_11  and  C_12
REMARK    4  A    between atoms: C_12  and  C_13
REMARK    5  A    between atoms: C_16  and  C_17
REMARK    6  A    between atoms: C_17  and  N_18
REMARK    7  A    between atoms: C_19  and  C_21
REMARK                            x       y       z     vdW  Elec       q    Type
REMARK                         _______ _______ _______ _____ _____    ______ ____
ROOT
ATOM      1  C   UNL     1      44.723   7.000  11.549  0.00  0.00    +0.000 A 
ATOM      2  C   UNL     1      44.937   8.384  11.488  0.00  0.00    +0.000 A 
ATOM      3  C   UNL     1      45.893   8.998  12.305  0.00  0.00    +0.000 A 
ATOM      4  C   UNL     1      46.677   8.239  13.183  0.00  0.00    +0.000 A 
ATOM      5  C   UNL     1      46.461   6.856  13.248  0.00  0.00    +0.000 A 
ATOM      6  C   UNL     1      45.500   6.241  12.435  0.00  0.00    +0.000 A 
ENDROOT
BRANCH   1   7
ATOM      7  C   UNL     1      43.676   6.348  10.680  0.00  0.00    +0.000 C 
BRANCH   7  10
ATOM      8  C   UNL     1      45.251   5.041   9.307  0.00  0.00    +0.000 C 
ATOM      9  O   UNL     1      45.942   6.025   9.055  0.00  0.00    +0.000 OA
ATOM     10  N   UNL     1      44.136   5.096  10.111  0.00  0.00    +0.000 N 
ATOM     11  H   UNL     1      43.656   4.259  10.411  0.00  0.00    +0.000 HD
BRANCH   8  17
ATOM     12  C   UNL     1      45.163   2.474   9.157  0.00  0.00    +0.000 A 
ATOM     13  C   UNL     1      45.557   1.307   8.475  0.00  0.00    +0.000 A 
ATOM     14  C   UNL     1      46.434   1.372   7.393  0.00  0.00    +0.000 A 
ATOM     15  C   UNL     1      46.931   2.604   6.980  0.00  0.00    +0.000 A 
ATOM     16  C   UNL     1      46.539   3.769   7.643  0.00  0.00    +0.000 A 
ATOM     17  C   UNL     1      45.660   3.722   8.738  0.00  0.00    +0.000 A 
BRANCH  12  19
ATOM     18  N   UNL     1      43.469   2.223  11.099  0.00  0.00    +0.000 NA
ATOM     19  C   UNL     1      44.252   2.326  10.250  0.00  0.00    +0.000 C 
ENDBRANCH  12  19
ENDBRANCH   8  17
ENDBRANCH   7  10
ENDBRANCH   1   7
BRANCH   4  20
ATOM     20  C   UNL     1      47.713   8.898  14.060  0.00  0.00    +0.000 C 
BRANCH  20  21
ATOM     21  N   UNL     1      47.955   8.141  15.263  0.00  0.00    +0.000 N 
ATOM     22  C   UNL     1      48.994   7.249  15.349  0.00  0.00    +0.000 C 
ATOM     23  O   UNL     1      49.789   7.087  14.427  0.00  0.00    +0.000 OA
ATOM     24  H   UNL     1      47.197   8.093  15.936  0.00  0.00    +0.000 HD
BRANCH  22  25
ATOM     25  C   UNL     1      49.150   6.538  16.626  0.00  0.00    +0.000 A 
ATOM     26  C   UNL     1      49.861   7.129  17.662  0.00  0.00    +0.000 A 
ATOM     27  S   UNL     1      49.904   6.191  19.086  0.00  0.00    +0.000 S 
ATOM     28  C   UNL     1      49.018   4.938  18.353  0.00  0.00    +0.000 A 
ATOM     29  N   UNL     1      48.723   3.798  19.034  0.00  0.00    +0.000 NA
ATOM     30  C   UNL     1      48.072   2.919  18.349  0.00  0.00    +0.000 A 
ATOM     31  N   UNL     1      47.682   3.081  17.043  0.00  0.00    +0.000 N 
ATOM     32  C   UNL     1      47.933   4.224  16.326  0.00  0.00    +0.000 A 
ATOM     33  O   UNL     1      47.538   4.350  15.170  0.00  0.00    +0.000 OA
ATOM     34  C   UNL     1      48.676   5.241  17.045  0.00  0.00    +0.000 A 
ATOM     35  H   UNL     1      47.168   2.357  16.565  0.00  0.00    +0.000 HD
ENDBRANCH  22  25
ENDBRANCH  20  21
ENDBRANCH   4  20
TORSDOF 7
ENDMDL
MODEL 6
REMARK VINA RESULT:    -6.603      2.673      9.096
REMARK INTER + INTRA:         -10.519
REMARK INTER:                  -9.433
REMARK INTRA:                  -1.085
REMARK UNBOUND:                -1.213
REMARK  Name = 
REMARK  7 active torsions:
REMARK  status: ('A' for Active; 'I' for Inactive)
REMARK    1  A    between atoms: C_2  and  C_3
REMARK    2  A    between atoms: C_8  and  C_9
REMARK    3  A    between atoms: N_11  and  C_12
REMARK    4  A    between atoms: C_12  and  C_13
REMARK    5  A    between atoms: C_16  and  C_17
REMARK    6  A    between atoms: C_17  and  N_18
REMARK    7  A    between atoms: C_19  and  C_21
REMARK                            x       y       z     vdW  Elec       q    Type
REMARK                         _______ _______ _______ _____ _____    ______ ____
ROOT
ATOM      1  C   UNL     1      48.019   7.830  13.581  0.00  0.00    +0.000 A 
ATOM      2  C   UNL     1      48.299   9.065  14.180  0.00  0.00    +0.000 A 
ATOM      3  C   UNL     1      48.963   9.130  15.410  0.00  0.00    +0.000 A 
ATOM      4  C   UNL     1      49.388   7.962  16.057  0.00  0.00    +0.000 A 
ATOM      5  C   UNL     1      49.105   6.726  15.459  0.00  0.00    +0.000 A 
ATOM      6  C   UNL     1      48.435   6.660  14.231  0.00  0.00    +0.000 A 
ENDROOT
BRANCH   1   7
ATOM      7  C   UNL     1      47.284   7.767  12.264  0.00  0.00    +0.000 C 
BRANCH   7  10
ATOM      8  C   UNL     1      45.338   6.449  11.520  0.00  0.00    +0.000 C 
ATOM      9  O   UNL     1      44.746   7.444  11.109  0.00  0.00    +0.000 OA
ATOM     10  N   UNL     1      46.594   6.505  12.080  0.00  0.00    +0.000 N 
ATOM     11  H   UNL     1      47.117   5.668  12.293  0.00  0.00    +0.000 HD
BRANCH   8  17
ATOM     12  C   UNL     1      44.789   4.278  10.253  0.00  0.00    +0.000 A 
ATOM     13  C   UNL     1      44.193   3.003  10.278  0.00  0.00    +0.000 A 
ATOM     14  C   UNL     1      43.490   2.564  11.400  0.00  0.00    +0.000 A 
ATOM     15  C   UNL     1      43.371   3.394  12.509  0.00  0.00    +0.000 A 
ATOM     16  C   UNL     1      43.968   4.657  12.499  0.00  0.00    +0.000 A 
ATOM     17  C   UNL     1      44.676   5.118  11.376  0.00  0.00    +0.000 A 
BRANCH  12  19
ATOM     18  N   UNL     1      46.095   4.896   8.104  0.00  0.00    +0.000 NA
ATOM     19  C   UNL     1      45.503   4.651   9.070  0.00  0.00    +0.000 C 
ENDBRANCH  12  19
ENDBRANCH   8  17
ENDBRANCH   7  10
ENDBRANCH   1   7
BRANCH   4  20
ATOM     20  C   UNL     1      50.111   8.030  17.379  0.00  0.00    +0.000 C 
BRANCH  20  21
ATOM     21  N   UNL     1      50.952   6.877  17.589  0.00  0.00    +0.000 N 
ATOM     22  C   UNL     1      50.810   6.082  18.698  0.00  0.00    +0.000 C 
ATOM     23  O   UNL     1      49.937   6.287  19.537  0.00  0.00    +0.000 OA
ATOM     24  H   UNL     1      51.804   6.824  17.040  0.00  0.00    +0.000 HD
BRANCH  22  25
ATOM     25  C   UNL     1      51.717   4.931  18.805  0.00  0.00    +0.000 A 
ATOM     26  C   UNL     1      52.905   5.052  19.515  0.00  0.00    +0.000 A 
ATOM     27  S   UNL     1      53.815   3.610  19.580  0.00  0.00    +0.000 S 
ATOM     28  C   UNL     1      52.679   2.786  18.619  0.00  0.00    +0.000 A 
ATOM     29  N   UNL     1      52.871   1.485  18.269  0.00  0.00    +0.000 NA
ATOM     30  C   UNL     1      51.947   0.993  17.514  0.00  0.00    +0.000 A 
ATOM     31  N   UNL     1      50.843   1.684  17.083  0.00  0.00    +0.000 N 
ATOM     32  C   UNL     1      50.594   2.987  17.433  0.00  0.00    +0.000 A 
ATOM     33  O   UNL     1      49.577   3.564  17.057  0.00  0.00    +0.000 OA
ATOM     34  C   UNL     1      51.610   3.594  18.270  0.00  0.00    +0.000 A 
ATOM     35  H   UNL     1      50.151   1.238  16.499  0.00  0.00    +0.000 HD
ENDBRANCH  22  25
ENDBRANCH  20  21
ENDBRANCH   4  20
TORSDOF 7
ENDMDL
MODEL 7
REMARK VINA RESULT:    -6.596      2.555      9.472
REMARK INTER + INTRA:         -10.509
REMARK INTER:                  -9.410
REMARK INTRA:                  -1.099
REMARK UNBOUND:                -1.213
REMARK  Name = 
REMARK  7 active torsions:
REMARK  status: ('A' for Active; 'I' for Inactive)
REMARK    1  A    between atoms: C_2  and  C_3
REMARK    2  A    between atoms: C_8  and  C_9
REMARK    3  A    between atoms: N_11  and  C_12
REMARK    4  A    between atoms: C_12  and  C_13
REMARK    5  A    between atoms: C_16  and  C_17
REMARK    6  A    between atoms: C_17  and  N_18
REMARK    7  A    between atoms: C_19  and  C_21
REMARK                            x       y       z     vdW  Elec       q    Type
REMARK                         _______ _______ _______ _____ _____    ______ ____
ROOT
ATOM      1  C   UNL     1      47.722   7.111  13.454  0.00  0.00    +0.000 A 
ATOM      2  C   UNL     1      48.458   8.033  14.211  0.00  0.00    +0.000 A 
ATOM      3  C   UNL     1      48.886   7.717  15.505  0.00  0.00    +0.000 A 
ATOM      4  C   UNL     1      48.612   6.462  16.063  0.00  0.00    +0.000 A 
ATOM      5  C   UNL     1      47.873   5.541  15.308  0.00  0.00    +0.000 A 
ATOM      6  C   UNL     1      47.439   5.858  14.015  0.00  0.00    +0.000 A 
ENDROOT
BRANCH   1   7
ATOM      7  C   UNL     1      47.246   7.467  12.067  0.00  0.00    +0.000 C 
BRANCH   7  10
ATOM      8  C   UNL     1      45.573   6.001  11.006  0.00  0.00    +0.000 C 
ATOM      9  O   UNL     1      44.638   6.721  11.346  0.00  0.00    +0.000 OA
ATOM     10  N   UNL     1      46.886   6.295  11.292  0.00  0.00    +0.000 N 
ATOM     11  H   UNL     1      47.647   5.763  10.896  0.00  0.00    +0.000 HD
BRANCH   8  17
ATOM     12  C   UNL     1      44.595   3.639  10.718  0.00  0.00    +0.000 A 
ATOM     13  C   UNL     1      44.284   2.576   9.848  0.00  0.00    +0.000 A 
ATOM     14  C   UNL     1      44.641   2.628   8.501  0.00  0.00    +0.000 A 
ATOM     15  C   UNL     1      45.313   3.740   8.006  0.00  0.00    +0.000 A 
ATOM     16  C   UNL     1      45.617   4.804   8.858  0.00  0.00    +0.000 A 
ATOM     17  C   UNL     1      45.270   4.768  10.219  0.00  0.00    +0.000 A 
BRANCH  12  19
ATOM     18  N   UNL     1      43.800   3.434  13.174  0.00  0.00    +0.000 NA
ATOM     19  C   UNL     1      44.186   3.516  12.084  0.00  0.00    +0.000 C 
ENDBRANCH  12  19
ENDBRANCH   8  17
ENDBRANCH   7  10
ENDBRANCH   1   7
BRANCH   4  20
ATOM     20  C   UNL     1      49.079   6.116  17.456  0.00  0.00    +0.000 C 
BRANCH  20  21
ATOM     21  N   UNL     1      50.175   5.179  17.435  0.00  0.00    +0.000 N 
ATOM     22  C   UNL     1      50.028   3.898  17.907  0.00  0.00    +0.000 C 
ATOM     23  O   UNL     1      48.951   3.479  18.325  0.00  0.00    +0.000 OA
ATOM     24  H   UNL     1      51.106   5.562  17.310  0.00  0.00    +0.000 HD
BRANCH  22  25
ATOM     25  C   UNL     1      51.209   3.027  17.831  0.00  0.00    +0.000 A 
ATOM     26  C   UNL     1      51.075   1.720  17.382  0.00  0.00    +0.000 A 
ATOM     27  S   UNL     1      52.549   0.864  17.311  0.00  0.00    +0.000 S 
ATOM     28  C   UNL     1      53.413   2.194  17.927  0.00  0.00    +0.000 A 
ATOM     29  N   UNL     1      54.754   2.118  18.141  0.00  0.00    +0.000 NA
ATOM     30  C   UNL     1      55.278   3.188  18.638  0.00  0.00    +0.000 A 
ATOM     31  N   UNL     1      54.580   4.332  18.935  0.00  0.00    +0.000 N 
ATOM     32  C   UNL     1      53.232   4.463  18.710  0.00  0.00    +0.000 A 
ATOM     33  O   UNL     1      52.645   5.514  18.954  0.00  0.00    +0.000 OA
ATOM     34  C   UNL     1      52.591   3.283  18.164  0.00  0.00    +0.000 A 
ATOM     35  H   UNL     1      55.050   5.139  19.315  0.00  0.00    +0.000 HD
ENDBRANCH  22  25
ENDBRANCH  20  21
ENDBRANCH   4  20
TORSDOF 7
ENDMDL
MODEL 8
REMARK VINA RESULT:    -6.495      3.007      4.189
REMARK INTER + INTRA:         -10.366
REMARK INTER:                  -9.679
REMARK INTRA:                  -0.687
REMARK UNBOUND:                -1.213
REMARK  Name = 
REMARK  7 active torsions:
REMARK  status: ('A' for Active; 'I' for Inactive)
REMARK    1  A    between atoms: C_2  and  C_3
REMARK    2  A    between atoms: C_8  and  C_9
REMARK    3  A    between atoms: N_11  and  C_12
REMARK    4  A    between atoms: C_12  and  C_13
REMARK    5  A    between atoms: C_16  and  C_17
REMARK    6  A    between atoms: C_17  and  N_18
REMARK    7  A    between atoms: C_19  and  C_21
REMARK                            x       y       z     vdW  Elec       q    Type
REMARK                         _______ _______ _______ _____ _____    ______ ____
ROOT
ATOM      1  C   UNL     1      47.153   7.121  13.428  0.00  0.00    +0.000 A 
ATOM      2  C   UNL     1      47.273   5.751  13.154  0.00  0.00    +0.000 A 
ATOM      3  C   UNL     1      46.390   5.118  12.272  0.00  0.00    +0.000 A 
ATOM      4  C   UNL     1      45.384   5.844  11.622  0.00  0.00    +0.000 A 
ATOM      5  C   UNL     1      45.261   7.212  11.899  0.00  0.00    +0.000 A 
ATOM      6  C   UNL     1      46.140   7.846  12.786  0.00  0.00    +0.000 A 
ENDROOT
BRANCH   1   7
ATOM      7  C   UNL     1      48.095   7.793  14.396  0.00  0.00    +0.000 C 
BRANCH   7  10
ATOM      8  C   UNL     1      49.182   6.486  16.182  0.00  0.00    +0.000 C 
ATOM      9  O   UNL     1      50.241   6.409  15.564  0.00  0.00    +0.000 OA
ATOM     10  N   UNL     1      48.083   7.162  15.702  0.00  0.00    +0.000 N 
ATOM     11  H   UNL     1      47.268   7.324  16.275  0.00  0.00    +0.000 HD
BRANCH   8  17
ATOM     12  C   UNL     1      48.663   4.526  17.765  0.00  0.00    +0.000 A 
ATOM     13  C   UNL     1      48.719   4.003  19.071  0.00  0.00    +0.000 A 
ATOM     14  C   UNL     1      49.195   4.776  20.131  0.00  0.00    +0.000 A 
ATOM     15  C   UNL     1      49.619   6.079  19.899  0.00  0.00    +0.000 A 
ATOM     16  C   UNL     1      49.577   6.604  18.606  0.00  0.00    +0.000 A 
ATOM     17  C   UNL     1      49.097   5.843  17.527  0.00  0.00    +0.000 A 
BRANCH  12  19
ATOM     18  N   UNL     1      47.831   2.957  15.880  0.00  0.00    +0.000 NA
ATOM     19  C   UNL     1      48.173   3.669  16.730  0.00  0.00    +0.000 C 
ENDBRANCH  12  19
ENDBRANCH   8  17
ENDBRANCH   7  10
ENDBRANCH   1   7
BRANCH   4  20
ATOM     20  C   UNL     1      44.435   5.165  10.665  0.00  0.00    +0.000 C 
BRANCH  20  21
ATOM     21  N   UNL     1      45.125   4.254   9.785  0.00  0.00    +0.000 N 
ATOM     22  C   UNL     1      44.719   2.950   9.647  0.00  0.00    +0.000 C 
ATOM     23  O   UNL     1      43.729   2.513  10.227  0.00  0.00    +0.000 OA
ATOM     24  H   UNL     1      46.055   4.523   9.480  0.00  0.00    +0.000 HD
BRANCH  22  25
ATOM     25  C   UNL     1      45.491   2.113   8.718  0.00  0.00    +0.000 A 
ATOM     26  C   UNL     1      45.390   0.730   8.788  0.00  0.00    +0.000 A 
ATOM     27  S   UNL     1      46.313  -0.087   7.609  0.00  0.00    +0.000 S 
ATOM     28  C   UNL     1      46.923   1.378   6.994  0.00  0.00    +0.000 A 
ATOM     29  N   UNL     1      47.810   1.388   5.963  0.00  0.00    +0.000 NA
ATOM     30  C   UNL     1      48.212   2.565   5.616  0.00  0.00    +0.000 A 
ATOM     31  N   UNL     1      47.800   3.734   6.204  0.00  0.00    +0.000 N 
ATOM     32  C   UNL     1      46.886   3.773   7.227  0.00  0.00    +0.000 A 
ATOM     33  O   UNL     1      46.512   4.841   7.706  0.00  0.00    +0.000 OA
ATOM     34  C   UNL     1      46.412   2.476   7.666  0.00  0.00    +0.000 A 
ATOM     35  H   UNL     1      48.147   4.624   5.880  0.00  0.00    +0.000 HD
ENDBRANCH  22  25
ENDBRANCH  20  21
ENDBRANCH   4  20
TORSDOF 7
ENDMDL
MODEL 9
REMARK VINA RESULT:    -6.437      3.303      8.997
REMARK INTER + INTRA:         -10.285
REMARK INTER:                  -9.165
REMARK INTRA:                  -1.121
REMARK UNBOUND:                -1.213
REMARK  Name = 
REMARK  7 active torsions:
REMARK  status: ('A' for Active; 'I' for Inactive)
REMARK    1  A    between atoms: C_2  and  C_3
REMARK    2  A    between atoms: C_8  and  C_9
REMARK    3  A    between atoms: N_11  and  C_12
REMARK    4  A    between atoms: C_12  and  C_13
REMARK    5  A    between atoms: C_16  and  C_17
REMARK    6  A    between atoms: C_17  and  N_18
REMARK    7  A    between atoms: C_19  and  C_21
REMARK                            x       y       z     vdW  Elec       q    Type
REMARK                         _______ _______ _______ _____ _____    ______ ____
ROOT
ATOM      1  C   UNL     1      48.405   7.944  15.061  0.00  0.00    +0.000 A 
ATOM      2  C   UNL     1      48.942   9.036  15.757  0.00  0.00    +0.000 A 
ATOM      3  C   UNL     1      49.532   8.864  17.014  0.00  0.00    +0.000 A 
ATOM      4  C   UNL     1      49.624   7.592  17.594  0.00  0.00    +0.000 A 
ATOM      5  C   UNL     1      49.084   6.500  16.900  0.00  0.00    +0.000 A 
ATOM      6  C   UNL     1      48.488   6.672  15.644  0.00  0.00    +0.000 A 
ENDROOT
BRANCH   1   7
ATOM      7  C   UNL     1      47.752   8.141  13.715  0.00  0.00    +0.000 C 
BRANCH   7  10
ATOM      8  C   UNL     1      46.658   6.508  12.227  0.00  0.00    +0.000 C 
ATOM      9  O   UNL     1      47.455   6.715  11.316  0.00  0.00    +0.000 OA
ATOM     10  N   UNL     1      46.736   7.142  13.446  0.00  0.00    +0.000 N 
ATOM     11  H   UNL     1      46.154   6.867  14.225  0.00  0.00    +0.000 HD
BRANCH   8  17
ATOM     12  C   UNL     1      45.519   4.235  12.617  0.00  0.00    +0.000 A 
ATOM     13  C   UNL     1      44.396   3.414  12.405  0.00  0.00    +0.000 A 
ATOM     14  C   UNL     1      43.341   3.840  11.598  0.00  0.00    +0.000 A 
ATOM     15  C   UNL     1      43.396   5.090  10.992  0.00  0.00    +0.000 A 
ATOM     16  C   UNL     1      44.502   5.917  11.204  0.00  0.00    +0.000 A 
ATOM     17  C   UNL     1      45.576   5.503  12.010  0.00  0.00    +0.000 A 
BRANCH  12  19
ATOM     18  N   UNL     1      47.380   3.267  14.137  0.00  0.00    +0.000 NA
ATOM     19  C   UNL     1      46.556   3.731  13.465  0.00  0.00    +0.000 C 
ENDBRANCH  12  19
ENDBRANCH   8  17
ENDBRANCH   7  10
ENDBRANCH   1   7
BRANCH   4  20
ATOM     20  C   UNL     1      50.266   7.402  18.946  0.00  0.00    +0.000 C 
BRANCH  20  21
ATOM     21  N   UNL     1      50.952   6.137  19.040  0.00  0.00    +0.000 N 
ATOM     22  C   UNL     1      52.234   5.984  18.575  0.00  0.00    +0.000 C 
ATOM     23  O   UNL     1      52.870   6.922  18.101  0.00  0.00    +0.000 OA
ATOM     24  H   UNL     1      50.381   5.316  19.214  0.00  0.00    +0.000 HD
BRANCH  22  25
ATOM     25  C   UNL     1      52.837   4.652  18.729  0.00  0.00    +0.000 A 
ATOM     26  C   UNL     1      54.045   4.516  19.400  0.00  0.00    +0.000 A 
ATOM     27  S   UNL     1      54.578   2.901  19.529  0.00  0.00    +0.000 S 
ATOM     28  C   UNL     1      53.240   2.331  18.647  0.00  0.00    +0.000 A 
ATOM     29  N   UNL     1      53.096   1.006  18.372  0.00  0.00    +0.000 NA
ATOM     30  C   UNL     1      52.051   0.716  17.671  0.00  0.00    +0.000 A 
ATOM     31  N   UNL     1      51.133   1.633  17.226  0.00  0.00    +0.000 N 
ATOM     32  C   UNL     1      51.222   2.974  17.503  0.00  0.00    +0.000 A 
ATOM     33  O   UNL     1      50.362   3.763  17.119  0.00  0.00    +0.000 OA
ATOM     34  C   UNL     1      52.387   3.357  18.278  0.00  0.00    +0.000 A 
ATOM     35  H   UNL     1      50.332   1.340  16.688  0.00  0.00    +0.000 HD
ENDBRANCH  22  25
ENDBRANCH  20  21
ENDBRANCH   4  20
TORSDOF 7
ENDMDL
