MODEL 1
REMARK VINA RESULT:    -8.157      0.000      0.000
REMARK INTER + INTRA:         -11.770
REMARK INTER:                 -11.018
REMARK INTRA:                  -0.751
REMARK UNBOUND:                -0.751
REMARK  Name = 
REMARK  6 active torsions:
REMARK  status: ('A' for Active; 'I' for Inactive)
REMARK    1  A    between atoms: C_2  and  C_18
REMARK    2  A    between atoms: N_3  and  C_4
REMARK    3  A    between atoms: C_4  and  C_5
REMARK    4  A    between atoms: C_8  and  O_9
REMARK    5  A    between atoms: O_9  and  C_10
REMARK    6  A    between atoms: C_10  and  C_11
REMARK                            x       y       z     vdW  Elec       q    Type
REMARK                         _______ _______ _______ _____ _____    ______ ____
ROOT
ATOM      1  O   UNL     1      46.970   3.065  13.998  0.00  0.00    +0.000 OA
ATOM      2  C   UNL     1      46.634   4.161  14.439  0.00  0.00    +0.000 C 
ATOM      3  N   UNL     1      45.401   4.701  14.208  0.00  0.00    +0.000 N 
ATOM      4  H   UNL     1      45.160   5.613  14.576  0.00  0.00    +0.000 HD
ENDROOT
BRANCH   2   5
ATOM      5  C   UNL     1      47.533   4.955  15.281  0.00  0.00    +0.000 A 
ATOM      6  C   UNL     1      48.209   6.044  14.753  0.00  0.00    +0.000 A 
ATOM      7  S   UNL     1      49.188   6.853  15.893  0.00  0.00    +0.000 S 
ATOM      8  C   UNL     1      48.711   5.794  17.136  0.00  0.00    +0.000 A 
ATOM      9  N   UNL     1      49.170   5.955  18.409  0.00  0.00    +0.000 NA
ATOM     10  C   UNL     1      48.693   5.106  19.257  0.00  0.00    +0.000 A 
ATOM     11  N   UNL     1      47.808   4.105  18.950  0.00  0.00    +0.000 N 
ATOM     12  C   UNL     1      47.367   3.867  17.671  0.00  0.00    +0.000 A 
ATOM     13  O   UNL     1      46.660   2.898  17.418  0.00  0.00    +0.000 OA
ATOM     14  C   UNL     1      47.841   4.820  16.685  0.00  0.00    +0.000 A 
ATOM     15  H   UNL     1      47.495   3.454  19.655  0.00  0.00    +0.000 HD
ENDBRANCH   2   5
BRANCH   3  16
ATOM     16  C   UNL     1      44.409   4.068  13.370  0.00  0.00    +0.000 C 
BRANCH  16  17
ATOM     17  C   UNL     1      44.682   4.294  11.904  0.00  0.00    +0.000 A 
ATOM     18  C   UNL     1      45.262   5.487  11.480  0.00  0.00    +0.000 A 
ATOM     19  C   UNL     1      45.550   5.666  10.126  0.00  0.00    +0.000 A 
ATOM     20  C   UNL     1      45.257   4.651   9.224  0.00  0.00    +0.000 A 
ATOM     21  C   UNL     1      44.679   3.493   9.735  0.00  0.00    +0.000 A 
ATOM     22  N   UNL     1      44.389   3.286  11.044  0.00  0.00    +0.000 NA
BRANCH  20  23
ATOM     23  O   UNL     1      45.478   4.672   7.879  0.00  0.00    +0.000 OA
BRANCH  23  24
ATOM     24  C   UNL     1      46.736   4.171   7.422  0.00  0.00    +0.000 C 
BRANCH  24  25
ATOM     25  C   UNL     1      46.473   2.951   6.532  0.00  0.00    +0.000 C 
ATOM     26  C   UNL     1      46.825   1.635   7.219  0.00  0.00    +0.000 C 
ATOM     27  C   UNL     1      48.279   1.432   6.851  0.00  0.00    +0.000 C 
ATOM     28  N   UNL     1      48.373   1.898   5.464  0.00  0.00    +0.000 NA
ATOM     29  C   UNL     1      47.368   2.960   5.294  0.00  0.00    +0.000 C 
ATOM     30  H   UNL     1      48.127   1.122   4.846  0.00  0.00    +0.000 HD
ENDBRANCH  24  25
ENDBRANCH  23  24
ENDBRANCH  20  23
ENDBRANCH  16  17
ENDBRANCH   3  16
TORSDOF 6
ENDMDL
MODEL 2
REMARK VINA RESULT:    -7.702      1.917      2.958
REMARK INTER + INTRA:         -11.155
REMARK INTER:                 -10.076
REMARK INTRA:                  -1.079
REMARK UNBOUND:                -0.751
REMARK  Name = 
REMARK  6 active torsions:
REMARK  status: ('A' for Active; 'I' for Inactive)
REMARK    1  A    between atoms: C_2  and  C_18
REMARK    2  A    between atoms: N_3  and  C_4
REMARK    3  A    between atoms: C_4  and  C_5
REMARK    4  A    between atoms: C_8  and  O_9
REMARK    5  A    between atoms: O_9  and  C_10
REMARK    6  A    between atoms: C_10  and  C_11
REMARK                            x       y       z     vdW  Elec       q    Type
REMARK                         _______ _______ _______ _____ _____    ______ ____
ROOT
ATOM      1  O   UNL     1      47.215   3.360  14.568  0.00  0.00    +0.000 OA
ATOM      2  C   UNL     1      47.052   4.576  14.612  0.00  0.00    +0.000 C 
ATOM      3  N   UNL     1      45.907   5.181  14.174  0.00  0.00    +0.000 N 
ATOM      4  H   UNL     1      45.809   6.188  14.212  0.00  0.00    +0.000 HD
ENDROOT
BRANCH   2   5
ATOM      5  C   UNL     1      48.071   5.466  15.174  0.00  0.00    +0.000 A 
ATOM      6  C   UNL     1      48.450   5.347  16.503  0.00  0.00    +0.000 A 
ATOM      7  S   UNL     1      49.664   6.456  16.964  0.00  0.00    +0.000 S 
ATOM      8  C   UNL     1      49.745   7.105  15.393  0.00  0.00    +0.000 A 
ATOM      9  N   UNL     1      50.630   8.094  15.087  0.00  0.00    +0.000 NA
ATOM     10  C   UNL     1      50.612   8.461  13.849  0.00  0.00    +0.000 A 
ATOM     11  N   UNL     1      49.784   7.938  12.891  0.00  0.00    +0.000 N 
ATOM     12  C   UNL     1      48.834   6.984  13.165  0.00  0.00    +0.000 A 
ATOM     13  O   UNL     1      48.042   6.617  12.306  0.00  0.00    +0.000 OA
ATOM     14  C   UNL     1      48.841   6.507  14.536  0.00  0.00    +0.000 A 
ATOM     15  H   UNL     1      49.798   8.289  11.945  0.00  0.00    +0.000 HD
ENDBRANCH   2   5
BRANCH   3  16
ATOM     16  C   UNL     1      44.820   4.456  13.560  0.00  0.00    +0.000 C 
BRANCH  16  17
ATOM     17  C   UNL     1      44.956   4.400  12.058  0.00  0.00    +0.000 A 
ATOM     18  C   UNL     1      44.738   3.200  11.385  0.00  0.00    +0.000 A 
ATOM     19  C   UNL     1      44.825   3.171   9.992  0.00  0.00    +0.000 A 
ATOM     20  C   UNL     1      45.121   4.338   9.300  0.00  0.00    +0.000 A 
ATOM     21  C   UNL     1      45.322   5.491  10.053  0.00  0.00    +0.000 A 
ATOM     22  N   UNL     1      45.243   5.554  11.406  0.00  0.00    +0.000 NA
BRANCH  20  23
ATOM     23  O   UNL     1      45.237   4.473   7.949  0.00  0.00    +0.000 OA
BRANCH  23  24
ATOM     24  C   UNL     1      46.505   4.153   7.373  0.00  0.00    +0.000 C 
BRANCH  24  25
ATOM     25  C   UNL     1      46.346   2.879   6.536  0.00  0.00    +0.000 C 
ATOM     26  C   UNL     1      46.817   1.629   7.271  0.00  0.00    +0.000 C 
ATOM     27  C   UNL     1      48.281   1.539   6.897  0.00  0.00    +0.000 C 
ATOM     28  N   UNL     1      48.325   1.954   5.492  0.00  0.00    +0.000 NA
ATOM     29  C   UNL     1      47.229   2.916   5.289  0.00  0.00    +0.000 C 
ATOM     30  H   UNL     1      48.144   1.135   4.909  0.00  0.00    +0.000 HD
ENDBRANCH  24  25
ENDBRANCH  23  24
ENDBRANCH  20  23
ENDBRANCH  16  17
ENDBRANCH   3  16
TORSDOF 6
ENDMDL
MODEL 3
REMARK VINA RESULT:    -7.618      1.657      2.308
REMARK INTER + INTRA:         -11.042
REMARK INTER:                 -10.505
REMARK INTRA:                  -0.537
REMARK UNBOUND:                -0.751
REMARK  Name = 
REMARK  6 active torsions:
REMARK  status: ('A' for Active; 'I' for Inactive)
REMARK    1  A    between atoms: C_2  and  C_18
REMARK    2  A    between atoms: N_3  and  C_4
REMARK    3  A    between atoms: C_4  and  C_5
REMARK    4  A    between atoms: C_8  and  O_9
REMARK    5  A    between atoms: O_9  and  C_10
REMARK    6  A    between atoms: C_10  and  C_11
REMARK                            x       y       z     vdW  Elec       q    Type
REMARK                         _______ _______ _______ _____ _____    ______ ____
ROOT
ATOM      1  O   UNL     1      48.914   6.869  13.233  0.00  0.00    +0.000 OA
ATOM      2  C   UNL     1      48.117   6.653  14.142  0.00  0.00    +0.000 C 
ATOM      3  N   UNL     1      46.763   6.716  13.963  0.00  0.00    +0.000 N 
ATOM      4  H   UNL     1      46.132   6.544  14.736  0.00  0.00    +0.000 HD
ENDROOT
BRANCH   2   5
ATOM      5  C   UNL     1      48.568   6.276  15.484  0.00  0.00    +0.000 A 
ATOM      6  C   UNL     1      49.383   7.128  16.214  0.00  0.00    +0.000 A 
ATOM      7  S   UNL     1      49.783   6.524  17.760  0.00  0.00    +0.000 S 
ATOM      8  C   UNL     1      48.851   5.123  17.514  0.00  0.00    +0.000 A 
ATOM      9  N   UNL     1      48.734   4.178  18.489  0.00  0.00    +0.000 NA
ATOM     10  C   UNL     1      47.962   3.189  18.182  0.00  0.00    +0.000 A 
ATOM     11  N   UNL     1      47.304   3.052  16.987  0.00  0.00    +0.000 N 
ATOM     12  C   UNL     1      47.440   3.946  15.954  0.00  0.00    +0.000 A 
ATOM     13  O   UNL     1      46.921   3.735  14.864  0.00  0.00    +0.000 OA
ATOM     14  C   UNL     1      48.265   5.099  16.263  0.00  0.00    +0.000 A 
ATOM     15  H   UNL     1      46.738   2.238  16.797  0.00  0.00    +0.000 HD
ENDBRANCH   2   5
BRANCH   3  16
ATOM     16  C   UNL     1      46.151   7.107  12.715  0.00  0.00    +0.000 C 
BRANCH  16  17
ATOM     17  C   UNL     1      45.683   5.915  11.918  0.00  0.00    +0.000 A 
ATOM     18  C   UNL     1      45.603   5.994  10.530  0.00  0.00    +0.000 A 
ATOM     19  C   UNL     1      45.210   4.871   9.801  0.00  0.00    +0.000 A 
ATOM     20  C   UNL     1      44.908   3.692  10.471  0.00  0.00    +0.000 A 
ATOM     21  C   UNL     1      45.015   3.703  11.858  0.00  0.00    +0.000 A 
ATOM     22  N   UNL     1      45.397   4.775  12.595  0.00  0.00    +0.000 NA
BRANCH  20  23
ATOM     23  O   UNL     1      44.514   2.516   9.905  0.00  0.00    +0.000 OA
BRANCH  23  24
ATOM     24  C   UNL     1      44.784   2.344   8.512  0.00  0.00    +0.000 C 
BRANCH  24  25
ATOM     25  C   UNL     1      46.301   2.220   8.328  0.00  0.00    +0.000 C 
ATOM     26  C   UNL     1      46.849   3.195   7.291  0.00  0.00    +0.000 C 
ATOM     27  C   UNL     1      46.756   2.413   5.999  0.00  0.00    +0.000 C 
ATOM     28  N   UNL     1      47.112   1.042   6.375  0.00  0.00    +0.000 NA
ATOM     29  C   UNL     1      46.685   0.851   7.771  0.00  0.00    +0.000 C 
ATOM     30  H   UNL     1      48.128   0.951   6.336  0.00  0.00    +0.000 HD
ENDBRANCH  24  25
ENDBRANCH  23  24
ENDBRANCH  20  23
ENDBRANCH  16  17
ENDBRANCH   3  16
TORSDOF 6
ENDMDL
MODEL 4
REMARK VINA RESULT:    -7.458      1.710      2.286
REMARK INTER + INTRA:         -10.825
REMARK INTER:                 -10.100
REMARK INTRA:                  -0.725
REMARK UNBOUND:                -0.751
REMARK  Name = 
REMARK  6 active torsions:
REMARK  status: ('A' for Active; 'I' for Inactive)
REMARK    1  A    between atoms: C_2  and  C_18
REMARK    2  A    between atoms: N_3  and  C_4
REMARK    3  A    between atoms: C_4  and  C_5
REMARK    4  A    between atoms: C_8  and  O_9
REMARK    5  A    between atoms: O_9  and  C_10
REMARK    6  A    between atoms: C_10  and  C_11
REMARK                            x       y       z     vdW  Elec       q    Type
REMARK                         _______ _______ _______ _____ _____    ______ ____
ROOT
ATOM      1  O   UNL     1      47.276   4.271  13.824  0.00  0.00    +0.000 OA
ATOM      2  C   UNL     1      47.167   5.490  13.718  0.00  0.00    +0.000 C 
ATOM      3  N   UNL     1      45.972   6.102  13.461  0.00  0.00    +0.000 N 
ATOM      4  H   UNL     1      45.919   7.109  13.366  0.00  0.00    +0.000 HD
ENDROOT
BRANCH   2   5
ATOM      5  C   UNL     1      48.317   6.380  13.894  0.00  0.00    +0.000 A 
ATOM      6  C   UNL     1      48.824   7.092  12.817  0.00  0.00    +0.000 A 
ATOM      7  S   UNL     1      50.148   8.089  13.226  0.00  0.00    +0.000 S 
ATOM      8  C   UNL     1      50.062   7.626  14.860  0.00  0.00    +0.000 A 
ATOM      9  N   UNL     1      50.913   8.154  15.784  0.00  0.00    +0.000 NA
ATOM     10  C   UNL     1      50.707   7.745  16.992  0.00  0.00    +0.000 A 
ATOM     11  N   UNL     1      49.736   6.851  17.361  0.00  0.00    +0.000 N 
ATOM     12  C   UNL     1      48.896   6.248  16.457  0.00  0.00    +0.000 A 
ATOM     13  O   UNL     1      48.111   5.375  16.809  0.00  0.00    +0.000 OA
ATOM     14  C   UNL     1      49.059   6.704  15.089  0.00  0.00    +0.000 A 
ATOM     15  H   UNL     1      49.645   6.549  18.319  0.00  0.00    +0.000 HD
ENDBRANCH   2   5
BRANCH   3  16
ATOM     16  C   UNL     1      44.749   5.372  13.225  0.00  0.00    +0.000 C 
BRANCH  16  17
ATOM     17  C   UNL     1      44.707   4.773  11.841  0.00  0.00    +0.000 A 
ATOM     18  C   UNL     1      45.226   5.481  10.760  0.00  0.00    +0.000 A 
ATOM     19  C   UNL     1      45.221   4.899   9.492  0.00  0.00    +0.000 A 
ATOM     20  C   UNL     1      44.703   3.620   9.329  0.00  0.00    +0.000 A 
ATOM     21  C   UNL     1      44.207   2.985  10.463  0.00  0.00    +0.000 A 
ATOM     22  N   UNL     1      44.199   3.522  11.709  0.00  0.00    +0.000 NA
BRANCH  20  23
ATOM     23  O   UNL     1      44.630   2.917   8.164  0.00  0.00    +0.000 OA
BRANCH  23  24
ATOM     24  C   UNL     1      45.638   1.930   7.938  0.00  0.00    +0.000 C 
BRANCH  24  25
ATOM     25  C   UNL     1      46.936   2.648   7.552  0.00  0.00    +0.000 C 
ATOM     26  C   UNL     1      46.764   3.569   6.348  0.00  0.00    +0.000 C 
ATOM     27  C   UNL     1      47.066   2.662   5.175  0.00  0.00    +0.000 C 
ATOM     28  N   UNL     1      48.167   1.815   5.641  0.00  0.00    +0.000 NA
ATOM     29  C   UNL     1      48.007   1.658   7.097  0.00  0.00    +0.000 C 
ATOM     30  H   UNL     1      49.047   2.304   5.466  0.00  0.00    +0.000 HD
ENDBRANCH  24  25
ENDBRANCH  23  24
ENDBRANCH  20  23
ENDBRANCH  16  17
ENDBRANCH   3  16
TORSDOF 6
ENDMDL
MODEL 5
REMARK VINA RESULT:    -7.225      3.468      8.509
REMARK INTER + INTRA:         -10.510
REMARK INTER:                  -9.272
REMARK INTRA:                  -1.237
REMARK UNBOUND:                -0.751
REMARK  Name = 
REMARK  6 active torsions:
REMARK  status: ('A' for Active; 'I' for Inactive)
REMARK    1  A    between atoms: C_2  and  C_18
REMARK    2  A    between atoms: N_3  and  C_4
REMARK    3  A    between atoms: C_4  and  C_5
REMARK    4  A    between atoms: C_8  and  O_9
REMARK    5  A    between atoms: O_9  and  C_10
REMARK    6  A    between atoms: C_10  and  C_11
REMARK                            x       y       z     vdW  Elec       q    Type
REMARK                         _______ _______ _______ _____ _____    ______ ____
ROOT
ATOM      1  O   UNL     1      45.661   7.939  11.730  0.00  0.00    +0.000 OA
ATOM      2  C   UNL     1      46.297   6.954  11.362  0.00  0.00    +0.000 C 
ATOM      3  N   UNL     1      47.651   6.853  11.517  0.00  0.00    +0.000 N 
ATOM      4  H   UNL     1      48.148   6.033  11.191  0.00  0.00    +0.000 HD
ENDROOT
BRANCH   2   5
ATOM      5  C   UNL     1      45.634   5.797  10.757  0.00  0.00    +0.000 A 
ATOM      6  C   UNL     1      45.789   5.527   9.405  0.00  0.00    +0.000 A 
ATOM      7  S   UNL     1      44.959   4.127   8.893  0.00  0.00    +0.000 S 
ATOM      8  C   UNL     1      44.396   3.818  10.468  0.00  0.00    +0.000 A 
ATOM      9  N   UNL     1      43.635   2.720  10.739  0.00  0.00    +0.000 NA
ATOM     10  C   UNL     1      43.314   2.588  11.982  0.00  0.00    +0.000 A 
ATOM     11  N   UNL     1      43.675   3.457  12.980  0.00  0.00    +0.000 N 
ATOM     12  C   UNL     1      44.387   4.608  12.745  0.00  0.00    +0.000 A 
ATOM     13  O   UNL     1      44.599   5.413  13.644  0.00  0.00    +0.000 OA
ATOM     14  C   UNL     1      44.809   4.782  11.367  0.00  0.00    +0.000 A 
ATOM     15  H   UNL     1      43.366   3.314  13.930  0.00  0.00    +0.000 HD
ENDBRANCH   2   5
BRANCH   3  16
ATOM     16  C   UNL     1      48.463   7.916  12.062  0.00  0.00    +0.000 C 
BRANCH  16  17
ATOM     17  C   UNL     1      48.618   7.798  13.557  0.00  0.00    +0.000 A 
ATOM     18  C   UNL     1      48.314   8.882  14.376  0.00  0.00    +0.000 A 
ATOM     19  C   UNL     1      48.421   8.747  15.761  0.00  0.00    +0.000 A 
ATOM     20  C   UNL     1      48.824   7.532  16.300  0.00  0.00    +0.000 A 
ATOM     21  C   UNL     1      49.106   6.502  15.408  0.00  0.00    +0.000 A 
ATOM     22  N   UNL     1      49.010   6.600  14.059  0.00  0.00    +0.000 NA
BRANCH  20  23
ATOM     23  O   UNL     1      48.973   7.241  17.624  0.00  0.00    +0.000 OA
BRANCH  23  24
ATOM     24  C   UNL     1      49.756   6.091  17.950  0.00  0.00    +0.000 C 
BRANCH  24  25
ATOM     25  C   UNL     1      48.920   5.179  18.855  0.00  0.00    +0.000 C 
ATOM     26  C   UNL     1      48.511   3.882  18.165  0.00  0.00    +0.000 C 
ATOM     27  C   UNL     1      47.190   4.237  17.517  0.00  0.00    +0.000 C 
ATOM     28  N   UNL     1      46.528   5.108  18.492  0.00  0.00    +0.000 NA
ATOM     29  C   UNL     1      47.586   5.827  19.220  0.00  0.00    +0.000 C 
ATOM     30  H   UNL     1      46.022   4.521  19.158  0.00  0.00    +0.000 HD
ENDBRANCH  24  25
ENDBRANCH  23  24
ENDBRANCH  20  23
ENDBRANCH  16  17
ENDBRANCH   3  16
TORSDOF 6
ENDMDL
MODEL 6
REMARK VINA RESULT:    -7.072      2.974      9.023
REMARK INTER + INTRA:         -10.304
REMARK INTER:                  -9.178
REMARK INTRA:                  -1.125
REMARK UNBOUND:                -0.751
REMARK  Name = 
REMARK  6 active torsions:
REMARK  status: ('A' for Active; 'I' for Inactive)
REMARK    1  A    between atoms: C_2  and  C_18
REMARK    2  A    between atoms: N_3  and  C_4
REMARK    3  A    between atoms: C_4  and  C_5
REMARK    4  A    between atoms: C_8  and  O_9
REMARK    5  A    between atoms: O_9  and  C_10
REMARK    6  A    between atoms: C_10  and  C_11
REMARK                            x       y       z     vdW  Elec       q    Type
REMARK                         _______ _______ _______ _____ _____    ______ ____
ROOT
ATOM      1  O   UNL     1      44.940   7.266  12.512  0.00  0.00    +0.000 OA
ATOM      2  C   UNL     1      45.614   6.336  12.077  0.00  0.00    +0.000 C 
ATOM      3  N   UNL     1      46.974   6.405  11.962  0.00  0.00    +0.000 N 
ATOM      4  H   UNL     1      47.500   5.625  11.587  0.00  0.00    +0.000 HD
ENDROOT
BRANCH   2   5
ATOM      5  C   UNL     1      45.002   5.065  11.681  0.00  0.00    +0.000 A 
ATOM      6  C   UNL     1      44.246   4.338  12.588  0.00  0.00    +0.000 A 
ATOM      7  S   UNL     1      43.599   2.900  11.933  0.00  0.00    +0.000 S 
ATOM      8  C   UNL     1      44.280   3.224  10.408  0.00  0.00    +0.000 A 
ATOM      9  N   UNL     1      44.075   2.383   9.356  0.00  0.00    +0.000 NA
ATOM     10  C   UNL     1      44.615   2.773   8.250  0.00  0.00    +0.000 A 
ATOM     11  N   UNL     1      45.349   3.921   8.100  0.00  0.00    +0.000 N 
ATOM     12  C   UNL     1      45.633   4.767   9.144  0.00  0.00    +0.000 A 
ATOM     13  O   UNL     1      46.379   5.727   8.994  0.00  0.00    +0.000 OA
ATOM     14  C   UNL     1      45.014   4.395  10.403  0.00  0.00    +0.000 A 
ATOM     15  H   UNL     1      45.770   4.156   7.213  0.00  0.00    +0.000 HD
ENDBRANCH   2   5
BRANCH   3  16
ATOM     16  C   UNL     1      47.731   7.595  12.274  0.00  0.00    +0.000 C 
BRANCH  16  17
ATOM     17  C   UNL     1      48.136   7.641  13.726  0.00  0.00    +0.000 A 
ATOM     18  C   UNL     1      47.924   8.800  14.470  0.00  0.00    +0.000 A 
ATOM     19  C   UNL     1      48.263   8.816  15.824  0.00  0.00    +0.000 A 
ATOM     20  C   UNL     1      48.800   7.677  16.409  0.00  0.00    +0.000 A 
ATOM     21  C   UNL     1      48.975   6.565  15.591  0.00  0.00    +0.000 A 
ATOM     22  N   UNL     1      48.655   6.515  14.274  0.00  0.00    +0.000 NA
BRANCH  20  23
ATOM     23  O   UNL     1      49.176   7.534  17.711  0.00  0.00    +0.000 OA
BRANCH  23  24
ATOM     24  C   UNL     1      49.838   6.317  18.064  0.00  0.00    +0.000 C 
BRANCH  24  25
ATOM     25  C   UNL     1      48.960   5.566  19.071  0.00  0.00    +0.000 C 
ATOM     26  C   UNL     1      48.552   4.182  18.577  0.00  0.00    +0.000 C 
ATOM     27  C   UNL     1      47.257   4.447  17.839  0.00  0.00    +0.000 C 
ATOM     28  N   UNL     1      46.579   5.466  18.645  0.00  0.00    +0.000 NA
ATOM     29  C   UNL     1      47.626   6.278  19.288  0.00  0.00    +0.000 C 
ATOM     30  H   UNL     1      46.045   4.995  19.377  0.00  0.00    +0.000 HD
ENDBRANCH  24  25
ENDBRANCH  23  24
ENDBRANCH  20  23
ENDBRANCH  16  17
ENDBRANCH   3  16
TORSDOF 6
ENDMDL
MODEL 7
REMARK VINA RESULT:    -7.026      4.071      9.040
REMARK INTER + INTRA:         -10.242
REMARK INTER:                  -9.166
REMARK INTRA:                  -1.077
REMARK UNBOUND:                -0.751
REMARK  Name = 
REMARK  6 active torsions:
REMARK  status: ('A' for Active; 'I' for Inactive)
REMARK    1  A    between atoms: C_2  and  C_18
REMARK    2  A    between atoms: N_3  and  C_4
REMARK    3  A    between atoms: C_4  and  C_5
REMARK    4  A    between atoms: C_8  and  O_9
REMARK    5  A    between atoms: O_9  and  C_10
REMARK    6  A    between atoms: C_10  and  C_11
REMARK                            x       y       z     vdW  Elec       q    Type
REMARK                         _______ _______ _______ _____ _____    ______ ____
ROOT
ATOM      1  O   UNL     1      47.414   3.106  14.164  0.00  0.00    +0.000 OA
ATOM      2  C   UNL     1      46.960   4.156  14.611  0.00  0.00    +0.000 C 
ATOM      3  N   UNL     1      46.819   4.385  15.951  0.00  0.00    +0.000 N 
ATOM      4  H   UNL     1      46.429   5.257  16.287  0.00  0.00    +0.000 HD
ENDROOT
BRANCH   2   5
ATOM      5  C   UNL     1      46.566   5.258  13.728  0.00  0.00    +0.000 A 
ATOM      6  C   UNL     1      47.433   6.315  13.497  0.00  0.00    +0.000 A 
ATOM      7  S   UNL     1      46.804   7.486  12.426  0.00  0.00    +0.000 S 
ATOM      8  C   UNL     1      45.369   6.598  12.211  0.00  0.00    +0.000 A 
ATOM      9  N   UNL     1      44.392   7.036  11.368  0.00  0.00    +0.000 NA
ATOM     10  C   UNL     1      43.379   6.242  11.269  0.00  0.00    +0.000 A 
ATOM     11  N   UNL     1      43.246   5.056  11.942  0.00  0.00    +0.000 N 
ATOM     12  C   UNL     1      44.174   4.604  12.848  0.00  0.00    +0.000 A 
ATOM     13  O   UNL     1      43.971   3.592  13.508  0.00  0.00    +0.000 OA
ATOM     14  C   UNL     1      45.355   5.440  12.965  0.00  0.00    +0.000 A 
ATOM     15  H   UNL     1      42.413   4.494  11.844  0.00  0.00    +0.000 HD
ENDBRANCH   2   5
BRANCH   3  16
ATOM     16  C   UNL     1      47.125   3.394  16.955  0.00  0.00    +0.000 C 
BRANCH  16  17
ATOM     17  C   UNL     1      48.559   3.480  17.414  0.00  0.00    +0.000 A 
ATOM     18  C   UNL     1      49.470   2.497  17.036  0.00  0.00    +0.000 A 
ATOM     19  C   UNL     1      50.804   2.610  17.431  0.00  0.00    +0.000 A 
ATOM     20  C   UNL     1      51.202   3.703  18.190  0.00  0.00    +0.000 A 
ATOM     21  C   UNL     1      50.226   4.637  18.522  0.00  0.00    +0.000 A 
ATOM     22  N   UNL     1      48.923   4.558  18.152  0.00  0.00    +0.000 NA
BRANCH  20  23
ATOM     23  O   UNL     1      52.460   3.957  18.649  0.00  0.00    +0.000 OA
BRANCH  23  24
ATOM     24  C   UNL     1      53.488   4.113  17.668  0.00  0.00    +0.000 C 
BRANCH  24  25
ATOM     25  C   UNL     1      54.683   3.247  18.080  0.00  0.00    +0.000 C 
ATOM     26  C   UNL     1      54.864   2.028  17.182  0.00  0.00    +0.000 C 
ATOM     27  C   UNL     1      54.024   0.969  17.863  0.00  0.00    +0.000 C 
ATOM     28  N   UNL     1      54.235   1.202  19.295  0.00  0.00    +0.000 NA
ATOM     29  C   UNL     1      54.482   2.643  19.469  0.00  0.00    +0.000 C 
ATOM     30  H   UNL     1      55.074   0.696  19.583  0.00  0.00    +0.000 HD
ENDBRANCH  24  25
ENDBRANCH  23  24
ENDBRANCH  20  23
ENDBRANCH  16  17
ENDBRANCH   3  16
TORSDOF 6
ENDMDL
MODEL 8
REMARK VINA RESULT:    -6.824      3.300      5.230
REMARK INTER + INTRA:          -9.969
REMARK INTER:                  -8.888
REMARK INTRA:                  -1.082
REMARK UNBOUND:                -0.751
REMARK  Name = 
REMARK  6 active torsions:
REMARK  status: ('A' for Active; 'I' for Inactive)
REMARK    1  A    between atoms: C_2  and  C_18
REMARK    2  A    between atoms: N_3  and  C_4
REMARK    3  A    between atoms: C_4  and  C_5
REMARK    4  A    between atoms: C_8  and  O_9
REMARK    5  A    between atoms: O_9  and  C_10
REMARK    6  A    between atoms: C_10  and  C_11
REMARK                            x       y       z     vdW  Elec       q    Type
REMARK                         _______ _______ _______ _____ _____    ______ ____
ROOT
ATOM      1  O   UNL     1      50.396   6.680  18.574  0.00  0.00    +0.000 OA
ATOM      2  C   UNL     1      50.739   5.972  17.631  0.00  0.00    +0.000 C 
ATOM      3  N   UNL     1      50.208   6.105  16.379  0.00  0.00    +0.000 N 
ATOM      4  H   UNL     1      50.504   5.497  15.625  0.00  0.00    +0.000 HD
ENDROOT
BRANCH   2   5
ATOM      5  C   UNL     1      51.778   4.949  17.779  0.00  0.00    +0.000 A 
ATOM      6  C   UNL     1      53.074   5.310  18.114  0.00  0.00    +0.000 A 
ATOM      7  S   UNL     1      54.132   3.977  18.263  0.00  0.00    +0.000 S 
ATOM      8  C   UNL     1      52.881   2.876  17.919  0.00  0.00    +0.000 A 
ATOM      9  N   UNL     1      53.109   1.533  17.920  0.00  0.00    +0.000 NA
ATOM     10  C   UNL     1      52.062   0.815  17.685  0.00  0.00    +0.000 A 
ATOM     11  N   UNL     1      50.809   1.315  17.440  0.00  0.00    +0.000 N 
ATOM     12  C   UNL     1      50.545   2.661  17.369  0.00  0.00    +0.000 A 
ATOM     13  O   UNL     1      49.436   3.070  17.043  0.00  0.00    +0.000 OA
ATOM     14  C   UNL     1      51.681   3.513  17.667  0.00  0.00    +0.000 A 
ATOM     15  H   UNL     1      50.036   0.701  17.234  0.00  0.00    +0.000 HD
ENDBRANCH   2   5
BRANCH   3  16
ATOM     16  C   UNL     1      49.150   7.038  16.068  0.00  0.00    +0.000 C 
BRANCH  16  17
ATOM     17  C   UNL     1      48.261   6.534  14.959  0.00  0.00    +0.000 A 
ATOM     18  C   UNL     1      48.044   7.320  13.830  0.00  0.00    +0.000 A 
ATOM     19  C   UNL     1      47.254   6.825  12.791  0.00  0.00    +0.000 A 
ATOM     20  C   UNL     1      46.701   5.555  12.898  0.00  0.00    +0.000 A 
ATOM     21  C   UNL     1      46.970   4.840  14.061  0.00  0.00    +0.000 A 
ATOM     22  N   UNL     1      47.735   5.290  15.086  0.00  0.00    +0.000 NA
BRANCH  20  23
ATOM     23  O   UNL     1      45.914   4.932  11.975  0.00  0.00    +0.000 OA
BRANCH  23  24
ATOM     24  C   UNL     1      45.361   3.667  12.344  0.00  0.00    +0.000 C 
BRANCH  24  25
ATOM     25  C   UNL     1      44.026   3.494  11.611  0.00  0.00    +0.000 C 
ATOM     26  C   UNL     1      44.142   2.600  10.381  0.00  0.00    +0.000 C 
ATOM     27  C   UNL     1      44.476   3.578   9.275  0.00  0.00    +0.000 C 
ATOM     28  N   UNL     1      43.673   4.765   9.582  0.00  0.00    +0.000 NA
ATOM     29  C   UNL     1      43.523   4.820  11.046  0.00  0.00    +0.000 C 
ATOM     30  H   UNL     1      42.747   4.643   9.169  0.00  0.00    +0.000 HD
ENDBRANCH  24  25
ENDBRANCH  23  24
ENDBRANCH  20  23
ENDBRANCH  16  17
ENDBRANCH   3  16
TORSDOF 6
ENDMDL
MODEL 9
REMARK VINA RESULT:    -6.456      4.100      8.290
REMARK INTER + INTRA:          -9.472
REMARK INTER:                  -8.731
REMARK INTRA:                  -0.741
REMARK UNBOUND:                -0.751
REMARK  Name = 
REMARK  6 active torsions:
REMARK  status: ('A' for Active; 'I' for Inactive)
REMARK    1  A    between atoms: C_2  and  C_18
REMARK    2  A    between atoms: N_3  and  C_4
REMARK    3  A    between atoms: C_4  and  C_5
REMARK    4  A    between atoms: C_8  and  O_9
REMARK    5  A    between atoms: O_9  and  C_10
REMARK    6  A    between atoms: C_10  and  C_11
REMARK                            x       y       z     vdW  Elec       q    Type
REMARK                         _______ _______ _______ _____ _____    ______ ____
ROOT
ATOM      1  O   UNL     1      44.032   3.901   9.091  0.00  0.00    +0.000 OA
ATOM      2  C   UNL     1      44.645   2.935   9.536  0.00  0.00    +0.000 C 
ATOM      3  N   UNL     1      44.569   2.556  10.847  0.00  0.00    +0.000 N 
ATOM      4  H   UNL     1      45.097   1.761  11.186  0.00  0.00    +0.000 HD
ENDROOT
BRANCH   2   5
ATOM      5  C   UNL     1      45.480   2.094   8.675  0.00  0.00    +0.000 A 
ATOM      6  C   UNL     1      45.388   0.712   8.741  0.00  0.00    +0.000 A 
ATOM      7  S   UNL     1      46.423  -0.091   7.646  0.00  0.00    +0.000 S 
ATOM      8  C   UNL     1      47.000   1.384   7.025  0.00  0.00    +0.000 A 
ATOM      9  N   UNL     1      47.909   1.411   6.011  0.00  0.00    +0.000 NA
ATOM     10  C   UNL     1      48.225   2.597   5.610  0.00  0.00    +0.000 A 
ATOM     11  N   UNL     1      47.725   3.760   6.137  0.00  0.00    +0.000 N 
ATOM     12  C   UNL     1      46.855   3.784   7.200  0.00  0.00    +0.000 A 
ATOM     13  O   UNL     1      46.513   4.843   7.711  0.00  0.00    +0.000 OA
ATOM     14  C   UNL     1      46.435   2.473   7.661  0.00  0.00    +0.000 A 
ATOM     15  H   UNL     1      48.036   4.659   5.799  0.00  0.00    +0.000 HD
ENDBRANCH   2   5
BRANCH   3  16
ATOM     16  C   UNL     1      43.820   3.294  11.837  0.00  0.00    +0.000 C 
BRANCH  16  17
ATOM     17  C   UNL     1      44.557   4.527  12.298  0.00  0.00    +0.000 A 
ATOM     18  C   UNL     1      45.703   4.402  13.079  0.00  0.00    +0.000 A 
ATOM     19  C   UNL     1      46.400   5.549  13.462  0.00  0.00    +0.000 A 
ATOM     20  C   UNL     1      45.943   6.796  13.055  0.00  0.00    +0.000 A 
ATOM     21  C   UNL     1      44.791   6.827  12.275  0.00  0.00    +0.000 A 
ATOM     22  N   UNL     1      44.092   5.733  11.884  0.00  0.00    +0.000 NA
BRANCH  20  23
ATOM     23  O   UNL     1      46.510   8.001  13.342  0.00  0.00    +0.000 OA
BRANCH  23  24
ATOM     24  C   UNL     1      47.937   8.062  13.340  0.00  0.00    +0.000 C 
BRANCH  24  25
ATOM     25  C   UNL     1      48.401   8.461  11.935  0.00  0.00    +0.000 C 
ATOM     26  C   UNL     1      49.649   7.706  11.490  0.00  0.00    +0.000 C 
ATOM     27  C   UNL     1      50.778   8.591  11.975  0.00  0.00    +0.000 C 
ATOM     28  N   UNL     1      50.295   9.956  11.747  0.00  0.00    +0.000 NA
ATOM     29  C   UNL     1      48.830   9.926  11.883  0.00  0.00    +0.000 C 
ATOM     30  H   UNL     1      50.523  10.222  10.788  0.00  0.00    +0.000 HD
ENDBRANCH  24  25
ENDBRANCH  23  24
ENDBRANCH  20  23
ENDBRANCH  16  17
ENDBRANCH   3  16
TORSDOF 6
ENDMDL
