MODEL 1
REMARK VINA RESULT:    -7.378      0.000      0.000
REMARK INTER + INTRA:         -11.221
REMARK INTER:                 -10.397
REMARK INTRA:                  -0.823
REMARK UNBOUND:                -0.823
REMARK  Name = 
REMARK  7 active torsions:
REMARK  status: ('A' for Active; 'I' for Inactive)
REMARK    1  A    between atoms: C_2  and  C_20
REMARK    2  A    between atoms: N_3  and  C_4
REMARK    3  A    between atoms: C_4  and  C_5
REMARK    4  A    between atoms: C_8  and  C_9
REMARK    5  A    between atoms: C_9  and  N_10
REMARK    6  A    between atoms: N_10  and  C_11
REMARK    7  A    between atoms: C_11  and  C_12
REMARK                            x       y       z     vdW  Elec       q    Type
REMARK                         _______ _______ _______ _____ _____    ______ ____
ROOT
ATOM      1  C   UNL     1      46.079   6.996  12.841  0.00  0.00    +0.000 A 
ATOM      2  C   UNL     1      46.070   5.728  13.430  0.00  0.00    +0.000 A 
ATOM      3  C   UNL     1      45.170   4.752  12.997  0.00  0.00    +0.000 A 
ATOM      4  C   UNL     1      44.244   5.024  11.979  0.00  0.00    +0.000 A 
ATOM      5  C   UNL     1      44.282   6.284  11.365  0.00  0.00    +0.000 A 
ATOM      6  C   UNL     1      45.194   7.259  11.789  0.00  0.00    +0.000 A 
ENDROOT
BRANCH   1   7
ATOM      7  C   UNL     1      47.076   8.029  13.300  0.00  0.00    +0.000 C 
BRANCH   7  10
ATOM      8  O   UNL     1      49.520   6.793  13.972  0.00  0.00    +0.000 OA
ATOM      9  C   UNL     1      48.787   7.198  14.870  0.00  0.00    +0.000 C 
ATOM     10  N   UNL     1      47.549   7.734  14.628  0.00  0.00    +0.000 N 
ATOM     11  H   UNL     1      47.071   8.219  15.378  0.00  0.00    +0.000 HD
BRANCH   9  12
ATOM     12  C   UNL     1      49.174   7.083  16.283  0.00  0.00    +0.000 A 
ATOM     13  C   UNL     1      49.774   8.159  16.924  0.00  0.00    +0.000 A 
ATOM     14  S   UNL     1      50.170   7.849  18.553  0.00  0.00    +0.000 S 
ATOM     15  C   UNL     1      49.511   6.281  18.473  0.00  0.00    +0.000 A 
ATOM     16  N   UNL     1      49.499   5.471  19.565  0.00  0.00    +0.000 NA
ATOM     17  C   UNL     1      48.930   4.328  19.376  0.00  0.00    +0.000 A 
ATOM     18  N   UNL     1      48.383   3.915  18.189  0.00  0.00    +0.000 N 
ATOM     19  C   UNL     1      48.448   4.665  17.040  0.00  0.00    +0.000 A 
ATOM     20  O   UNL     1      48.084   4.202  15.963  0.00  0.00    +0.000 OA
ATOM     21  C   UNL     1      49.026   5.985  17.211  0.00  0.00    +0.000 A 
ATOM     22  H   UNL     1      47.983   2.994  18.097  0.00  0.00    +0.000 HD
ENDBRANCH   9  12
ENDBRANCH   7  10
ENDBRANCH   1   7
BRANCH   4  23
ATOM     23  C   UNL     1      43.270   3.968  11.491  0.00  0.00    +0.000 C 
BRANCH  23  24
ATOM     24  N   UNL     1      43.936   2.684  11.274  0.00  0.00    +0.000 NA
ATOM     25  H   UNL     1      43.253   2.013  10.926  0.00  0.00    +0.000 HD
BRANCH  24  26
ATOM     26  C   UNL     1      45.068   2.773  10.349  0.00  0.00    +0.000 C 
BRANCH  26  27
ATOM     27  C   UNL     1      44.584   2.455   8.914  0.00  0.00    +0.000 C 
ATOM     28  C   UNL     1      45.404   1.339   8.242  0.00  0.00    +0.000 C 
ATOM     29  C   UNL     1      46.795   1.827   7.849  0.00  0.00    +0.000 C 
ATOM     30  C   UNL     1      46.712   3.094   7.001  0.00  0.00    +0.000 C 
ATOM     31  N   UNL     1      45.949   4.152   7.667  0.00  0.00    +0.000 NA
ATOM     32  C   UNL     1      44.598   3.703   8.013  0.00  0.00    +0.000 C 
ATOM     33  H   UNL     1      45.882   4.951   7.037  0.00  0.00    +0.000 HD
ENDBRANCH  26  27
ENDBRANCH  24  26
ENDBRANCH  23  24
ENDBRANCH   4  23
TORSDOF 7
ENDMDL
MODEL 2
REMARK VINA RESULT:    -7.197      1.750      2.762
REMARK INTER + INTRA:         -10.965
REMARK INTER:                  -9.764
REMARK INTRA:                  -1.201
REMARK UNBOUND:                -0.823
REMARK  Name = 
REMARK  7 active torsions:
REMARK  status: ('A' for Active; 'I' for Inactive)
REMARK    1  A    between atoms: C_2  and  C_20
REMARK    2  A    between atoms: N_3  and  C_4
REMARK    3  A    between atoms: C_4  and  C_5
REMARK    4  A    between atoms: C_8  and  C_9
REMARK    5  A    between atoms: C_9  and  N_10
REMARK    6  A    between atoms: N_10  and  C_11
REMARK    7  A    between atoms: C_11  and  C_12
REMARK                            x       y       z     vdW  Elec       q    Type
REMARK                         _______ _______ _______ _____ _____    ______ ____
ROOT
ATOM      1  C   UNL     1      48.233   8.068  13.328  0.00  0.00    +0.000 A 
ATOM      2  C   UNL     1      48.117   7.142  12.288  0.00  0.00    +0.000 A 
ATOM      3  C   UNL     1      46.912   6.996  11.599  0.00  0.00    +0.000 A 
ATOM      4  C   UNL     1      45.785   7.757  11.945  0.00  0.00    +0.000 A 
ATOM      5  C   UNL     1      45.916   8.712  12.964  0.00  0.00    +0.000 A 
ATOM      6  C   UNL     1      47.129   8.869  13.645  0.00  0.00    +0.000 A 
ENDROOT
BRANCH   1   7
ATOM      7  C   UNL     1      49.549   8.234  14.042  0.00  0.00    +0.000 C 
BRANCH   7  10
ATOM      8  O   UNL     1      48.806   8.665  16.729  0.00  0.00    +0.000 OA
ATOM      9  C   UNL     1      49.212   7.556  16.390  0.00  0.00    +0.000 C 
ATOM     10  N   UNL     1      49.669   7.291  15.125  0.00  0.00    +0.000 N 
ATOM     11  H   UNL     1      49.812   6.327  14.850  0.00  0.00    +0.000 HD
BRANCH   9  12
ATOM     12  C   UNL     1      49.285   6.444  17.347  0.00  0.00    +0.000 A 
ATOM     13  C   UNL     1      50.007   6.592  18.524  0.00  0.00    +0.000 A 
ATOM     14  S   UNL     1      49.999   5.202  19.510  0.00  0.00    +0.000 S 
ATOM     15  C   UNL     1      48.990   4.368  18.422  0.00  0.00    +0.000 A 
ATOM     16  N   UNL     1      48.568   3.103  18.690  0.00  0.00    +0.000 NA
ATOM     17  C   UNL     1      47.772   2.606  17.802  0.00  0.00    +0.000 A 
ATOM     18  N   UNL     1      47.371   3.256  16.664  0.00  0.00    +0.000 N 
ATOM     19  C   UNL     1      47.840   4.498  16.312  0.00  0.00    +0.000 A 
ATOM     20  O   UNL     1      47.578   4.983  15.215  0.00  0.00    +0.000 OA
ATOM     21  C   UNL     1      48.691   5.127  17.305  0.00  0.00    +0.000 A 
ATOM     22  H   UNL     1      46.775   2.798  15.990  0.00  0.00    +0.000 HD
ENDBRANCH   9  12
ENDBRANCH   7  10
ENDBRANCH   1   7
BRANCH   4  23
ATOM     23  C   UNL     1      44.473   7.617  11.196  0.00  0.00    +0.000 C 
BRANCH  23  24
ATOM     24  N   UNL     1      43.669   6.516  11.724  0.00  0.00    +0.000 NA
ATOM     25  H   UNL     1      42.750   6.873  11.981  0.00  0.00    +0.000 HD
BRANCH  24  26
ATOM     26  C   UNL     1      43.530   5.401  10.785  0.00  0.00    +0.000 C 
BRANCH  26  27
ATOM     27  C   UNL     1      44.887   4.669  10.654  0.00  0.00    +0.000 C 
ATOM     28  C   UNL     1      45.405   4.630   9.204  0.00  0.00    +0.000 C 
ATOM     29  C   UNL     1      44.600   3.654   8.350  0.00  0.00    +0.000 C 
ATOM     30  C   UNL     1      44.548   2.273   8.998  0.00  0.00    +0.000 C 
ATOM     31  N   UNL     1      44.031   2.328  10.367  0.00  0.00    +0.000 NA
ATOM     32  C   UNL     1      44.821   3.233  11.205  0.00  0.00    +0.000 C 
ATOM     33  H   UNL     1      44.066   1.390  10.767  0.00  0.00    +0.000 HD
ENDBRANCH  26  27
ENDBRANCH  24  26
ENDBRANCH  23  24
ENDBRANCH   4  23
TORSDOF 7
ENDMDL
MODEL 3
REMARK VINA RESULT:    -7.172      2.858      8.447
REMARK INTER + INTRA:         -10.931
REMARK INTER:                  -9.354
REMARK INTRA:                  -1.577
REMARK UNBOUND:                -0.823
REMARK  Name = 
REMARK  7 active torsions:
REMARK  status: ('A' for Active; 'I' for Inactive)
REMARK    1  A    between atoms: C_2  and  C_20
REMARK    2  A    between atoms: N_3  and  C_4
REMARK    3  A    between atoms: C_4  and  C_5
REMARK    4  A    between atoms: C_8  and  C_9
REMARK    5  A    between atoms: C_9  and  N_10
REMARK    6  A    between atoms: N_10  and  C_11
REMARK    7  A    between atoms: C_11  and  C_12
REMARK                            x       y       z     vdW  Elec       q    Type
REMARK                         _______ _______ _______ _____ _____    ______ ____
ROOT
ATOM      1  C   UNL     1      48.151   7.885  13.474  0.00  0.00    +0.000 A 
ATOM      2  C   UNL     1      49.150   6.981  13.846  0.00  0.00    +0.000 A 
ATOM      3  C   UNL     1      49.716   7.036  15.120  0.00  0.00    +0.000 A 
ATOM      4  C   UNL     1      49.313   8.007  16.049  0.00  0.00    +0.000 A 
ATOM      5  C   UNL     1      48.284   8.887  15.686  0.00  0.00    +0.000 A 
ATOM      6  C   UNL     1      47.706   8.824  14.413  0.00  0.00    +0.000 A 
ENDROOT
BRANCH   1   7
ATOM      7  C   UNL     1      47.529   7.795  12.105  0.00  0.00    +0.000 C 
BRANCH   7  10
ATOM      8  O   UNL     1      44.735   7.514  11.848  0.00  0.00    +0.000 OA
ATOM      9  C   UNL     1      45.448   6.518  11.754  0.00  0.00    +0.000 C 
ATOM     10  N   UNL     1      46.804   6.560  11.949  0.00  0.00    +0.000 N 
ATOM     11  H   UNL     1      47.361   5.759  11.677  0.00  0.00    +0.000 HD
BRANCH   9  12
ATOM     12  C   UNL     1      44.878   5.193  11.477  0.00  0.00    +0.000 A 
ATOM     13  C   UNL     1      44.119   4.551  12.448  0.00  0.00    +0.000 A 
ATOM     14  S   UNL     1      43.549   3.019  11.967  0.00  0.00    +0.000 S 
ATOM     15  C   UNL     1      44.255   3.178  10.426  0.00  0.00    +0.000 A 
ATOM     16  N   UNL     1      44.113   2.204   9.488  0.00  0.00    +0.000 NA
ATOM     17  C   UNL     1      44.661   2.474   8.350  0.00  0.00    +0.000 A 
ATOM     18  N   UNL     1      45.350   3.624   8.070  0.00  0.00    +0.000 N 
ATOM     19  C   UNL     1      45.591   4.595   9.012  0.00  0.00    +0.000 A 
ATOM     20  O   UNL     1      46.339   5.538   8.769  0.00  0.00    +0.000 OA
ATOM     21  C   UNL     1      44.946   4.369  10.292  0.00  0.00    +0.000 A 
ATOM     22  H   UNL     1      45.787   3.760   7.171  0.00  0.00    +0.000 HD
ENDBRANCH   9  12
ENDBRANCH   7  10
ENDBRANCH   1   7
BRANCH   4  23
ATOM     23  C   UNL     1      49.913   8.068  17.442  0.00  0.00    +0.000 C 
BRANCH  23  24
ATOM     24  N   UNL     1      49.132   7.283  18.397  0.00  0.00    +0.000 NA
ATOM     25  H   UNL     1      48.182   7.182  18.042  0.00  0.00    +0.000 HD
BRANCH  24  26
ATOM     26  C   UNL     1      49.709   5.964  18.666  0.00  0.00    +0.000 C 
BRANCH  26  27
ATOM     27  C   UNL     1      48.578   4.975  19.038  0.00  0.00    +0.000 C 
ATOM     28  C   UNL     1      48.905   3.522  18.646  0.00  0.00    +0.000 C 
ATOM     29  C   UNL     1      48.820   3.319  17.136  0.00  0.00    +0.000 C 
ATOM     30  C   UNL     1      47.473   3.790  16.594  0.00  0.00    +0.000 C 
ATOM     31  N   UNL     1      47.192   5.181  16.957  0.00  0.00    +0.000 NA
ATOM     32  C   UNL     1      47.232   5.377  18.408  0.00  0.00    +0.000 C 
ATOM     33  H   UNL     1      46.262   5.426  16.615  0.00  0.00    +0.000 HD
ENDBRANCH  26  27
ENDBRANCH  24  26
ENDBRANCH  23  24
ENDBRANCH   4  23
TORSDOF 7
ENDMDL
MODEL 4
REMARK VINA RESULT:    -7.167      4.761      9.623
REMARK INTER + INTRA:         -10.923
REMARK INTER:                 -10.016
REMARK INTRA:                  -0.906
REMARK UNBOUND:                -0.823
REMARK  Name = 
REMARK  7 active torsions:
REMARK  status: ('A' for Active; 'I' for Inactive)
REMARK    1  A    between atoms: C_2  and  C_20
REMARK    2  A    between atoms: N_3  and  C_4
REMARK    3  A    between atoms: C_4  and  C_5
REMARK    4  A    between atoms: C_8  and  C_9
REMARK    5  A    between atoms: C_9  and  N_10
REMARK    6  A    between atoms: N_10  and  C_11
REMARK    7  A    between atoms: C_11  and  C_12
REMARK                            x       y       z     vdW  Elec       q    Type
REMARK                         _______ _______ _______ _____ _____    ______ ____
ROOT
ATOM      1  C   UNL     1      48.591   3.406  17.179  0.00  0.00    +0.000 A 
ATOM      2  C   UNL     1      49.269   2.200  16.982  0.00  0.00    +0.000 A 
ATOM      3  C   UNL     1      50.635   2.102  17.254  0.00  0.00    +0.000 A 
ATOM      4  C   UNL     1      51.363   3.212  17.710  0.00  0.00    +0.000 A 
ATOM      5  C   UNL     1      50.671   4.410  17.943  0.00  0.00    +0.000 A 
ATOM      6  C   UNL     1      49.298   4.504  17.684  0.00  0.00    +0.000 A 
ENDROOT
BRANCH   1   7
ATOM      7  C   UNL     1      47.111   3.488  16.909  0.00  0.00    +0.000 C 
BRANCH   7  10
ATOM      8  O   UNL     1      47.262   3.093  14.121  0.00  0.00    +0.000 OA
ATOM      9  C   UNL     1      46.853   4.167  14.552  0.00  0.00    +0.000 C 
ATOM     10  N   UNL     1      46.828   4.465  15.890  0.00  0.00    +0.000 N 
ATOM     11  H   UNL     1      46.311   5.280  16.199  0.00  0.00    +0.000 HD
BRANCH   9  12
ATOM     12  C   UNL     1      46.408   5.235  13.646  0.00  0.00    +0.000 A 
ATOM     13  C   UNL     1      47.254   6.300  13.367  0.00  0.00    +0.000 A 
ATOM     14  S   UNL     1      46.575   7.454  12.312  0.00  0.00    +0.000 S 
ATOM     15  C   UNL     1      45.144   6.547  12.152  0.00  0.00    +0.000 A 
ATOM     16  N   UNL     1      44.135   6.969  11.343  0.00  0.00    +0.000 NA
ATOM     17  C   UNL     1      43.128   6.164  11.280  0.00  0.00    +0.000 A 
ATOM     18  N   UNL     1      43.032   4.980  11.964  0.00  0.00    +0.000 N 
ATOM     19  C   UNL     1      43.987   4.557  12.856  0.00  0.00    +0.000 A 
ATOM     20  O   UNL     1      43.798   3.570  13.561  0.00  0.00    +0.000 OA
ATOM     21  C   UNL     1      45.169   5.396  12.920  0.00  0.00    +0.000 A 
ATOM     22  H   UNL     1      42.201   4.412  11.900  0.00  0.00    +0.000 HD
ENDBRANCH   9  12
ENDBRANCH   7  10
ENDBRANCH   1   7
BRANCH   4  23
ATOM     23  C   UNL     1      52.845   3.115  18.020  0.00  0.00    +0.000 C 
BRANCH  23  24
ATOM     24  N   UNL     1      53.220   1.760  18.423  0.00  0.00    +0.000 NA
ATOM     25  H   UNL     1      52.390   1.273  18.755  0.00  0.00    +0.000 HD
BRANCH  24  26
ATOM     26  C   UNL     1      53.855   0.995  17.348  0.00  0.00    +0.000 C 
BRANCH  26  27
ATOM     27  C   UNL     1      55.282   0.585  17.784  0.00  0.00    +0.000 C 
ATOM     28  C   UNL     1      55.705  -0.786  17.226  0.00  0.00    +0.000 C 
ATOM     29  C   UNL     1      54.976  -1.925  17.933  0.00  0.00    +0.000 C 
ATOM     30  C   UNL     1      55.141  -1.826  19.447  0.00  0.00    +0.000 C 
ATOM     31  N   UNL     1      54.712  -0.523  19.962  0.00  0.00    +0.000 NA
ATOM     32  C   UNL     1      55.435   0.575  19.316  0.00  0.00    +0.000 C 
ATOM     33  H   UNL     1      54.891  -0.494  20.966  0.00  0.00    +0.000 HD
ENDBRANCH  26  27
ENDBRANCH  24  26
ENDBRANCH  23  24
ENDBRANCH   4  23
TORSDOF 7
ENDMDL
MODEL 5
REMARK VINA RESULT:    -6.963      3.180      7.955
REMARK INTER + INTRA:         -10.636
REMARK INTER:                  -9.049
REMARK INTRA:                  -1.587
REMARK UNBOUND:                -0.823
REMARK  Name = 
REMARK  7 active torsions:
REMARK  status: ('A' for Active; 'I' for Inactive)
REMARK    1  A    between atoms: C_2  and  C_20
REMARK    2  A    between atoms: N_3  and  C_4
REMARK    3  A    between atoms: C_4  and  C_5
REMARK    4  A    between atoms: C_8  and  C_9
REMARK    5  A    between atoms: C_9  and  N_10
REMARK    6  A    between atoms: N_10  and  C_11
REMARK    7  A    between atoms: C_11  and  C_12
REMARK                            x       y       z     vdW  Elec       q    Type
REMARK                         _______ _______ _______ _____ _____    ______ ____
ROOT
ATOM      1  C   UNL     1      48.529   8.177  13.385  0.00  0.00    +0.000 A 
ATOM      2  C   UNL     1      49.121   7.014  13.885  0.00  0.00    +0.000 A 
ATOM      3  C   UNL     1      49.460   6.917  15.235  0.00  0.00    +0.000 A 
ATOM      4  C   UNL     1      49.236   7.985  16.116  0.00  0.00    +0.000 A 
ATOM      5  C   UNL     1      48.606   9.135  15.619  0.00  0.00    +0.000 A 
ATOM      6  C   UNL     1      48.252   9.229  14.267  0.00  0.00    +0.000 A 
ENDROOT
BRANCH   1   7
ATOM      7  C   UNL     1      48.142   8.257  11.931  0.00  0.00    +0.000 C 
BRANCH   7  10
ATOM      8  O   UNL     1      45.355   8.004  11.573  0.00  0.00    +0.000 OA
ATOM      9  C   UNL     1      46.083   7.054  11.298  0.00  0.00    +0.000 C 
ATOM     10  N   UNL     1      47.435   7.070  11.521  0.00  0.00    +0.000 N 
ATOM     11  H   UNL     1      48.007   6.344  11.106  0.00  0.00    +0.000 HD
BRANCH   9  12
ATOM     12  C   UNL     1      45.534   5.805  10.754  0.00  0.00    +0.000 A 
ATOM     13  C   UNL     1      45.777   5.463   9.430  0.00  0.00    +0.000 A 
ATOM     14  S   UNL     1      45.056   3.991   8.960  0.00  0.00    +0.000 S 
ATOM     15  C   UNL     1      44.432   3.734  10.523  0.00  0.00    +0.000 A 
ATOM     16  N   UNL     1      43.721   2.613  10.817  0.00  0.00    +0.000 NA
ATOM     17  C   UNL     1      43.347   2.525  12.049  0.00  0.00    +0.000 A 
ATOM     18  N   UNL     1      43.607   3.464  13.012  0.00  0.00    +0.000 N 
ATOM     19  C   UNL     1      44.246   4.651  12.742  0.00  0.00    +0.000 A 
ATOM     20  O   UNL     1      44.327   5.532  13.592  0.00  0.00    +0.000 OA
ATOM     21  C   UNL     1      44.741   4.774  11.383  0.00  0.00    +0.000 A 
ATOM     22  H   UNL     1      43.255   3.354  13.951  0.00  0.00    +0.000 HD
ENDBRANCH   9  12
ENDBRANCH   7  10
ENDBRANCH   1   7
BRANCH   4  23
ATOM     23  C   UNL     1      49.589   7.886  17.589  0.00  0.00    +0.000 C 
BRANCH  23  24
ATOM     24  N   UNL     1      48.688   6.976  18.296  0.00  0.00    +0.000 NA
ATOM     25  H   UNL     1      47.914   6.734  17.680  0.00  0.00    +0.000 HD
BRANCH  24  26
ATOM     26  C   UNL     1      49.353   5.761  18.769  0.00  0.00    +0.000 C 
BRANCH  26  27
ATOM     27  C   UNL     1      48.303   4.638  18.946  0.00  0.00    +0.000 C 
ATOM     28  C   UNL     1      48.836   3.254  18.531  0.00  0.00    +0.000 C 
ATOM     29  C   UNL     1      48.961   3.135  17.015  0.00  0.00    +0.000 C 
ATOM     30  C   UNL     1      47.646   3.494  16.327  0.00  0.00    +0.000 C 
ATOM     31  N   UNL     1      47.168   4.823  16.716  0.00  0.00    +0.000 NA
ATOM     32  C   UNL     1      47.008   4.933  18.168  0.00  0.00    +0.000 C 
ATOM     33  H   UNL     1      46.266   4.989  16.269  0.00  0.00    +0.000 HD
ENDBRANCH  26  27
ENDBRANCH  24  26
ENDBRANCH  23  24
ENDBRANCH   4  23
TORSDOF 7
ENDMDL
MODEL 6
REMARK VINA RESULT:    -6.956      1.996      2.552
REMARK INTER + INTRA:         -10.626
REMARK INTER:                  -9.548
REMARK INTRA:                  -1.078
REMARK UNBOUND:                -0.823
REMARK  Name = 
REMARK  7 active torsions:
REMARK  status: ('A' for Active; 'I' for Inactive)
REMARK    1  A    between atoms: C_2  and  C_20
REMARK    2  A    between atoms: N_3  and  C_4
REMARK    3  A    between atoms: C_4  and  C_5
REMARK    4  A    between atoms: C_8  and  C_9
REMARK    5  A    between atoms: C_9  and  N_10
REMARK    6  A    between atoms: N_10  and  C_11
REMARK    7  A    between atoms: C_11  and  C_12
REMARK                            x       y       z     vdW  Elec       q    Type
REMARK                         _______ _______ _______ _____ _____    ______ ____
ROOT
ATOM      1  C   UNL     1      46.486   5.902  12.584  0.00  0.00    +0.000 A 
ATOM      2  C   UNL     1      46.035   4.698  13.129  0.00  0.00    +0.000 A 
ATOM      3  C   UNL     1      45.214   3.846  12.387  0.00  0.00    +0.000 A 
ATOM      4  C   UNL     1      44.807   4.186  11.088  0.00  0.00    +0.000 A 
ATOM      5  C   UNL     1      45.293   5.378  10.530  0.00  0.00    +0.000 A 
ATOM      6  C   UNL     1      46.127   6.225  11.269  0.00  0.00    +0.000 A 
ENDROOT
BRANCH   1   7
ATOM      7  C   UNL     1      47.394   6.797  13.386  0.00  0.00    +0.000 C 
BRANCH   7  10
ATOM      8  O   UNL     1      48.628   7.910  15.665  0.00  0.00    +0.000 OA
ATOM      9  C   UNL     1      48.517   6.690  15.580  0.00  0.00    +0.000 C 
ATOM     10  N   UNL     1      48.006   6.070  14.470  0.00  0.00    +0.000 N 
ATOM     11  H   UNL     1      47.764   5.088  14.526  0.00  0.00    +0.000 HD
BRANCH   9  12
ATOM     12  C   UNL     1      48.983   5.803  16.655  0.00  0.00    +0.000 A 
ATOM     13  C   UNL     1      48.063   5.063  17.387  0.00  0.00    +0.000 A 
ATOM     14  S   UNL     1      48.772   4.101  18.602  0.00  0.00    +0.000 S 
ATOM     15  C   UNL     1      50.338   4.602  18.163  0.00  0.00    +0.000 A 
ATOM     16  N   UNL     1      51.434   4.115  18.805  0.00  0.00    +0.000 NA
ATOM     17  C   UNL     1      52.559   4.545  18.342  0.00  0.00    +0.000 A 
ATOM     18  N   UNL     1      52.689   5.429  17.303  0.00  0.00    +0.000 N 
ATOM     19  C   UNL     1      51.610   6.012  16.683  0.00  0.00    +0.000 A 
ATOM     20  O   UNL     1      51.764   6.911  15.861  0.00  0.00    +0.000 OA
ATOM     21  C   UNL     1      50.319   5.518  17.125  0.00  0.00    +0.000 A 
ATOM     22  H   UNL     1      53.598   5.755  17.011  0.00  0.00    +0.000 HD
ENDBRANCH   9  12
ENDBRANCH   7  10
ENDBRANCH   1   7
BRANCH   4  23
ATOM     23  C   UNL     1      43.926   3.263  10.267  0.00  0.00    +0.000 C 
BRANCH  23  24
ATOM     24  N   UNL     1      44.645   2.057   9.860  0.00  0.00    +0.000 NA
ATOM     25  H   UNL     1      44.072   1.243  10.074  0.00  0.00    +0.000 HD
BRANCH  24  26
ATOM     26  C   UNL     1      45.009   2.056   8.441  0.00  0.00    +0.000 C 
BRANCH  26  27
ATOM     27  C   UNL     1      46.509   2.408   8.296  0.00  0.00    +0.000 C 
ATOM     28  C   UNL     1      46.743   3.691   7.478  0.00  0.00    +0.000 C 
ATOM     29  C   UNL     1      46.475   3.463   5.993  0.00  0.00    +0.000 C 
ATOM     30  C   UNL     1      47.275   2.273   5.469  0.00  0.00    +0.000 C 
ATOM     31  N   UNL     1      47.020   1.057   6.245  0.00  0.00    +0.000 NA
ATOM     32  C   UNL     1      47.312   1.255   7.666  0.00  0.00    +0.000 C 
ATOM     33  H   UNL     1      47.616   0.311   5.885  0.00  0.00    +0.000 HD
ENDBRANCH  26  27
ENDBRANCH  24  26
ENDBRANCH  23  24
ENDBRANCH   4  23
TORSDOF 7
ENDMDL
MODEL 7
REMARK VINA RESULT:    -6.841      3.477      5.476
REMARK INTER + INTRA:         -10.464
REMARK INTER:                  -9.560
REMARK INTRA:                  -0.904
REMARK UNBOUND:                -0.823
REMARK  Name = 
REMARK  7 active torsions:
REMARK  status: ('A' for Active; 'I' for Inactive)
REMARK    1  A    between atoms: C_2  and  C_20
REMARK    2  A    between atoms: N_3  and  C_4
REMARK    3  A    between atoms: C_4  and  C_5
REMARK    4  A    between atoms: C_8  and  C_9
REMARK    5  A    between atoms: C_9  and  N_10
REMARK    6  A    between atoms: N_10  and  C_11
REMARK    7  A    between atoms: C_11  and  C_12
REMARK                            x       y       z     vdW  Elec       q    Type
REMARK                         _______ _______ _______ _____ _____    ______ ____
ROOT
ATOM      1  C   UNL     1      48.129   4.240  16.849  0.00  0.00    +0.000 A 
ATOM      2  C   UNL     1      48.737   5.496  16.785  0.00  0.00    +0.000 A 
ATOM      3  C   UNL     1      48.548   6.319  15.673  0.00  0.00    +0.000 A 
ATOM      4  C   UNL     1      47.762   5.900  14.589  0.00  0.00    +0.000 A 
ATOM      5  C   UNL     1      47.122   4.656  14.674  0.00  0.00    +0.000 A 
ATOM      6  C   UNL     1      47.300   3.835  15.795  0.00  0.00    +0.000 A 
ENDROOT
BRANCH   1   7
ATOM      7  C   UNL     1      48.319   3.374  18.067  0.00  0.00    +0.000 C 
BRANCH   7  10
ATOM      8  O   UNL     1      49.829   1.715  16.358  0.00  0.00    +0.000 OA
ATOM      9  C   UNL     1      50.385   2.260  17.308  0.00  0.00    +0.000 C 
ATOM     10  N   UNL     1      49.704   3.012  18.230  0.00  0.00    +0.000 N 
ATOM     11  H   UNL     1      50.231   3.587  18.877  0.00  0.00    +0.000 HD
BRANCH   9  12
ATOM     12  C   UNL     1      51.824   2.092  17.551  0.00  0.00    +0.000 A 
ATOM     13  C   UNL     1      52.375   0.817  17.580  0.00  0.00    +0.000 A 
ATOM     14  S   UNL     1      54.051   0.804  17.887  0.00  0.00    +0.000 S 
ATOM     15  C   UNL     1      54.110   2.504  17.946  0.00  0.00    +0.000 A 
ATOM     16  N   UNL     1      55.286   3.156  18.149  0.00  0.00    +0.000 NA
ATOM     17  C   UNL     1      55.194   4.444  18.126  0.00  0.00    +0.000 A 
ATOM     18  N   UNL     1      54.029   5.139  17.932  0.00  0.00    +0.000 N 
ATOM     19  C   UNL     1      52.807   4.523  17.808  0.00  0.00    +0.000 A 
ATOM     20  O   UNL     1      51.769   5.179  17.788  0.00  0.00    +0.000 OA
ATOM     21  C   UNL     1      52.862   3.074  17.767  0.00  0.00    +0.000 A 
ATOM     22  H   UNL     1      54.017   6.147  17.960  0.00  0.00    +0.000 HD
ENDBRANCH   9  12
ENDBRANCH   7  10
ENDBRANCH   1   7
BRANCH   4  23
ATOM     23  C   UNL     1      47.538   6.792  13.382  0.00  0.00    +0.000 C 
BRANCH  23  24
ATOM     24  N   UNL     1      46.138   7.198  13.267  0.00  0.00    +0.000 NA
ATOM     25  H   UNL     1      46.087   8.215  13.296  0.00  0.00    +0.000 HD
BRANCH  24  26
ATOM     26  C   UNL     1      45.492   6.698  12.052  0.00  0.00    +0.000 C 
BRANCH  26  27
ATOM     27  C   UNL     1      44.214   5.914  12.436  0.00  0.00    +0.000 C 
ATOM     28  C   UNL     1      44.500   4.440  12.778  0.00  0.00    +0.000 C 
ATOM     29  C   UNL     1      44.828   3.630  11.528  0.00  0.00    +0.000 C 
ATOM     30  C   UNL     1      43.741   3.792  10.468  0.00  0.00    +0.000 C 
ATOM     31  N   UNL     1      43.501   5.199  10.139  0.00  0.00    +0.000 NA
ATOM     32  C   UNL     1      43.146   5.977  11.329  0.00  0.00    +0.000 C 
ATOM     33  H   UNL     1      42.734   5.251   9.468  0.00  0.00    +0.000 HD
ENDBRANCH  26  27
ENDBRANCH  24  26
ENDBRANCH  23  24
ENDBRANCH   4  23
TORSDOF 7
ENDMDL
MODEL 8
REMARK VINA RESULT:    -6.802      4.852      9.497
REMARK INTER + INTRA:         -10.409
REMARK INTER:                  -9.194
REMARK INTRA:                  -1.215
REMARK UNBOUND:                -0.823
REMARK  Name = 
REMARK  7 active torsions:
REMARK  status: ('A' for Active; 'I' for Inactive)
REMARK    1  A    between atoms: C_2  and  C_20
REMARK    2  A    between atoms: N_3  and  C_4
REMARK    3  A    between atoms: C_4  and  C_5
REMARK    4  A    between atoms: C_8  and  C_9
REMARK    5  A    between atoms: C_9  and  N_10
REMARK    6  A    between atoms: N_10  and  C_11
REMARK    7  A    between atoms: C_11  and  C_12
REMARK                            x       y       z     vdW  Elec       q    Type
REMARK                         _______ _______ _______ _____ _____    ______ ____
ROOT
ATOM      1  C   UNL     1      48.806   3.371  17.305  0.00  0.00    +0.000 A 
ATOM      2  C   UNL     1      49.357   2.131  16.973  0.00  0.00    +0.000 A 
ATOM      3  C   UNL     1      50.713   1.878  17.185  0.00  0.00    +0.000 A 
ATOM      4  C   UNL     1      51.558   2.865  17.716  0.00  0.00    +0.000 A 
ATOM      5  C   UNL     1      50.993   4.095  18.084  0.00  0.00    +0.000 A 
ATOM      6  C   UNL     1      49.630   4.344  17.884  0.00  0.00    +0.000 A 
ENDROOT
BRANCH   1   7
ATOM      7  C   UNL     1      47.334   3.619  17.096  0.00  0.00    +0.000 C 
BRANCH   7  10
ATOM      8  O   UNL     1      47.308   3.085  14.327  0.00  0.00    +0.000 OA
ATOM      9  C   UNL     1      47.046   4.218  14.721  0.00  0.00    +0.000 C 
ATOM     10  N   UNL     1      47.118   4.577  16.042  0.00  0.00    +0.000 N 
ATOM     11  H   UNL     1      46.715   5.459  16.331  0.00  0.00    +0.000 HD
BRANCH   9  12
ATOM     12  C   UNL     1      46.686   5.289  13.782  0.00  0.00    +0.000 A 
ATOM     13  C   UNL     1      45.530   5.179  13.020  0.00  0.00    +0.000 A 
ATOM     14  S   UNL     1      45.273   6.500  11.974  0.00  0.00    +0.000 S 
ATOM     15  C   UNL     1      46.673   7.289  12.536  0.00  0.00    +0.000 A 
ATOM     16  N   UNL     1      47.024   8.514  12.060  0.00  0.00    +0.000 NA
ATOM     17  C   UNL     1      48.082   9.015  12.605  0.00  0.00    +0.000 A 
ATOM     18  N   UNL     1      48.829   8.397  13.573  0.00  0.00    +0.000 N 
ATOM     19  C   UNL     1      48.561   7.126  14.021  0.00  0.00    +0.000 A 
ATOM     20  O   UNL     1      49.336   6.546  14.775  0.00  0.00    +0.000 OA
ATOM     21  C   UNL     1      47.347   6.539  13.484  0.00  0.00    +0.000 A 
ATOM     22  H   UNL     1      49.667   8.827  13.933  0.00  0.00    +0.000 HD
ENDBRANCH   9  12
ENDBRANCH   7  10
ENDBRANCH   1   7
BRANCH   4  23
ATOM     23  C   UNL     1      53.031   2.597  17.964  0.00  0.00    +0.000 C 
BRANCH  23  24
ATOM     24  N   UNL     1      53.265   1.208  18.354  0.00  0.00    +0.000 NA
ATOM     25  H   UNL     1      52.370   0.767  18.557  0.00  0.00    +0.000 HD
BRANCH  24  26
ATOM     26  C   UNL     1      53.984   0.438  17.336  0.00  0.00    +0.000 C 
BRANCH  26  27
ATOM     27  C   UNL     1      55.305  -0.098  17.936  0.00  0.00    +0.000 C 
ATOM     28  C   UNL     1      55.694  -1.481  17.381  0.00  0.00    +0.000 C 
ATOM     29  C   UNL     1      54.794  -2.580  17.940  0.00  0.00    +0.000 C 
ATOM     30  C   UNL     1      54.764  -2.541  19.466  0.00  0.00    +0.000 C 
ATOM     31  N   UNL     1      54.369  -1.225  19.973  0.00  0.00    +0.000 NA
ATOM     32  C   UNL     1      55.252  -0.169  19.473  0.00  0.00    +0.000 C 
ATOM     33  H   UNL     1      54.415  -1.242  20.992  0.00  0.00    +0.000 HD
ENDBRANCH  26  27
ENDBRANCH  24  26
ENDBRANCH  23  24
ENDBRANCH   4  23
TORSDOF 7
ENDMDL
MODEL 9
REMARK VINA RESULT:    -6.652      3.731      5.449
REMARK INTER + INTRA:         -10.198
REMARK INTER:                  -9.279
REMARK INTRA:                  -0.919
REMARK UNBOUND:                -0.823
REMARK  Name = 
REMARK  7 active torsions:
REMARK  status: ('A' for Active; 'I' for Inactive)
REMARK    1  A    between atoms: C_2  and  C_20
REMARK    2  A    between atoms: N_3  and  C_4
REMARK    3  A    between atoms: C_4  and  C_5
REMARK    4  A    between atoms: C_8  and  C_9
REMARK    5  A    between atoms: C_9  and  N_10
REMARK    6  A    between atoms: N_10  and  C_11
REMARK    7  A    between atoms: C_11  and  C_12
REMARK                            x       y       z     vdW  Elec       q    Type
REMARK                         _______ _______ _______ _____ _____    ______ ____
ROOT
ATOM      1  C   UNL     1      48.675   4.856  17.722  0.00  0.00    +0.000 A 
ATOM      2  C   UNL     1      48.979   5.906  16.852  0.00  0.00    +0.000 A 
ATOM      3  C   UNL     1      48.394   5.969  15.586  0.00  0.00    +0.000 A 
ATOM      4  C   UNL     1      47.505   4.975  15.150  0.00  0.00    +0.000 A 
ATOM      5  C   UNL     1      47.174   3.943  16.041  0.00  0.00    +0.000 A 
ATOM      6  C   UNL     1      47.749   3.887  17.315  0.00  0.00    +0.000 A 
ENDROOT
BRANCH   1   7
ATOM      7  C   UNL     1      49.293   4.816  19.096  0.00  0.00    +0.000 C 
BRANCH   7  10
ATOM      8  O   UNL     1      51.923   5.756  18.702  0.00  0.00    +0.000 OA
ATOM      9  C   UNL     1      51.744   4.571  18.973  0.00  0.00    +0.000 C 
ATOM     10  N   UNL     1      50.495   4.022  19.097  0.00  0.00    +0.000 N 
ATOM     11  H   UNL     1      50.405   3.098  19.502  0.00  0.00    +0.000 HD
BRANCH   9  12
ATOM     12  C   UNL     1      52.873   3.645  19.129  0.00  0.00    +0.000 A 
ATOM     13  C   UNL     1      53.943   3.991  19.944  0.00  0.00    +0.000 A 
ATOM     14  S   UNL     1      55.171   2.810  20.000  0.00  0.00    +0.000 S 
ATOM     15  C   UNL     1      54.295   1.772  18.974  0.00  0.00    +0.000 A 
ATOM     16  N   UNL     1      54.782   0.547  18.637  0.00  0.00    +0.000 NA
ATOM     17  C   UNL     1      53.996  -0.153  17.890  0.00  0.00    +0.000 A 
ATOM     18  N   UNL     1      52.773   0.265  17.437  0.00  0.00    +0.000 N 
ATOM     19  C   UNL     1      52.280   1.525  17.680  0.00  0.00    +0.000 A 
ATOM     20  O   UNL     1      51.253   1.917  17.134  0.00  0.00    +0.000 OA
ATOM     21  C   UNL     1      53.098   2.333  18.566  0.00  0.00    +0.000 A 
ATOM     22  H   UNL     1      52.221  -0.317  16.825  0.00  0.00    +0.000 HD
ENDBRANCH   9  12
ENDBRANCH   7  10
ENDBRANCH   1   7
BRANCH   4  23
ATOM     23  C   UNL     1      46.853   5.040  13.782  0.00  0.00    +0.000 C 
BRANCH  23  24
ATOM     24  N   UNL     1      45.512   4.458  13.798  0.00  0.00    +0.000 NA
ATOM     25  H   UNL     1      45.256   4.249  14.761  0.00  0.00    +0.000 HD
BRANCH  24  26
ATOM     26  C   UNL     1      44.501   5.322  13.186  0.00  0.00    +0.000 C 
BRANCH  26  27
ATOM     27  C   UNL     1      43.385   4.448  12.567  0.00  0.00    +0.000 C 
ATOM     28  C   UNL     1      43.915   3.117  12.001  0.00  0.00    +0.000 C 
ATOM     29  C   UNL     1      44.700   3.333  10.710  0.00  0.00    +0.000 C 
ATOM     30  C   UNL     1      43.878   4.122   9.694  0.00  0.00    +0.000 C 
ATOM     31  N   UNL     1      43.403   5.395  10.243  0.00  0.00    +0.000 NA
ATOM     32  C   UNL     1      42.616   5.194  11.462  0.00  0.00    +0.000 C 
ATOM     33  H   UNL     1      42.820   5.855   9.543  0.00  0.00    +0.000 HD
ENDBRANCH  26  27
ENDBRANCH  24  26
ENDBRANCH  23  24
ENDBRANCH   4  23
TORSDOF 7
ENDMDL
