MODEL 1
REMARK VINA RESULT:    -9.217      0.000      0.000
REMARK INTER + INTRA:         -12.200
REMARK INTER:                 -11.373
REMARK INTRA:                  -0.827
REMARK UNBOUND:                -0.827
REMARK  Name = 
REMARK  4 active torsions:
REMARK  status: ('A' for Active; 'I' for Inactive)
REMARK    1  A    between atoms: C_2  and  C_4
REMARK    2  A    between atoms: N_8  and  C_9
REMARK    3  A    between atoms: C_9  and  C_10
REMARK    4  A    between atoms: C_15  and  C_16
REMARK                            x       y       z     vdW  Elec       q    Type
REMARK                         _______ _______ _______ _____ _____    ______ ____
ROOT
ATOM      1  C   UNL     1      43.538   4.798  11.135  0.00  0.00    +0.000 C 
ENDROOT
BRANCH   1   6
ATOM      2  C   UNL     1      46.333   2.224   7.680  0.00  0.00    +0.000 A 
ATOM      3  C   UNL     1      45.674   1.746   8.805  0.00  0.00    +0.000 A 
ATOM      4  C   UNL     1      44.833   2.600   9.522  0.00  0.00    +0.000 A 
ATOM      5  C   UNL     1      44.679   3.922   9.112  0.00  0.00    +0.000 A 
ATOM      6  N   UNL     1      43.811   4.805   9.712  0.00  0.00    +0.000 N 
ATOM      7  N   UNL     1      45.322   4.399   8.030  0.00  0.00    +0.000 NA
ATOM      8  C   UNL     1      46.138   3.555   7.339  0.00  0.00    +0.000 A 
ATOM      9  H   UNL     1      43.944   5.717   9.287  0.00  0.00    +0.000 HD
BRANCH   2  11
ATOM     10  N   UNL     1      48.299   1.996   6.274  0.00  0.00    +0.000 N 
ATOM     11  C   UNL     1      47.220   1.382   6.854  0.00  0.00    +0.000 C 
ATOM     12  O   UNL     1      47.022   0.184   6.715  0.00  0.00    +0.000 OA
ATOM     13  H   UNL     1      48.950   1.394   5.784  0.00  0.00    +0.000 HD
ATOM     14  H   UNL     1      48.631   2.905   6.560  0.00  0.00    +0.000 HD
ENDBRANCH   2  11
ENDBRANCH   1   6
BRANCH   1  15
ATOM     15  C   UNL     1      44.745   5.163  11.967  0.00  0.00    +0.000 A 
ATOM     16  C   UNL     1      45.268   4.265  12.901  0.00  0.00    +0.000 A 
ATOM     17  C   UNL     1      46.430   4.584  13.589  0.00  0.00    +0.000 A 
ATOM     18  F   UNL     1      46.938   3.705  14.463  0.00  0.00    +0.000 F 
ATOM     19  C   UNL     1      47.094   5.788  13.370  0.00  0.00    +0.000 A 
ATOM     20  C   UNL     1      46.608   6.721  12.440  0.00  0.00    +0.000 A 
ATOM     21  C   UNL     1      45.420   6.383  11.754  0.00  0.00    +0.000 A 
BRANCH  20  22
ATOM     22  C   UNL     1      47.328   7.987  12.164  0.00  0.00    +0.000 A 
ATOM     23  C   UNL     1      48.672   8.015  11.757  0.00  0.00    +0.000 A 
ATOM     24  C   UNL     1      49.313   9.223  11.480  0.00  0.00    +0.000 A 
ATOM     25  C   UNL     1      48.591  10.394  11.607  0.00  0.00    +0.000 A 
ATOM     26  N   UNL     1      47.303  10.432  11.999  0.00  0.00    +0.000 NA
ATOM     27  C   UNL     1      46.715   9.239  12.273  0.00  0.00    +0.000 A 
ENDBRANCH  20  22
ENDBRANCH   1  15
TORSDOF 4
ENDMDL
MODEL 2
REMARK VINA RESULT:    -8.348      2.680      3.954
REMARK INTER + INTRA:         -11.127
REMARK INTER:                 -10.425
REMARK INTRA:                  -0.702
REMARK UNBOUND:                -0.827
REMARK  Name = 
REMARK  4 active torsions:
REMARK  status: ('A' for Active; 'I' for Inactive)
REMARK    1  A    between atoms: C_2  and  C_4
REMARK    2  A    between atoms: N_8  and  C_9
REMARK    3  A    between atoms: C_9  and  C_10
REMARK    4  A    between atoms: C_15  and  C_16
REMARK                            x       y       z     vdW  Elec       q    Type
REMARK                         _______ _______ _______ _____ _____    ______ ____
ROOT
ATOM      1  C   UNL     1      44.416   5.020  11.496  0.00  0.00    +0.000 C 
ENDROOT
BRANCH   1   6
ATOM      2  C   UNL     1      46.506   2.531   7.520  0.00  0.00    +0.000 A 
ATOM      3  C   UNL     1      45.963   2.015   8.689  0.00  0.00    +0.000 A 
ATOM      4  C   UNL     1      45.298   2.868   9.572  0.00  0.00    +0.000 A 
ATOM      5  C   UNL     1      45.203   4.226   9.280  0.00  0.00    +0.000 A 
ATOM      6  N   UNL     1      44.499   5.121  10.053  0.00  0.00    +0.000 N 
ATOM      7  N   UNL     1      45.736   4.740   8.155  0.00  0.00    +0.000 NA
ATOM      8  C   UNL     1      46.381   3.896   7.302  0.00  0.00    +0.000 A 
ATOM      9  H   UNL     1      44.651   6.051   9.679  0.00  0.00    +0.000 HD
BRANCH   2  11
ATOM     10  N   UNL     1      48.006   2.341   5.621  0.00  0.00    +0.000 N 
ATOM     11  C   UNL     1      47.203   1.695   6.523  0.00  0.00    +0.000 C 
ATOM     12  O   UNL     1      47.095   0.478   6.518  0.00  0.00    +0.000 OA
ATOM     13  H   UNL     1      48.548   1.752   4.999  0.00  0.00    +0.000 HD
ATOM     14  H   UNL     1      48.312   3.294   5.744  0.00  0.00    +0.000 HD
ENDBRANCH   2  11
ENDBRANCH   1   6
BRANCH   1  15
ATOM     15  C   UNL     1      45.673   5.488  12.192  0.00  0.00    +0.000 A 
ATOM     16  C   UNL     1      46.436   6.532  11.664  0.00  0.00    +0.000 A 
ATOM     17  C   UNL     1      47.535   7.007  12.366  0.00  0.00    +0.000 A 
ATOM     18  F   UNL     1      48.246   8.025  11.865  0.00  0.00    +0.000 F 
ATOM     19  C   UNL     1      47.899   6.463  13.596  0.00  0.00    +0.000 A 
ATOM     20  C   UNL     1      47.161   5.414  14.167  0.00  0.00    +0.000 A 
ATOM     21  C   UNL     1      46.049   4.939  13.436  0.00  0.00    +0.000 A 
BRANCH  20  22
ATOM     22  C   UNL     1      47.510   4.855  15.495  0.00  0.00    +0.000 A 
ATOM     23  C   UNL     1      48.425   5.481  16.358  0.00  0.00    +0.000 A 
ATOM     24  C   UNL     1      48.711   4.943  17.613  0.00  0.00    +0.000 A 
ATOM     25  C   UNL     1      48.067   3.781  17.993  0.00  0.00    +0.000 A 
ATOM     26  N   UNL     1      47.185   3.133  17.208  0.00  0.00    +0.000 NA
ATOM     27  C   UNL     1      46.940   3.678  15.988  0.00  0.00    +0.000 A 
ENDBRANCH  20  22
ENDBRANCH   1  15
TORSDOF 4
ENDMDL
MODEL 3
REMARK VINA RESULT:    -7.989      2.053      2.691
REMARK INTER + INTRA:         -10.683
REMARK INTER:                 -10.000
REMARK INTRA:                  -0.683
REMARK UNBOUND:                -0.827
REMARK  Name = 
REMARK  4 active torsions:
REMARK  status: ('A' for Active; 'I' for Inactive)
REMARK    1  A    between atoms: C_2  and  C_4
REMARK    2  A    between atoms: N_8  and  C_9
REMARK    3  A    between atoms: C_9  and  C_10
REMARK    4  A    between atoms: C_15  and  C_16
REMARK                            x       y       z     vdW  Elec       q    Type
REMARK                         _______ _______ _______ _____ _____    ______ ____
ROOT
ATOM      1  C   UNL     1      43.556   3.849  11.067  0.00  0.00    +0.000 C 
ENDROOT
BRANCH   1   6
ATOM      2  C   UNL     1      46.700   2.530   7.227  0.00  0.00    +0.000 A 
ATOM      3  C   UNL     1      46.435   3.789   7.749  0.00  0.00    +0.000 A 
ATOM      4  C   UNL     1      45.664   3.903   8.907  0.00  0.00    +0.000 A 
ATOM      5  C   UNL     1      45.155   2.757   9.513  0.00  0.00    +0.000 A 
ATOM      6  N   UNL     1      44.454   2.774  10.698  0.00  0.00    +0.000 N 
ATOM      7  N   UNL     1      45.395   1.533   9.009  0.00  0.00    +0.000 NA
ATOM      8  C   UNL     1      46.150   1.436   7.879  0.00  0.00    +0.000 A 
ATOM      9  H   UNL     1      44.125   1.833  10.883  0.00  0.00    +0.000 HD
BRANCH   2  11
ATOM     10  N   UNL     1      47.330   3.184   4.975  0.00  0.00    +0.000 N 
ATOM     11  C   UNL     1      47.525   2.321   6.021  0.00  0.00    +0.000 C 
ATOM     12  O   UNL     1      48.367   1.436   5.964  0.00  0.00    +0.000 OA
ATOM     13  H   UNL     1      47.962   3.088   4.189  0.00  0.00    +0.000 HD
ATOM     14  H   UNL     1      46.837   4.059   5.071  0.00  0.00    +0.000 HD
ENDBRANCH   2  11
ENDBRANCH   1   6
BRANCH   1  15
ATOM     15  C   UNL     1      44.260   4.990  11.765  0.00  0.00    +0.000 A 
ATOM     16  C   UNL     1      45.277   4.744  12.690  0.00  0.00    +0.000 A 
ATOM     17  C   UNL     1      45.972   5.807  13.251  0.00  0.00    +0.000 A 
ATOM     18  F   UNL     1      46.962   5.561  14.117  0.00  0.00    +0.000 F 
ATOM     19  C   UNL     1      45.677   7.124  12.909  0.00  0.00    +0.000 A 
ATOM     20  C   UNL     1      44.665   7.421  11.982  0.00  0.00    +0.000 A 
ATOM     21  C   UNL     1      43.964   6.327  11.427  0.00  0.00    +0.000 A 
BRANCH  20  22
ATOM     22  C   UNL     1      44.370   8.816  11.577  0.00  0.00    +0.000 A 
ATOM     23  C   UNL     1      43.368   9.132  10.645  0.00  0.00    +0.000 A 
ATOM     24  C   UNL     1      43.098  10.459  10.304  0.00  0.00    +0.000 A 
ATOM     25  C   UNL     1      43.835  11.456  10.913  0.00  0.00    +0.000 A 
ATOM     26  N   UNL     1      44.811  11.215  11.809  0.00  0.00    +0.000 NA
ATOM     27  C   UNL     1      45.056   9.913  12.107  0.00  0.00    +0.000 A 
ENDBRANCH  20  22
ENDBRANCH   1  15
TORSDOF 4
ENDMDL
MODEL 4
REMARK VINA RESULT:    -7.829      2.310      2.885
REMARK INTER + INTRA:         -10.487
REMARK INTER:                 -10.409
REMARK INTRA:                  -0.077
REMARK UNBOUND:                -0.827
REMARK  Name = 
REMARK  4 active torsions:
REMARK  status: ('A' for Active; 'I' for Inactive)
REMARK    1  A    between atoms: C_2  and  C_4
REMARK    2  A    between atoms: N_8  and  C_9
REMARK    3  A    between atoms: C_9  and  C_10
REMARK    4  A    between atoms: C_15  and  C_16
REMARK                            x       y       z     vdW  Elec       q    Type
REMARK                         _______ _______ _______ _____ _____    ______ ____
ROOT
ATOM      1  C   UNL     1      43.460   3.457  11.051  0.00  0.00    +0.000 C 
ENDROOT
BRANCH   1   6
ATOM      2  C   UNL     1      46.672   2.492   7.161  0.00  0.00    +0.000 A 
ATOM      3  C   UNL     1      46.197   3.712   7.623  0.00  0.00    +0.000 A 
ATOM      4  C   UNL     1      45.454   3.757   8.804  0.00  0.00    +0.000 A 
ATOM      5  C   UNL     1      45.183   2.578   9.494  0.00  0.00    +0.000 A 
ATOM      6  N   UNL     1      44.529   2.542  10.705  0.00  0.00    +0.000 N 
ATOM      7  N   UNL     1      45.629   1.388   9.050  0.00  0.00    +0.000 NA
ATOM      8  C   UNL     1      46.354   1.360   7.897  0.00  0.00    +0.000 A 
ATOM      9  H   UNL     1      44.384   1.570  10.957  0.00  0.00    +0.000 HD
BRANCH   2  11
ATOM     10  N   UNL     1      47.281   3.291   4.951  0.00  0.00    +0.000 N 
ATOM     11  C   UNL     1      47.484   2.360   5.936  0.00  0.00    +0.000 C 
ATOM     12  O   UNL     1      48.322   1.479   5.812  0.00  0.00    +0.000 OA
ATOM     13  H   UNL     1      47.904   3.245   4.154  0.00  0.00    +0.000 HD
ATOM     14  H   UNL     1      46.791   4.159   5.110  0.00  0.00    +0.000 HD
ENDBRANCH   2  11
ENDBRANCH   1   6
BRANCH   1  15
ATOM     15  C   UNL     1      43.934   4.884  11.204  0.00  0.00    +0.000 A 
ATOM     16  C   UNL     1      43.073   5.954  10.949  0.00  0.00    +0.000 A 
ATOM     17  C   UNL     1      43.499   7.254  11.184  0.00  0.00    +0.000 A 
ATOM     18  F   UNL     1      42.659   8.271  10.961  0.00  0.00    +0.000 F 
ATOM     19  C   UNL     1      44.776   7.519  11.673  0.00  0.00    +0.000 A 
ATOM     20  C   UNL     1      45.675   6.476  11.947  0.00  0.00    +0.000 A 
ATOM     21  C   UNL     1      45.227   5.160  11.696  0.00  0.00    +0.000 A 
BRANCH  20  22
ATOM     22  C   UNL     1      47.021   6.741  12.509  0.00  0.00    +0.000 A 
ATOM     23  C   UNL     1      47.957   7.566  11.863  0.00  0.00    +0.000 A 
ATOM     24  C   UNL     1      49.206   7.817  12.433  0.00  0.00    +0.000 A 
ATOM     25  C   UNL     1      49.499   7.241  13.654  0.00  0.00    +0.000 A 
ATOM     26  N   UNL     1      48.646   6.437  14.318  0.00  0.00    +0.000 NA
ATOM     27  C   UNL     1      47.445   6.205  13.728  0.00  0.00    +0.000 A 
ENDBRANCH  20  22
ENDBRANCH   1  15
TORSDOF 4
ENDMDL
MODEL 5
REMARK VINA RESULT:    -7.804      3.419      7.309
REMARK INTER + INTRA:         -10.456
REMARK INTER:                 -10.041
REMARK INTRA:                  -0.415
REMARK UNBOUND:                -0.827
REMARK  Name = 
REMARK  4 active torsions:
REMARK  status: ('A' for Active; 'I' for Inactive)
REMARK    1  A    between atoms: C_2  and  C_4
REMARK    2  A    between atoms: N_8  and  C_9
REMARK    3  A    between atoms: C_9  and  C_10
REMARK    4  A    between atoms: C_15  and  C_16
REMARK                            x       y       z     vdW  Elec       q    Type
REMARK                         _______ _______ _______ _____ _____    ______ ____
ROOT
ATOM      1  C   UNL     1      45.016   6.552  11.164  0.00  0.00    +0.000 C 
ENDROOT
BRANCH   1   6
ATOM      2  C   UNL     1      48.003   5.801  15.274  0.00  0.00    +0.000 A 
ATOM      3  C   UNL     1      47.049   4.959  14.719  0.00  0.00    +0.000 A 
ATOM      4  C   UNL     1      46.463   5.296  13.497  0.00  0.00    +0.000 A 
ATOM      5  C   UNL     1      46.827   6.480  12.861  0.00  0.00    +0.000 A 
ATOM      6  N   UNL     1      46.359   6.849  11.620  0.00  0.00    +0.000 N 
ATOM      7  N   UNL     1      47.742   7.310  13.396  0.00  0.00    +0.000 NA
ATOM      8  C   UNL     1      48.306   6.968  14.587  0.00  0.00    +0.000 A 
ATOM      9  H   UNL     1      46.704   7.781  11.416  0.00  0.00    +0.000 HD
BRANCH   2  11
ATOM     10  N   UNL     1      47.948   5.630  17.695  0.00  0.00    +0.000 N 
ATOM     11  C   UNL     1      48.687   5.507  16.548  0.00  0.00    +0.000 C 
ATOM     12  O   UNL     1      49.852   5.140  16.582  0.00  0.00    +0.000 OA
ATOM     13  H   UNL     1      48.399   5.340  18.555  0.00  0.00    +0.000 HD
ATOM     14  H   UNL     1      46.940   5.686  17.694  0.00  0.00    +0.000 HD
ENDBRANCH   2  11
ENDBRANCH   1   6
BRANCH   1  15
ATOM     15  C   UNL     1      44.835   5.104  10.770  0.00  0.00    +0.000 A 
ATOM     16  C   UNL     1      43.909   4.294  11.432  0.00  0.00    +0.000 A 
ATOM     17  C   UNL     1      43.694   2.994  10.995  0.00  0.00    +0.000 A 
ATOM     18  F   UNL     1      42.786   2.233  11.619  0.00  0.00    +0.000 F 
ATOM     19  C   UNL     1      44.384   2.474   9.903  0.00  0.00    +0.000 A 
ATOM     20  C   UNL     1      45.322   3.251   9.205  0.00  0.00    +0.000 A 
ATOM     21  C   UNL     1      45.533   4.569   9.668  0.00  0.00    +0.000 A 
BRANCH  20  22
ATOM     22  C   UNL     1      46.031   2.725   8.014  0.00  0.00    +0.000 A 
ATOM     23  C   UNL     1      46.300   3.519   6.887  0.00  0.00    +0.000 A 
ATOM     24  C   UNL     1      46.994   3.000   5.793  0.00  0.00    +0.000 A 
ATOM     25  C   UNL     1      47.419   1.687   5.847  0.00  0.00    +0.000 A 
ATOM     26  N   UNL     1      47.186   0.875   6.896  0.00  0.00    +0.000 NA
ATOM     27  C   UNL     1      46.497   1.409   7.938  0.00  0.00    +0.000 A 
ENDBRANCH  20  22
ENDBRANCH   1  15
TORSDOF 4
ENDMDL
MODEL 6
REMARK VINA RESULT:    -7.785      2.468      3.034
REMARK INTER + INTRA:         -10.433
REMARK INTER:                  -9.811
REMARK INTRA:                  -0.622
REMARK UNBOUND:                -0.827
REMARK  Name = 
REMARK  4 active torsions:
REMARK  status: ('A' for Active; 'I' for Inactive)
REMARK    1  A    between atoms: C_2  and  C_4
REMARK    2  A    between atoms: N_8  and  C_9
REMARK    3  A    between atoms: C_9  and  C_10
REMARK    4  A    between atoms: C_15  and  C_16
REMARK                            x       y       z     vdW  Elec       q    Type
REMARK                         _______ _______ _______ _____ _____    ______ ____
ROOT
ATOM      1  C   UNL     1      43.994   5.469  11.010  0.00  0.00    +0.000 C 
ENDROOT
BRANCH   1   6
ATOM      2  C   UNL     1      46.315   2.072   7.937  0.00  0.00    +0.000 A 
ATOM      3  C   UNL     1      45.622   1.852   9.120  0.00  0.00    +0.000 A 
ATOM      4  C   UNL     1      44.927   2.908   9.714  0.00  0.00    +0.000 A 
ATOM      5  C   UNL     1      44.953   4.170   9.125  0.00  0.00    +0.000 A 
ATOM      6  N   UNL     1      44.233   5.242   9.600  0.00  0.00    +0.000 N 
ATOM      7  N   UNL     1      45.632   4.397   7.985  0.00  0.00    +0.000 NA
ATOM      8  C   UNL     1      46.304   3.358   7.416  0.00  0.00    +0.000 A 
ATOM      9  H   UNL     1      44.484   6.059   9.052  0.00  0.00    +0.000 HD
BRANCH   2  11
ATOM     10  N   UNL     1      46.775  -0.286   7.590  0.00  0.00    +0.000 N 
ATOM     11  C   UNL     1      47.055   1.006   7.233  0.00  0.00    +0.000 C 
ATOM     12  O   UNL     1      47.861   1.260   6.349  0.00  0.00    +0.000 OA
ATOM     13  H   UNL     1      47.222  -1.011   7.040  0.00  0.00    +0.000 HD
ATOM     14  H   UNL     1      45.958  -0.543   8.123  0.00  0.00    +0.000 HD
ENDBRANCH   2  11
ENDBRANCH   1   6
BRANCH   1  15
ATOM     15  C   UNL     1      44.737   6.671  11.547  0.00  0.00    +0.000 A 
ATOM     16  C   UNL     1      44.219   7.959  11.392  0.00  0.00    +0.000 A 
ATOM     17  C   UNL     1      44.871   9.039  11.971  0.00  0.00    +0.000 A 
ATOM     18  F   UNL     1      44.354  10.267  11.839  0.00  0.00    +0.000 F 
ATOM     19  C   UNL     1      46.039   8.868  12.711  0.00  0.00    +0.000 A 
ATOM     20  C   UNL     1      46.595   7.592  12.896  0.00  0.00    +0.000 A 
ATOM     21  C   UNL     1      45.922   6.506  12.294  0.00  0.00    +0.000 A 
BRANCH  20  22
ATOM     22  C   UNL     1      47.812   7.390  13.717  0.00  0.00    +0.000 A 
ATOM     23  C   UNL     1      48.910   8.266  13.664  0.00  0.00    +0.000 A 
ATOM     24  C   UNL     1      50.031   8.061  14.470  0.00  0.00    +0.000 A 
ATOM     25  C   UNL     1      50.032   6.981  15.331  0.00  0.00    +0.000 A 
ATOM     26  N   UNL     1      49.014   6.104  15.423  0.00  0.00    +0.000 NA
ATOM     27  C   UNL     1      47.945   6.326  14.614  0.00  0.00    +0.000 A 
ENDBRANCH  20  22
ENDBRANCH   1  15
TORSDOF 4
ENDMDL
MODEL 7
REMARK VINA RESULT:    -7.709      3.079      7.035
REMARK INTER + INTRA:         -10.338
REMARK INTER:                  -9.846
REMARK INTRA:                  -0.492
REMARK UNBOUND:                -0.827
REMARK  Name = 
REMARK  4 active torsions:
REMARK  status: ('A' for Active; 'I' for Inactive)
REMARK    1  A    between atoms: C_2  and  C_4
REMARK    2  A    between atoms: N_8  and  C_9
REMARK    3  A    between atoms: C_9  and  C_10
REMARK    4  A    between atoms: C_15  and  C_16
REMARK                            x       y       z     vdW  Elec       q    Type
REMARK                         _______ _______ _______ _____ _____    ______ ____
ROOT
ATOM      1  C   UNL     1      43.800   6.318  11.015  0.00  0.00    +0.000 C 
ENDROOT
BRANCH   1   6
ATOM      2  C   UNL     1      47.877   6.907  14.082  0.00  0.00    +0.000 A 
ATOM      3  C   UNL     1      47.158   5.755  13.792  0.00  0.00    +0.000 A 
ATOM      4  C   UNL     1      46.177   5.790  12.799  0.00  0.00    +0.000 A 
ATOM      5  C   UNL     1      45.919   6.981  12.126  0.00  0.00    +0.000 A 
ATOM      6  N   UNL     1      45.028   7.084  11.082  0.00  0.00    +0.000 N 
ATOM      7  N   UNL     1      46.601   8.107  12.407  0.00  0.00    +0.000 NA
ATOM      8  C   UNL     1      47.556   8.058  13.377  0.00  0.00    +0.000 A 
ATOM      9  H   UNL     1      44.959   8.061  10.820  0.00  0.00    +0.000 HD
BRANCH   2  11
ATOM     10  N   UNL     1      48.555   6.960  16.413  0.00  0.00    +0.000 N 
ATOM     11  C   UNL     1      48.945   6.949  15.100  0.00  0.00    +0.000 C 
ATOM     12  O   UNL     1      50.127   6.945  14.790  0.00  0.00    +0.000 OA
ATOM     13  H   UNL     1      49.294   6.899  17.103  0.00  0.00    +0.000 HD
ATOM     14  H   UNL     1      47.621   6.717  16.709  0.00  0.00    +0.000 HD
ENDBRANCH   2  11
ENDBRANCH   1   6
BRANCH   1  15
ATOM     15  C   UNL     1      44.035   4.855  10.717  0.00  0.00    +0.000 A 
ATOM     16  C   UNL     1      43.369   3.862  11.440  0.00  0.00    +0.000 A 
ATOM     17  C   UNL     1      43.529   2.529  11.089  0.00  0.00    +0.000 A 
ATOM     18  F   UNL     1      42.866   1.586  11.771  0.00  0.00    +0.000 F 
ATOM     19  C   UNL     1      44.344   2.153  10.024  0.00  0.00    +0.000 A 
ATOM     20  C   UNL     1      45.031   3.115   9.267  0.00  0.00    +0.000 A 
ATOM     21  C   UNL     1      44.862   4.467   9.642  0.00  0.00    +0.000 A 
BRANCH  20  22
ATOM     22  C   UNL     1      45.867   2.734   8.104  0.00  0.00    +0.000 A 
ATOM     23  C   UNL     1      46.136   3.619   7.047  0.00  0.00    +0.000 A 
ATOM     24  C   UNL     1      46.949   3.237   5.980  0.00  0.00    +0.000 A 
ATOM     25  C   UNL     1      47.492   1.967   5.990  0.00  0.00    +0.000 A 
ATOM     26  N   UNL     1      47.267   1.072   6.970  0.00  0.00    +0.000 NA
ATOM     27  C   UNL     1      46.460   1.473   7.987  0.00  0.00    +0.000 A 
ENDBRANCH  20  22
ENDBRANCH   1  15
TORSDOF 4
ENDMDL
MODEL 8
REMARK VINA RESULT:    -7.356      4.669      7.863
REMARK INTER + INTRA:          -9.903
REMARK INTER:                  -9.427
REMARK INTRA:                  -0.476
REMARK UNBOUND:                -0.827
REMARK  Name = 
REMARK  4 active torsions:
REMARK  status: ('A' for Active; 'I' for Inactive)
REMARK    1  A    between atoms: C_2  and  C_4
REMARK    2  A    between atoms: N_8  and  C_9
REMARK    3  A    between atoms: C_9  and  C_10
REMARK    4  A    between atoms: C_15  and  C_16
REMARK                            x       y       z     vdW  Elec       q    Type
REMARK                         _______ _______ _______ _____ _____    ______ ____
ROOT
ATOM      1  C   UNL     1      46.093   5.434  13.915  0.00  0.00    +0.000 C 
ENDROOT
BRANCH   1   6
ATOM      2  C   UNL     1      49.630   3.860  17.288  0.00  0.00    +0.000 A 
ATOM      3  C   UNL     1      49.203   5.150  17.006  0.00  0.00    +0.000 A 
ATOM      4  C   UNL     1      48.107   5.340  16.161  0.00  0.00    +0.000 A 
ATOM      5  C   UNL     1      47.469   4.238  15.599  0.00  0.00    +0.000 A 
ATOM      6  N   UNL     1      46.336   4.332  14.822  0.00  0.00    +0.000 N 
ATOM      7  N   UNL     1      47.882   2.983  15.857  0.00  0.00    +0.000 NA
ATOM      8  C   UNL     1      48.951   2.812  16.684  0.00  0.00    +0.000 A 
ATOM      9  H   UNL     1      46.117   3.406  14.470  0.00  0.00    +0.000 HD
BRANCH   2  11
ATOM     10  N   UNL     1      50.802   4.248  19.379  0.00  0.00    +0.000 N 
ATOM     11  C   UNL     1      50.764   3.571  18.189  0.00  0.00    +0.000 C 
ATOM     12  O   UNL     1      51.616   2.743  17.902  0.00  0.00    +0.000 OA
ATOM     13  H   UNL     1      51.533   3.978  20.026  0.00  0.00    +0.000 HD
ATOM     14  H   UNL     1      50.006   4.741  19.755  0.00  0.00    +0.000 HD
ENDBRANCH   2  11
ENDBRANCH   1   6
BRANCH   1  15
ATOM     15  C   UNL     1      45.150   5.073  12.790  0.00  0.00    +0.000 A 
ATOM     16  C   UNL     1      43.811   5.471  12.824  0.00  0.00    +0.000 A 
ATOM     17  C   UNL     1      42.986   5.208  11.739  0.00  0.00    +0.000 A 
ATOM     18  F   UNL     1      41.711   5.616  11.770  0.00  0.00    +0.000 F 
ATOM     19  C   UNL     1      43.464   4.552  10.608  0.00  0.00    +0.000 A 
ATOM     20  C   UNL     1      44.803   4.136  10.527  0.00  0.00    +0.000 A 
ATOM     21  C   UNL     1      45.626   4.405  11.643  0.00  0.00    +0.000 A 
BRANCH  20  22
ATOM     22  C   UNL     1      45.336   3.476   9.312  0.00  0.00    +0.000 A 
ATOM     23  C   UNL     1      45.781   4.203   8.195  0.00  0.00    +0.000 A 
ATOM     24  C   UNL     1      46.304   3.551   7.077  0.00  0.00    +0.000 A 
ATOM     25  C   UNL     1      46.381   2.172   7.096  0.00  0.00    +0.000 A 
ATOM     26  N   UNL     1      45.965   1.421   8.134  0.00  0.00    +0.000 NA
ATOM     27  C   UNL     1      45.451   2.087   9.200  0.00  0.00    +0.000 A 
ENDBRANCH  20  22
ENDBRANCH   1  15
TORSDOF 4
ENDMDL
MODEL 9
REMARK VINA RESULT:    -6.925      3.258      6.846
REMARK INTER + INTRA:          -9.371
REMARK INTER:                  -8.653
REMARK INTRA:                  -0.718
REMARK UNBOUND:                -0.827
REMARK  Name = 
REMARK  4 active torsions:
REMARK  status: ('A' for Active; 'I' for Inactive)
REMARK    1  A    between atoms: C_2  and  C_4
REMARK    2  A    between atoms: N_8  and  C_9
REMARK    3  A    between atoms: C_9  and  C_10
REMARK    4  A    between atoms: C_15  and  C_16
REMARK                            x       y       z     vdW  Elec       q    Type
REMARK                         _______ _______ _______ _____ _____    ______ ____
ROOT
ATOM      1  C   UNL     1      45.840   4.770  14.177  0.00  0.00    +0.000 C 
ENDROOT
BRANCH   1   6
ATOM      2  C   UNL     1      48.398   8.703  12.090  0.00  0.00    +0.000 A 
ATOM      3  C   UNL     1      47.222   8.716  12.827  0.00  0.00    +0.000 A 
ATOM      4  C   UNL     1      46.783   7.541  13.441  0.00  0.00    +0.000 A 
ATOM      5  C   UNL     1      47.520   6.368  13.291  0.00  0.00    +0.000 A 
ATOM      6  N   UNL     1      47.204   5.189  13.926  0.00  0.00    +0.000 N 
ATOM      7  N   UNL     1      48.655   6.342  12.569  0.00  0.00    +0.000 NA
ATOM      8  C   UNL     1      49.071   7.496  11.977  0.00  0.00    +0.000 A 
ATOM      9  H   UNL     1      47.837   4.470  13.592  0.00  0.00    +0.000 HD
BRANCH   2  11
ATOM     10  N   UNL     1      50.285   9.914  11.159  0.00  0.00    +0.000 N 
ATOM     11  C   UNL     1      48.942   9.906  11.429  0.00  0.00    +0.000 C 
ATOM     12  O   UNL     1      48.225  10.843  11.110  0.00  0.00    +0.000 OA
ATOM     13  H   UNL     1      50.632  10.703  10.627  0.00  0.00    +0.000 HD
ATOM     14  H   UNL     1      50.853   9.080  11.178  0.00  0.00    +0.000 HD
ENDBRANCH   2  11
ENDBRANCH   1   6
BRANCH   1  15
ATOM     15  C   UNL     1      45.003   4.706  12.919  0.00  0.00    +0.000 A 
ATOM     16  C   UNL     1      43.743   5.308  12.868  0.00  0.00    +0.000 A 
ATOM     17  C   UNL     1      43.031   5.316  11.676  0.00  0.00    +0.000 A 
ATOM     18  F   UNL     1      41.836   5.918  11.629  0.00  0.00    +0.000 F 
ATOM     19  C   UNL     1      43.547   4.735  10.521  0.00  0.00    +0.000 A 
ATOM     20  C   UNL     1      44.809   4.120  10.524  0.00  0.00    +0.000 A 
ATOM     21  C   UNL     1      45.517   4.115  11.746  0.00  0.00    +0.000 A 
BRANCH  20  22
ATOM     22  C   UNL     1      45.389   3.536   9.291  0.00  0.00    +0.000 A 
ATOM     23  C   UNL     1      45.858   4.330   8.231  0.00  0.00    +0.000 A 
ATOM     24  C   UNL     1      46.423   3.749   7.095  0.00  0.00    +0.000 A 
ATOM     25  C   UNL     1      46.519   2.371   7.040  0.00  0.00    +0.000 A 
ATOM     26  N   UNL     1      46.082   1.558   8.020  0.00  0.00    +0.000 NA
ATOM     27  C   UNL     1      45.526   2.157   9.105  0.00  0.00    +0.000 A 
ENDBRANCH  20  22
ENDBRANCH   1  15
TORSDOF 4
ENDMDL
