MODEL 1
REMARK VINA RESULT:    -7.966      0.000      0.000
REMARK INTER + INTRA:         -13.986
REMARK INTER:                 -12.624
REMARK INTRA:                  -1.362
REMARK UNBOUND:                -1.362
REMARK  Name = 
REMARK  14 active torsions:
REMARK  status: ('A' for Active; 'I' for Inactive)
REMARK    1  A    between atoms: C_1  and  N_2
REMARK    2  A    between atoms: N_2  and  C_3
REMARK    3  A    between atoms: N_2  and  C_4
REMARK    4  A    between atoms: C_4  and  C_5
REMARK    5  A    between atoms: C_6  and  C_7
REMARK    6  A    between atoms: C_10  and  C_11
REMARK    7  A    between atoms: C_15  and  N_16
REMARK    8  A    between atoms: N_16  and  C_17
REMARK    9  A    between atoms: C_17  and  C_18
REMARK   10  A    between atoms: C_18  and  C_19
REMARK   11  A    between atoms: C_18  and  C_20
REMARK   12  A    between atoms: C_18  and  C_21
REMARK   13  A    between atoms: C_24  and  O_25
REMARK   14  A    between atoms: O_25  and  C_26
REMARK                            x       y       z     vdW  Elec       q    Type
REMARK                         _______ _______ _______ _____ _____    ______ ____
ROOT
ATOM      1  C   UNL     1      48.000   6.416  14.100  0.00  0.00    +0.000 A 
ATOM      2  C   UNL     1      48.653   6.413  15.335  0.00  0.00    +0.000 A 
ATOM      3  N   UNL     1      48.523   5.453  16.287  0.00  0.00    +0.000 NA
ATOM      4  C   UNL     1      47.703   4.420  15.963  0.00  0.00    +0.000 A 
ATOM      5  C   UNL     1      46.998   4.339  14.773  0.00  0.00    +0.000 A 
ATOM      6  C   UNL     1      47.092   5.370  13.826  0.00  0.00    +0.000 A 
ENDROOT
BRANCH   4   7
ATOM      7  C   UNL     1      47.564   3.302  16.951  0.00  0.00    +0.000 C 
ATOM      8  N   UNL     1      48.727   2.675  17.306  0.00  0.00    +0.000 N 
ATOM      9  O   UNL     1      46.484   2.956  17.416  0.00  0.00    +0.000 OA
ATOM     10  H   UNL     1      49.604   2.968  16.884  0.00  0.00    +0.000 HD
ATOM     11  H   UNL     1      48.693   1.893  17.937  0.00  0.00    +0.000 HD
ENDBRANCH   4   7
BRANCH   1  13
ATOM     12  C   UNL     1      48.617   8.421  12.330  0.00  0.00    +0.000 C 
ATOM     13  C   UNL     1      48.294   7.476  13.169  0.00  0.00    +0.000 C 
BRANCH  12  14
ATOM     14  C   UNL     1      48.993   9.521  11.351  0.00  0.00    +0.000 C 
BRANCH  14  16
ATOM     15  C   UNL     1      51.237   8.650  11.175  0.00  0.00    +0.000 C 
ATOM     16  N   UNL     1      50.430   9.825  11.480  0.00  0.00    +0.000 NA
ATOM     17  C   UNL     1      50.846  10.947  10.626  0.00  0.00    +0.000 C 
ENDBRANCH  14  16
ENDBRANCH  12  14
ENDBRANCH   1  13
BRANCH   6  18
ATOM     18  N   UNL     1      46.391   5.279  12.604  0.00  0.00    +0.000 N 
ATOM     19  H   UNL     1      46.905   5.693  11.830  0.00  0.00    +0.000 HD
BRANCH  18  20
ATOM     20  C   UNL     1      44.951   5.611  12.618  0.00  0.00    +0.000 C 
BRANCH  20  21
ATOM     21  C   UNL     1      44.049   4.659  11.766  0.00  0.00    +0.000 C 
ATOM     22  C   UNL     1      43.778   3.426  12.667  0.00  0.00    +0.000 C 
ATOM     23  C   UNL     1      42.701   5.363  11.496  0.00  0.00    +0.000 C 
BRANCH  21  24
ATOM     24  C   UNL     1      44.673   4.189  10.437  0.00  0.00    +0.000 A 
ATOM     25  C   UNL     1      45.327   5.067   9.560  0.00  0.00    +0.000 A 
ATOM     26  C   UNL     1      45.775   4.647   8.306  0.00  0.00    +0.000 A 
ATOM     27  C   UNL     1      45.623   3.324   7.897  0.00  0.00    +0.000 A 
ATOM     28  C   UNL     1      45.017   2.422   8.763  0.00  0.00    +0.000 A 
ATOM     29  C   UNL     1      44.565   2.847  10.023  0.00  0.00    +0.000 A 
BRANCH  27  30
ATOM     30  O   UNL     1      46.039   3.092   6.625  0.00  0.00    +0.000 OA
BRANCH  30  31
ATOM     31  C   UNL     1      47.185   2.300   6.371  0.00  0.00    +0.000 C 
ATOM     32  F   UNL     1      48.224   2.540   7.196  0.00  0.00    +0.000 F 
ATOM     33  F   UNL     1      46.854   0.992   6.455  0.00  0.00    +0.000 F 
ATOM     34  F   UNL     1      47.596   2.546   5.106  0.00  0.00    +0.000 F 
ENDBRANCH  30  31
ENDBRANCH  27  30
ENDBRANCH  21  24
ENDBRANCH  20  21
ENDBRANCH  18  20
ENDBRANCH   6  18
TORSDOF 10
ENDMDL
MODEL 2
REMARK VINA RESULT:    -7.650      2.742      4.962
REMARK INTER + INTRA:         -13.485
REMARK INTER:                 -11.834
REMARK INTRA:                  -1.651
REMARK UNBOUND:                -1.362
REMARK  Name = 
REMARK  14 active torsions:
REMARK  status: ('A' for Active; 'I' for Inactive)
REMARK    1  A    between atoms: C_1  and  N_2
REMARK    2  A    between atoms: N_2  and  C_3
REMARK    3  A    between atoms: N_2  and  C_4
REMARK    4  A    between atoms: C_4  and  C_5
REMARK    5  A    between atoms: C_6  and  C_7
REMARK    6  A    between atoms: C_10  and  C_11
REMARK    7  A    between atoms: C_15  and  N_16
REMARK    8  A    between atoms: N_16  and  C_17
REMARK    9  A    between atoms: C_17  and  C_18
REMARK   10  A    between atoms: C_18  and  C_19
REMARK   11  A    between atoms: C_18  and  C_20
REMARK   12  A    between atoms: C_18  and  C_21
REMARK   13  A    between atoms: C_24  and  O_25
REMARK   14  A    between atoms: O_25  and  C_26
REMARK                            x       y       z     vdW  Elec       q    Type
REMARK                         _______ _______ _______ _____ _____    ______ ____
ROOT
ATOM      1  C   UNL     1      46.876   8.080  13.212  0.00  0.00    +0.000 A 
ATOM      2  C   UNL     1      46.945   9.392  12.736  0.00  0.00    +0.000 A 
ATOM      3  N   UNL     1      46.049   9.967  11.893  0.00  0.00    +0.000 NA
ATOM      4  C   UNL     1      45.006   9.178  11.527  0.00  0.00    +0.000 A 
ATOM      5  C   UNL     1      44.857   7.861  11.931  0.00  0.00    +0.000 A 
ATOM      6  C   UNL     1      45.824   7.261  12.749  0.00  0.00    +0.000 A 
ENDROOT
BRANCH   4   7
ATOM      7  C   UNL     1      43.954   9.777  10.643  0.00  0.00    +0.000 C 
ATOM      8  N   UNL     1      42.702   9.240  10.763  0.00  0.00    +0.000 N 
ATOM      9  O   UNL     1      44.187  10.686   9.855  0.00  0.00    +0.000 OA
ATOM     10  H   UNL     1      42.545   8.469  11.407  0.00  0.00    +0.000 HD
ATOM     11  H   UNL     1      41.962   9.575  10.169  0.00  0.00    +0.000 HD
ENDBRANCH   4   7
BRANCH   1  13
ATOM     12  C   UNL     1      48.803   7.209  14.963  0.00  0.00    +0.000 C 
ATOM     13  C   UNL     1      47.872   7.637  14.155  0.00  0.00    +0.000 C 
BRANCH  12  14
ATOM     14  C   UNL     1      49.887   6.712  15.904  0.00  0.00    +0.000 C 
BRANCH  14  16
ATOM     15  C   UNL     1      48.650   7.003  17.956  0.00  0.00    +0.000 C 
ATOM     16  N   UNL     1      49.266   6.035  17.056  0.00  0.00    +0.000 NA
ATOM     17  C   UNL     1      48.268   5.034  16.649  0.00  0.00    +0.000 C 
ENDBRANCH  14  16
ENDBRANCH  12  14
ENDBRANCH   1  13
BRANCH   6  18
ATOM     18  N   UNL     1      45.663   5.925  13.178  0.00  0.00    +0.000 N 
ATOM     19  H   UNL     1      46.524   5.388  13.110  0.00  0.00    +0.000 HD
BRANCH  18  20
ATOM     20  C   UNL     1      44.462   5.200  12.714  0.00  0.00    +0.000 C 
BRANCH  20  21
ATOM     21  C   UNL     1      44.736   3.765  12.156  0.00  0.00    +0.000 C 
ATOM     22  C   UNL     1      46.016   3.274  12.882  0.00  0.00    +0.000 C 
ATOM     23  C   UNL     1      43.567   2.842  12.567  0.00  0.00    +0.000 C 
BRANCH  21  24
ATOM     24  C   UNL     1      44.955   3.690  10.632  0.00  0.00    +0.000 A 
ATOM     25  C   UNL     1      44.777   2.506   9.903  0.00  0.00    +0.000 A 
ATOM     26  C   UNL     1      45.100   2.429   8.547  0.00  0.00    +0.000 A 
ATOM     27  C   UNL     1      45.575   3.542   7.858  0.00  0.00    +0.000 A 
ATOM     28  C   UNL     1      45.721   4.741   8.546  0.00  0.00    +0.000 A 
ATOM     29  C   UNL     1      45.397   4.816   9.911  0.00  0.00    +0.000 A 
BRANCH  27  30
ATOM     30  O   UNL     1      45.915   3.286   6.569  0.00  0.00    +0.000 OA
BRANCH  30  31
ATOM     31  C   UNL     1      47.069   2.524   6.262  0.00  0.00    +0.000 C 
ATOM     32  F   UNL     1      46.882   1.190   6.299  0.00  0.00    +0.000 F 
ATOM     33  F   UNL     1      47.521   2.868   5.037  0.00  0.00    +0.000 F 
ATOM     34  F   UNL     1      48.029   2.832   7.164  0.00  0.00    +0.000 F 
ENDBRANCH  30  31
ENDBRANCH  27  30
ENDBRANCH  21  24
ENDBRANCH  20  21
ENDBRANCH  18  20
ENDBRANCH   6  18
TORSDOF 10
ENDMDL
MODEL 3
REMARK VINA RESULT:    -7.642      1.992      4.836
REMARK INTER + INTRA:         -13.472
REMARK INTER:                 -11.965
REMARK INTRA:                  -1.506
REMARK UNBOUND:                -1.362
REMARK  Name = 
REMARK  14 active torsions:
REMARK  status: ('A' for Active; 'I' for Inactive)
REMARK    1  A    between atoms: C_1  and  N_2
REMARK    2  A    between atoms: N_2  and  C_3
REMARK    3  A    between atoms: N_2  and  C_4
REMARK    4  A    between atoms: C_4  and  C_5
REMARK    5  A    between atoms: C_6  and  C_7
REMARK    6  A    between atoms: C_10  and  C_11
REMARK    7  A    between atoms: C_15  and  N_16
REMARK    8  A    between atoms: N_16  and  C_17
REMARK    9  A    between atoms: C_17  and  C_18
REMARK   10  A    between atoms: C_18  and  C_19
REMARK   11  A    between atoms: C_18  and  C_20
REMARK   12  A    between atoms: C_18  and  C_21
REMARK   13  A    between atoms: C_24  and  O_25
REMARK   14  A    between atoms: O_25  and  C_26
REMARK                            x       y       z     vdW  Elec       q    Type
REMARK                         _______ _______ _______ _____ _____    ______ ____
ROOT
ATOM      1  C   UNL     1      47.837   6.029  14.425  0.00  0.00    +0.000 A 
ATOM      2  C   UNL     1      48.723   7.069  14.719  0.00  0.00    +0.000 A 
ATOM      3  N   UNL     1      48.959   8.144  13.924  0.00  0.00    +0.000 NA
ATOM      4  C   UNL     1      48.239   8.187  12.774  0.00  0.00    +0.000 A 
ATOM      5  C   UNL     1      47.349   7.198  12.385  0.00  0.00    +0.000 A 
ATOM      6  C   UNL     1      47.164   6.061  13.185  0.00  0.00    +0.000 A 
ENDROOT
BRANCH   4   7
ATOM      7  C   UNL     1      48.415   9.379  11.883  0.00  0.00    +0.000 C 
ATOM      8  N   UNL     1      49.674   9.565  11.382  0.00  0.00    +0.000 N 
ATOM      9  O   UNL     1      47.500  10.150  11.617  0.00  0.00    +0.000 OA
ATOM     10  H   UNL     1      50.418   8.922  11.641  0.00  0.00    +0.000 HD
ATOM     11  H   UNL     1      49.862  10.369  10.808  0.00  0.00    +0.000 HD
ENDBRANCH   4   7
BRANCH   1  13
ATOM     12  C   UNL     1      47.489   4.085  16.332  0.00  0.00    +0.000 C 
ATOM     13  C   UNL     1      47.648   4.988  15.404  0.00  0.00    +0.000 C 
BRANCH  12  14
ATOM     14  C   UNL     1      47.303   3.033  17.413  0.00  0.00    +0.000 C 
BRANCH  14  16
ATOM     15  C   UNL     1      49.687   2.672  17.500  0.00  0.00    +0.000 C 
ATOM     16  N   UNL     1      48.497   2.998  18.276  0.00  0.00    +0.000 NA
ATOM     17  C   UNL     1      48.706   4.262  18.997  0.00  0.00    +0.000 C 
ENDBRANCH  14  16
ENDBRANCH  12  14
ENDBRANCH   1  13
BRANCH   6  18
ATOM     18  N   UNL     1      46.242   5.064  12.799  0.00  0.00    +0.000 N 
ATOM     19  H   UNL     1      46.594   4.480  12.044  0.00  0.00    +0.000 HD
BRANCH  18  20
ATOM     20  C   UNL     1      44.829   5.465  12.641  0.00  0.00    +0.000 C 
BRANCH  20  21
ATOM     21  C   UNL     1      43.971   4.513  11.744  0.00  0.00    +0.000 C 
ATOM     22  C   UNL     1      43.729   3.242  12.600  0.00  0.00    +0.000 C 
ATOM     23  C   UNL     1      42.604   5.182  11.479  0.00  0.00    +0.000 C 
BRANCH  21  24
ATOM     24  C   UNL     1      44.629   4.110  10.410  0.00  0.00    +0.000 A 
ATOM     25  C   UNL     1      45.285   5.034   9.585  0.00  0.00    +0.000 A 
ATOM     26  C   UNL     1      45.766   4.674   8.324  0.00  0.00    +0.000 A 
ATOM     27  C   UNL     1      45.643   3.368   7.856  0.00  0.00    +0.000 A 
ATOM     28  C   UNL     1      45.033   2.421   8.670  0.00  0.00    +0.000 A 
ATOM     29  C   UNL     1      44.549   2.785   9.938  0.00  0.00    +0.000 A 
BRANCH  27  30
ATOM     30  O   UNL     1      46.088   3.196   6.584  0.00  0.00    +0.000 OA
BRANCH  30  31
ATOM     31  C   UNL     1      47.184   2.343   6.310  0.00  0.00    +0.000 C 
ATOM     32  F   UNL     1      46.910   1.028   6.421  0.00  0.00    +0.000 F 
ATOM     33  F   UNL     1      47.643   2.590   5.064  0.00  0.00    +0.000 F 
ATOM     34  F   UNL     1      48.174   2.635   7.185  0.00  0.00    +0.000 F 
ENDBRANCH  30  31
ENDBRANCH  27  30
ENDBRANCH  21  24
ENDBRANCH  20  21
ENDBRANCH  18  20
ENDBRANCH   6  18
TORSDOF 10
ENDMDL
MODEL 4
REMARK VINA RESULT:    -6.440      2.281      5.214
REMARK INTER + INTRA:         -11.568
REMARK INTER:                 -10.124
REMARK INTRA:                  -1.443
REMARK UNBOUND:                -1.362
REMARK  Name = 
REMARK  14 active torsions:
REMARK  status: ('A' for Active; 'I' for Inactive)
REMARK    1  A    between atoms: C_1  and  N_2
REMARK    2  A    between atoms: N_2  and  C_3
REMARK    3  A    between atoms: N_2  and  C_4
REMARK    4  A    between atoms: C_4  and  C_5
REMARK    5  A    between atoms: C_6  and  C_7
REMARK    6  A    between atoms: C_10  and  C_11
REMARK    7  A    between atoms: C_15  and  N_16
REMARK    8  A    between atoms: N_16  and  C_17
REMARK    9  A    between atoms: C_17  and  C_18
REMARK   10  A    between atoms: C_18  and  C_19
REMARK   11  A    between atoms: C_18  and  C_20
REMARK   12  A    between atoms: C_18  and  C_21
REMARK   13  A    between atoms: C_24  and  O_25
REMARK   14  A    between atoms: O_25  and  C_26
REMARK                            x       y       z     vdW  Elec       q    Type
REMARK                         _______ _______ _______ _____ _____    ______ ____
ROOT
ATOM      1  C   UNL     1      49.257   7.395  14.718  0.00  0.00    +0.000 A 
ATOM      2  C   UNL     1      50.387   8.192  14.512  0.00  0.00    +0.000 A 
ATOM      3  N   UNL     1      50.543   9.080  13.497  0.00  0.00    +0.000 NA
ATOM      4  C   UNL     1      49.486   9.190  12.652  0.00  0.00    +0.000 A 
ATOM      5  C   UNL     1      48.330   8.433  12.761  0.00  0.00    +0.000 A 
ATOM      6  C   UNL     1      48.209   7.474  13.776  0.00  0.00    +0.000 A 
ENDROOT
BRANCH   4   7
ATOM      7  C   UNL     1      49.577  10.196  11.545  0.00  0.00    +0.000 C 
ATOM      8  N   UNL     1      50.754  10.207  10.848  0.00  0.00    +0.000 N 
ATOM      9  O   UNL     1      48.666  10.970  11.274  0.00  0.00    +0.000 OA
ATOM     10  H   UNL     1      51.500   9.569  11.113  0.00  0.00    +0.000 HD
ATOM     11  H   UNL     1      50.889  10.885  10.118  0.00  0.00    +0.000 HD
ENDBRANCH   4   7
BRANCH   1  13
ATOM     12  C   UNL     1      49.230   5.751  16.916  0.00  0.00    +0.000 C 
ATOM     13  C   UNL     1      49.217   6.546  15.882  0.00  0.00    +0.000 C 
BRANCH  12  14
ATOM     14  C   UNL     1      49.246   4.826  18.122  0.00  0.00    +0.000 C 
BRANCH  14  16
ATOM     15  C   UNL     1      47.019   5.576  18.670  0.00  0.00    +0.000 C 
ATOM     16  N   UNL     1      47.868   4.413  18.443  0.00  0.00    +0.000 NA
ATOM     17  C   UNL     1      47.276   3.566  17.397  0.00  0.00    +0.000 C 
ENDBRANCH  14  16
ENDBRANCH  12  14
ENDBRANCH   1  13
BRANCH   6  18
ATOM     18  N   UNL     1      47.024   6.717  13.902  0.00  0.00    +0.000 N 
ATOM     19  H   UNL     1      46.783   6.528  14.872  0.00  0.00    +0.000 HD
BRANCH  18  20
ATOM     20  C   UNL     1      46.858   5.555  13.003  0.00  0.00    +0.000 C 
BRANCH  20  21
ATOM     21  C   UNL     1      45.413   5.365  12.435  0.00  0.00    +0.000 C 
ATOM     22  C   UNL     1      44.735   4.324  13.364  0.00  0.00    +0.000 C 
ATOM     23  C   UNL     1      44.648   6.700  12.569  0.00  0.00    +0.000 C 
BRANCH  21  24
ATOM     24  C   UNL     1      45.348   4.865  10.978  0.00  0.00    +0.000 A 
ATOM     25  C   UNL     1      44.826   3.609  10.636  0.00  0.00    +0.000 A 
ATOM     26  C   UNL     1      44.890   3.125   9.328  0.00  0.00    +0.000 A 
ATOM     27  C   UNL     1      45.441   3.893   8.305  0.00  0.00    +0.000 A 
ATOM     28  C   UNL     1      45.928   5.159   8.608  0.00  0.00    +0.000 A 
ATOM     29  C   UNL     1      45.865   5.644   9.925  0.00  0.00    +0.000 A 
BRANCH  27  30
ATOM     30  O   UNL     1      45.500   3.253   7.108  0.00  0.00    +0.000 OA
BRANCH  30  31
ATOM     31  C   UNL     1      46.671   2.561   6.714  0.00  0.00    +0.000 C 
ATOM     32  F   UNL     1      46.844   2.471   5.380  0.00  0.00    +0.000 F 
ATOM     33  F   UNL     1      47.752   3.165   7.255  0.00  0.00    +0.000 F 
ATOM     34  F   UNL     1      46.604   1.304   7.208  0.00  0.00    +0.000 F 
ENDBRANCH  30  31
ENDBRANCH  27  30
ENDBRANCH  21  24
ENDBRANCH  20  21
ENDBRANCH  18  20
ENDBRANCH   6  18
TORSDOF 10
ENDMDL
MODEL 5
REMARK VINA RESULT:    -6.391      4.878      8.969
REMARK INTER + INTRA:         -11.490
REMARK INTER:                  -9.084
REMARK INTRA:                  -2.406
REMARK UNBOUND:                -1.362
REMARK  Name = 
REMARK  14 active torsions:
REMARK  status: ('A' for Active; 'I' for Inactive)
REMARK    1  A    between atoms: C_1  and  N_2
REMARK    2  A    between atoms: N_2  and  C_3
REMARK    3  A    between atoms: N_2  and  C_4
REMARK    4  A    between atoms: C_4  and  C_5
REMARK    5  A    between atoms: C_6  and  C_7
REMARK    6  A    between atoms: C_10  and  C_11
REMARK    7  A    between atoms: C_15  and  N_16
REMARK    8  A    between atoms: N_16  and  C_17
REMARK    9  A    between atoms: C_17  and  C_18
REMARK   10  A    between atoms: C_18  and  C_19
REMARK   11  A    between atoms: C_18  and  C_20
REMARK   12  A    between atoms: C_18  and  C_21
REMARK   13  A    between atoms: C_24  and  O_25
REMARK   14  A    between atoms: O_25  and  C_26
REMARK                            x       y       z     vdW  Elec       q    Type
REMARK                         _______ _______ _______ _____ _____    ______ ____
ROOT
ATOM      1  C   UNL     1      46.182   4.563  13.264  0.00  0.00    +0.000 A 
ATOM      2  C   UNL     1      45.861   3.399  12.560  0.00  0.00    +0.000 A 
ATOM      3  N   UNL     1      45.477   3.354  11.259  0.00  0.00    +0.000 NA
ATOM      4  C   UNL     1      45.439   4.551  10.620  0.00  0.00    +0.000 A 
ATOM      5  C   UNL     1      45.723   5.761  11.234  0.00  0.00    +0.000 A 
ATOM      6  C   UNL     1      46.055   5.800  12.596  0.00  0.00    +0.000 A 
ENDROOT
BRANCH   4   7
ATOM      7  C   UNL     1      45.078   4.557   9.166  0.00  0.00    +0.000 C 
ATOM      8  N   UNL     1      43.766   4.298   8.879  0.00  0.00    +0.000 N 
ATOM      9  O   UNL     1      45.896   4.773   8.279  0.00  0.00    +0.000 OA
ATOM     10  H   UNL     1      43.117   4.097   9.635  0.00  0.00    +0.000 HD
ATOM     11  H   UNL     1      43.471   4.251   7.919  0.00  0.00    +0.000 HD
ENDBRANCH   4   7
BRANCH   1  13
ATOM     12  C   UNL     1      46.992   4.307  15.875  0.00  0.00    +0.000 C 
ATOM     13  C   UNL     1      46.636   4.440  14.627  0.00  0.00    +0.000 C 
BRANCH  12  14
ATOM     14  C   UNL     1      47.408   4.152  17.328  0.00  0.00    +0.000 C 
BRANCH  14  16
ATOM     15  C   UNL     1      49.377   4.130  18.724  0.00  0.00    +0.000 C 
ATOM     16  N   UNL     1      48.847   3.839  17.397  0.00  0.00    +0.000 NA
ATOM     17  C   UNL     1      49.136   2.441  17.045  0.00  0.00    +0.000 C 
ENDBRANCH  14  16
ENDBRANCH  12  14
ENDBRANCH   1  13
BRANCH   6  18
ATOM     18  N   UNL     1      46.365   7.029  13.217  0.00  0.00    +0.000 N 
ATOM     19  H   UNL     1      45.561   7.442  13.685  0.00  0.00    +0.000 HD
BRANCH  18  20
ATOM     20  C   UNL     1      47.176   7.996  12.449  0.00  0.00    +0.000 C 
BRANCH  20  21
ATOM     21  C   UNL     1      48.560   8.348  13.089  0.00  0.00    +0.000 C 
ATOM     22  C   UNL     1      49.564   7.327  12.494  0.00  0.00    +0.000 C 
ATOM     23  C   UNL     1      48.976   9.760  12.622  0.00  0.00    +0.000 C 
BRANCH  21  24
ATOM     24  C   UNL     1      48.604   8.267  14.627  0.00  0.00    +0.000 A 
ATOM     25  C   UNL     1      48.019   9.241  15.449  0.00  0.00    +0.000 A 
ATOM     26  C   UNL     1      48.176   9.215  16.837  0.00  0.00    +0.000 A 
ATOM     27  C   UNL     1      48.892   8.194  17.458  0.00  0.00    +0.000 A 
ATOM     28  C   UNL     1      49.447   7.193  16.671  0.00  0.00    +0.000 A 
ATOM     29  C   UNL     1      49.289   7.221  15.275  0.00  0.00    +0.000 A 
BRANCH  27  30
ATOM     30  O   UNL     1      49.020   8.353  18.801  0.00  0.00    +0.000 OA
BRANCH  30  31
ATOM     31  C   UNL     1      47.984   7.953  19.680  0.00  0.00    +0.000 C 
ATOM     32  F   UNL     1      48.410   7.503  20.876  0.00  0.00    +0.000 F 
ATOM     33  F   UNL     1      47.139   8.988  19.877  0.00  0.00    +0.000 F 
ATOM     34  F   UNL     1      47.290   6.955  19.086  0.00  0.00    +0.000 F 
ENDBRANCH  30  31
ENDBRANCH  27  30
ENDBRANCH  21  24
ENDBRANCH  20  21
ENDBRANCH  18  20
ENDBRANCH   6  18
TORSDOF 10
ENDMDL
MODEL 6
REMARK VINA RESULT:    -6.376      3.646      6.678
REMARK INTER + INTRA:         -11.466
REMARK INTER:                  -9.303
REMARK INTRA:                  -2.163
REMARK UNBOUND:                -1.362
REMARK  Name = 
REMARK  14 active torsions:
REMARK  status: ('A' for Active; 'I' for Inactive)
REMARK    1  A    between atoms: C_1  and  N_2
REMARK    2  A    between atoms: N_2  and  C_3
REMARK    3  A    between atoms: N_2  and  C_4
REMARK    4  A    between atoms: C_4  and  C_5
REMARK    5  A    between atoms: C_6  and  C_7
REMARK    6  A    between atoms: C_10  and  C_11
REMARK    7  A    between atoms: C_15  and  N_16
REMARK    8  A    between atoms: N_16  and  C_17
REMARK    9  A    between atoms: C_17  and  C_18
REMARK   10  A    between atoms: C_18  and  C_19
REMARK   11  A    between atoms: C_18  and  C_20
REMARK   12  A    between atoms: C_18  and  C_21
REMARK   13  A    between atoms: C_24  and  O_25
REMARK   14  A    between atoms: O_25  and  C_26
REMARK                            x       y       z     vdW  Elec       q    Type
REMARK                         _______ _______ _______ _____ _____    ______ ____
ROOT
ATOM      1  C   UNL     1      46.782   5.108  13.843  0.00  0.00    +0.000 A 
ATOM      2  C   UNL     1      46.822   3.720  13.693  0.00  0.00    +0.000 A 
ATOM      3  N   UNL     1      46.018   2.998  12.872  0.00  0.00    +0.000 NA
ATOM      4  C   UNL     1      45.135   3.722  12.137  0.00  0.00    +0.000 A 
ATOM      5  C   UNL     1      45.005   5.099  12.226  0.00  0.00    +0.000 A 
ATOM      6  C   UNL     1      45.798   5.825  13.126  0.00  0.00    +0.000 A 
ENDROOT
BRANCH   4   7
ATOM      7  C   UNL     1      44.259   2.984  11.170  0.00  0.00    +0.000 C 
ATOM      8  N   UNL     1      44.893   2.456  10.079  0.00  0.00    +0.000 N 
ATOM      9  O   UNL     1      43.051   2.858  11.331  0.00  0.00    +0.000 OA
ATOM     10  H   UNL     1      45.893   2.599   9.961  0.00  0.00    +0.000 HD
ATOM     11  H   UNL     1      44.353   1.982   9.376  0.00  0.00    +0.000 HD
ENDBRANCH   4   7
BRANCH   1  13
ATOM     12  C   UNL     1      48.603   6.269  15.536  0.00  0.00    +0.000 C 
ATOM     13  C   UNL     1      47.748   5.736  14.709  0.00  0.00    +0.000 C 
BRANCH  12  14
ATOM     14  C   UNL     1      49.601   6.890  16.500  0.00  0.00    +0.000 C 
BRANCH  14  16
ATOM     15  C   UNL     1      48.368   5.866  18.305  0.00  0.00    +0.000 C 
ATOM     16  N   UNL     1      49.688   6.064  17.718  0.00  0.00    +0.000 NA
ATOM     17  C   UNL     1      50.319   4.760  17.469  0.00  0.00    +0.000 C 
ENDBRANCH  14  16
ENDBRANCH  12  14
ENDBRANCH   1  13
BRANCH   6  18
ATOM     18  N   UNL     1      45.682   7.230  13.203  0.00  0.00    +0.000 N 
ATOM     19  H   UNL     1      44.773   7.526  13.551  0.00  0.00    +0.000 HD
BRANCH  18  20
ATOM     20  C   UNL     1      46.174   8.018  12.054  0.00  0.00    +0.000 C 
BRANCH  20  21
ATOM     21  C   UNL     1      47.218   9.126  12.416  0.00  0.00    +0.000 C 
ATOM     22  C   UNL     1      46.644  10.444  11.831  0.00  0.00    +0.000 C 
ATOM     23  C   UNL     1      47.277   9.267  13.953  0.00  0.00    +0.000 C 
BRANCH  21  24
ATOM     24  C   UNL     1      48.634   8.893  11.853  0.00  0.00    +0.000 A 
ATOM     25  C   UNL     1      49.194   7.614  11.728  0.00  0.00    +0.000 A 
ATOM     26  C   UNL     1      50.521   7.434  11.333  0.00  0.00    +0.000 A 
ATOM     27  C   UNL     1      51.327   8.523  11.010  0.00  0.00    +0.000 A 
ATOM     28  C   UNL     1      50.785   9.800  11.084  0.00  0.00    +0.000 A 
ATOM     29  C   UNL     1      49.450   9.980  11.483  0.00  0.00    +0.000 A 
BRANCH  27  30
ATOM     30  O   UNL     1      52.611   8.188  10.721  0.00  0.00    +0.000 OA
BRANCH  30  31
ATOM     31  C   UNL     1      53.040   8.058   9.378  0.00  0.00    +0.000 C 
ATOM     32  F   UNL     1      52.563   9.004   8.545  0.00  0.00    +0.000 F 
ATOM     33  F   UNL     1      54.391   8.078   9.335  0.00  0.00    +0.000 F 
ATOM     34  F   UNL     1      52.626   6.855   8.918  0.00  0.00    +0.000 F 
ENDBRANCH  30  31
ENDBRANCH  27  30
ENDBRANCH  21  24
ENDBRANCH  20  21
ENDBRANCH  18  20
ENDBRANCH   6  18
TORSDOF 10
ENDMDL
MODEL 7
REMARK VINA RESULT:    -6.352      3.383      5.067
REMARK INTER + INTRA:         -11.428
REMARK INTER:                  -9.798
REMARK INTRA:                  -1.630
REMARK UNBOUND:                -1.362
REMARK  Name = 
REMARK  14 active torsions:
REMARK  status: ('A' for Active; 'I' for Inactive)
REMARK    1  A    between atoms: C_1  and  N_2
REMARK    2  A    between atoms: N_2  and  C_3
REMARK    3  A    between atoms: N_2  and  C_4
REMARK    4  A    between atoms: C_4  and  C_5
REMARK    5  A    between atoms: C_6  and  C_7
REMARK    6  A    between atoms: C_10  and  C_11
REMARK    7  A    between atoms: C_15  and  N_16
REMARK    8  A    between atoms: N_16  and  C_17
REMARK    9  A    between atoms: C_17  and  C_18
REMARK   10  A    between atoms: C_18  and  C_19
REMARK   11  A    between atoms: C_18  and  C_20
REMARK   12  A    between atoms: C_18  and  C_21
REMARK   13  A    between atoms: C_24  and  O_25
REMARK   14  A    between atoms: O_25  and  C_26
REMARK                            x       y       z     vdW  Elec       q    Type
REMARK                         _______ _______ _______ _____ _____    ______ ____
ROOT
ATOM      1  C   UNL     1      51.000   6.547  16.283  0.00  0.00    +0.000 A 
ATOM      2  C   UNL     1      50.958   5.562  17.273  0.00  0.00    +0.000 A 
ATOM      3  N   UNL     1      49.836   4.929  17.700  0.00  0.00    +0.000 NA
ATOM      4  C   UNL     1      48.688   5.293  17.073  0.00  0.00    +0.000 A 
ATOM      5  C   UNL     1      48.622   6.270  16.093  0.00  0.00    +0.000 A 
ATOM      6  C   UNL     1      49.779   6.962  15.707  0.00  0.00    +0.000 A 
ENDROOT
BRANCH   4   7
ATOM      7  C   UNL     1      47.424   4.586  17.462  0.00  0.00    +0.000 C 
ATOM      8  N   UNL     1      46.720   5.152  18.489  0.00  0.00    +0.000 N 
ATOM      9  O   UNL     1      47.038   3.564  16.908  0.00  0.00    +0.000 OA
ATOM     10  H   UNL     1      47.080   5.986  18.946  0.00  0.00    +0.000 HD
ATOM     11  H   UNL     1      45.884   4.702  18.820  0.00  0.00    +0.000 HD
ENDBRANCH   4   7
BRANCH   1  13
ATOM     12  C   UNL     1      53.465   7.507  15.549  0.00  0.00    +0.000 C 
ATOM     13  C   UNL     1      52.282   7.080  15.895  0.00  0.00    +0.000 C 
BRANCH  12  14
ATOM     14  C   UNL     1      54.843   8.005  15.146  0.00  0.00    +0.000 C 
BRANCH  14  16
ATOM     15  C   UNL     1      55.300   5.983  13.911  0.00  0.00    +0.000 C 
ATOM     16  N   UNL     1      55.208   7.436  13.836  0.00  0.00    +0.000 NA
ATOM     17  C   UNL     1      54.265   7.818  12.775  0.00  0.00    +0.000 C 
ENDBRANCH  14  16
ENDBRANCH  12  14
ENDBRANCH   1  13
BRANCH   6  18
ATOM     18  N   UNL     1      49.717   7.943  14.694  0.00  0.00    +0.000 N 
ATOM     19  H   UNL     1      50.396   8.688  14.832  0.00  0.00    +0.000 HD
BRANCH  18  20
ATOM     20  C   UNL     1      48.378   8.416  14.283  0.00  0.00    +0.000 C 
BRANCH  20  21
ATOM     21  C   UNL     1      47.875   7.855  12.913  0.00  0.00    +0.000 C 
ATOM     22  C   UNL     1      47.248   9.066  12.174  0.00  0.00    +0.000 C 
ATOM     23  C   UNL     1      49.095   7.373  12.097  0.00  0.00    +0.000 C 
BRANCH  21  24
ATOM     24  C   UNL     1      46.831   6.726  13.016  0.00  0.00    +0.000 A 
ATOM     25  C   UNL     1      47.183   5.397  13.291  0.00  0.00    +0.000 A 
ATOM     26  C   UNL     1      46.238   4.370  13.258  0.00  0.00    +0.000 A 
ATOM     27  C   UNL     1      44.898   4.637  12.988  0.00  0.00    +0.000 A 
ATOM     28  C   UNL     1      44.513   5.951  12.754  0.00  0.00    +0.000 A 
ATOM     29  C   UNL     1      45.465   6.984  12.786  0.00  0.00    +0.000 A 
BRANCH  27  30
ATOM     30  O   UNL     1      44.121   3.525  12.915  0.00  0.00    +0.000 OA
BRANCH  30  31
ATOM     31  C   UNL     1      43.541   3.127  11.687  0.00  0.00    +0.000 C 
ATOM     32  F   UNL     1      42.984   1.900  11.704  0.00  0.00    +0.000 F 
ATOM     33  F   UNL     1      42.603   4.028  11.321  0.00  0.00    +0.000 F 
ATOM     34  F   UNL     1      44.510   3.127  10.743  0.00  0.00    +0.000 F 
ENDBRANCH  30  31
ENDBRANCH  27  30
ENDBRANCH  21  24
ENDBRANCH  20  21
ENDBRANCH  18  20
ENDBRANCH   6  18
TORSDOF 10
ENDMDL
MODEL 8
REMARK VINA RESULT:    -6.235      4.944      8.315
REMARK INTER + INTRA:         -11.241
REMARK INTER:                  -9.195
REMARK INTRA:                  -2.047
REMARK UNBOUND:                -1.362
REMARK  Name = 
REMARK  14 active torsions:
REMARK  status: ('A' for Active; 'I' for Inactive)
REMARK    1  A    between atoms: C_1  and  N_2
REMARK    2  A    between atoms: N_2  and  C_3
REMARK    3  A    between atoms: N_2  and  C_4
REMARK    4  A    between atoms: C_4  and  C_5
REMARK    5  A    between atoms: C_6  and  C_7
REMARK    6  A    between atoms: C_10  and  C_11
REMARK    7  A    between atoms: C_15  and  N_16
REMARK    8  A    between atoms: N_16  and  C_17
REMARK    9  A    between atoms: C_17  and  C_18
REMARK   10  A    between atoms: C_18  and  C_19
REMARK   11  A    between atoms: C_18  and  C_20
REMARK   12  A    between atoms: C_18  and  C_21
REMARK   13  A    between atoms: C_24  and  O_25
REMARK   14  A    between atoms: O_25  and  C_26
REMARK                            x       y       z     vdW  Elec       q    Type
REMARK                         _______ _______ _______ _____ _____    ______ ____
ROOT
ATOM      1  C   UNL     1      46.766   6.114  12.998  0.00  0.00    +0.000 A 
ATOM      2  C   UNL     1      46.275   6.168  11.691  0.00  0.00    +0.000 A 
ATOM      3  N   UNL     1      45.437   5.257  11.132  0.00  0.00    +0.000 NA
ATOM      4  C   UNL     1      45.049   4.244  11.949  0.00  0.00    +0.000 A 
ATOM      5  C   UNL     1      45.493   4.094  13.253  0.00  0.00    +0.000 A 
ATOM      6  C   UNL     1      46.410   5.006  13.796  0.00  0.00    +0.000 A 
ENDROOT
BRANCH   4   7
ATOM      7  C   UNL     1      44.078   3.240  11.406  0.00  0.00    +0.000 C 
ATOM      8  N   UNL     1      43.714   2.241  12.266  0.00  0.00    +0.000 N 
ATOM      9  O   UNL     1      43.635   3.296  10.265  0.00  0.00    +0.000 OA
ATOM     10  H   UNL     1      44.119   2.208  13.198  0.00  0.00    +0.000 HD
ATOM     11  H   UNL     1      43.095   1.517  11.946  0.00  0.00    +0.000 HD
ENDBRANCH   4   7
BRANCH   1  13
ATOM     12  C   UNL     1      48.378   8.133  13.926  0.00  0.00    +0.000 C 
ATOM     13  C   UNL     1      47.599   7.194  13.465  0.00  0.00    +0.000 C 
BRANCH  12  14
ATOM     14  C   UNL     1      49.287   9.227  14.461  0.00  0.00    +0.000 C 
BRANCH  14  16
ATOM     15  C   UNL     1      51.391   8.052  14.583  0.00  0.00    +0.000 C 
ATOM     16  N   UNL     1      50.633   9.078  13.878  0.00  0.00    +0.000 NA
ATOM     17  C   UNL     1      50.592   8.766  12.442  0.00  0.00    +0.000 C 
ENDBRANCH  14  16
ENDBRANCH  12  14
ENDBRANCH   1  13
BRANCH   6  18
ATOM     18  N   UNL     1      46.847   4.865  15.131  0.00  0.00    +0.000 N 
ATOM     19  H   UNL     1      47.290   5.709  15.486  0.00  0.00    +0.000 HD
BRANCH  18  20
ATOM     20  C   UNL     1      47.552   3.618  15.491  0.00  0.00    +0.000 C 
BRANCH  20  21
ATOM     21  C   UNL     1      48.122   3.580  16.947  0.00  0.00    +0.000 C 
ATOM     22  C   UNL     1      47.071   2.804  17.784  0.00  0.00    +0.000 C 
ATOM     23  C   UNL     1      49.433   2.764  16.944  0.00  0.00    +0.000 C 
BRANCH  21  24
ATOM     24  C   UNL     1      48.362   4.962  17.587  0.00  0.00    +0.000 A 
ATOM     25  C   UNL     1      47.521   5.490  18.576  0.00  0.00    +0.000 A 
ATOM     26  C   UNL     1      47.684   6.792  19.054  0.00  0.00    +0.000 A 
ATOM     27  C   UNL     1      48.717   7.602  18.589  0.00  0.00    +0.000 A 
ATOM     28  C   UNL     1      49.591   7.089  17.639  0.00  0.00    +0.000 A 
ATOM     29  C   UNL     1      49.426   5.779  17.158  0.00  0.00    +0.000 A 
BRANCH  27  30
ATOM     30  O   UNL     1      48.694   8.863  19.092  0.00  0.00    +0.000 OA
BRANCH  30  31
ATOM     31  C   UNL     1      47.842   9.849  18.536  0.00  0.00    +0.000 C 
ATOM     32  F   UNL     1      47.477   9.615  17.260  0.00  0.00    +0.000 F 
ATOM     33  F   UNL     1      46.731   9.961  19.295  0.00  0.00    +0.000 F 
ATOM     34  F   UNL     1      48.493  11.034  18.570  0.00  0.00    +0.000 F 
ENDBRANCH  30  31
ENDBRANCH  27  30
ENDBRANCH  21  24
ENDBRANCH  20  21
ENDBRANCH  18  20
ENDBRANCH   6  18
TORSDOF 10
ENDMDL
MODEL 9
REMARK VINA RESULT:    -6.200      4.789      8.173
REMARK INTER + INTRA:         -11.186
REMARK INTER:                  -9.699
REMARK INTRA:                  -1.487
REMARK UNBOUND:                -1.362
REMARK  Name = 
REMARK  14 active torsions:
REMARK  status: ('A' for Active; 'I' for Inactive)
REMARK    1  A    between atoms: C_1  and  N_2
REMARK    2  A    between atoms: N_2  and  C_3
REMARK    3  A    between atoms: N_2  and  C_4
REMARK    4  A    between atoms: C_4  and  C_5
REMARK    5  A    between atoms: C_6  and  C_7
REMARK    6  A    between atoms: C_10  and  C_11
REMARK    7  A    between atoms: C_15  and  N_16
REMARK    8  A    between atoms: N_16  and  C_17
REMARK    9  A    between atoms: C_17  and  C_18
REMARK   10  A    between atoms: C_18  and  C_19
REMARK   11  A    between atoms: C_18  and  C_20
REMARK   12  A    between atoms: C_18  and  C_21
REMARK   13  A    between atoms: C_24  and  O_25
REMARK   14  A    between atoms: O_25  and  C_26
REMARK                            x       y       z     vdW  Elec       q    Type
REMARK                         _______ _______ _______ _____ _____    ______ ____
ROOT
ATOM      1  C   UNL     1      47.041   5.925  13.258  0.00  0.00    +0.000 A 
ATOM      2  C   UNL     1      46.762   6.295  11.940  0.00  0.00    +0.000 A 
ATOM      3  N   UNL     1      45.789   5.751  11.164  0.00  0.00    +0.000 NA
ATOM      4  C   UNL     1      45.035   4.793  11.762  0.00  0.00    +0.000 A 
ATOM      5  C   UNL     1      45.243   4.346  13.057  0.00  0.00    +0.000 A 
ATOM      6  C   UNL     1      46.293   4.870  13.825  0.00  0.00    +0.000 A 
ENDROOT
BRANCH   4   7
ATOM      7  C   UNL     1      43.908   4.197  10.974  0.00  0.00    +0.000 C 
ATOM      8  N   UNL     1      43.040   3.411  11.680  0.00  0.00    +0.000 N 
ATOM      9  O   UNL     1      43.764   4.389   9.772  0.00  0.00    +0.000 OA
ATOM     10  H   UNL     1      43.201   3.250  12.671  0.00  0.00    +0.000 HD
ATOM     11  H   UNL     1      42.286   2.953  11.198  0.00  0.00    +0.000 HD
ENDBRANCH   4   7
BRANCH   1  13
ATOM     12  C   UNL     1      49.020   7.307  14.566  0.00  0.00    +0.000 C 
ATOM     13  C   UNL     1      48.067   6.644  13.972  0.00  0.00    +0.000 C 
BRANCH  12  14
ATOM     14  C   UNL     1      50.130   8.080  15.258  0.00  0.00    +0.000 C 
BRANCH  14  16
ATOM     15  C   UNL     1      51.450   9.451  13.774  0.00  0.00    +0.000 C 
ATOM     16  N   UNL     1      51.314   8.133  14.381  0.00  0.00    +0.000 NA
ATOM     17  C   UNL     1      52.554   7.784  15.090  0.00  0.00    +0.000 C 
ENDBRANCH  14  16
ENDBRANCH  12  14
ENDBRANCH   1  13
BRANCH   6  18
ATOM     18  N   UNL     1      46.493   4.430  15.151  0.00  0.00    +0.000 N 
ATOM     19  H   UNL     1      46.272   5.149  15.837  0.00  0.00    +0.000 HD
BRANCH  18  20
ATOM     20  C   UNL     1      47.733   3.682  15.442  0.00  0.00    +0.000 C 
BRANCH  20  21
ATOM     21  C   UNL     1      48.166   3.685  16.944  0.00  0.00    +0.000 C 
ATOM     22  C   UNL     1      48.014   5.154  17.418  0.00  0.00    +0.000 C 
ATOM     23  C   UNL     1      47.174   2.815  17.747  0.00  0.00    +0.000 C 
BRANCH  21  24
ATOM     24  C   UNL     1      49.610   3.213  17.206  0.00  0.00    +0.000 A 
ATOM     25  C   UNL     1      50.019   1.888  16.998  0.00  0.00    +0.000 A 
ATOM     26  C   UNL     1      51.297   1.454  17.358  0.00  0.00    +0.000 A 
ATOM     27  C   UNL     1      52.227   2.336  17.902  0.00  0.00    +0.000 A 
ATOM     28  C   UNL     1      51.863   3.665  18.080  0.00  0.00    +0.000 A 
ATOM     29  C   UNL     1      50.577   4.100  17.719  0.00  0.00    +0.000 A 
BRANCH  27  30
ATOM     30  O   UNL     1      53.393   1.745  18.270  0.00  0.00    +0.000 OA
BRANCH  30  31
ATOM     31  C   UNL     1      54.423   1.525  17.323  0.00  0.00    +0.000 C 
ATOM     32  F   UNL     1      54.122   0.619  16.371  0.00  0.00    +0.000 F 
ATOM     33  F   UNL     1      54.744   2.695  16.728  0.00  0.00    +0.000 F 
ATOM     34  F   UNL     1      55.516   1.080  17.986  0.00  0.00    +0.000 F 
ENDBRANCH  30  31
ENDBRANCH  27  30
ENDBRANCH  21  24
ENDBRANCH  20  21
ENDBRANCH  18  20
ENDBRANCH   6  18
TORSDOF 10
ENDMDL
