MODEL 1
REMARK VINA RESULT:    -8.337      0.000      0.000
REMARK INTER + INTRA:         -12.807
REMARK INTER:                 -11.749
REMARK INTRA:                  -1.058
REMARK UNBOUND:                -1.058
REMARK  Name = 
REMARK  7 active torsions:
REMARK  status: ('A' for Active; 'I' for Inactive)
REMARK    1  A    between atoms: C_2  and  C_3
REMARK    2  A    between atoms: C_6  and  N_7
REMARK    3  A    between atoms: N_7  and  C_8
REMARK    4  A    between atoms: C_8  and  C_9
REMARK    5  A    between atoms: C_9  and  C_12
REMARK    6  A    between atoms: C_16  and  O_17
REMARK    7  A    between atoms: O_17  and  C_18
REMARK                            x       y       z     vdW  Elec       q    Type
REMARK                         _______ _______ _______ _____ _____    ______ ____
ROOT
ATOM      1  C   UNL     1      43.995   4.793  12.392  0.00  0.00    +0.000 C 
ATOM      2  F   UNL     1      43.098   5.414  13.217  0.00  0.00    +0.000 F 
ATOM      3  F   UNL     1      43.888   3.460  12.690  0.00  0.00    +0.000 F 
ENDROOT
BRANCH   1   4
ATOM      4  C   UNL     1      45.403   5.315  12.607  0.00  0.00    +0.000 A 
ATOM      5  C   UNL     1      45.999   6.166  11.668  0.00  0.00    +0.000 A 
ATOM      6  C   UNL     1      47.272   6.695  11.900  0.00  0.00    +0.000 A 
ATOM      7  C   UNL     1      47.974   6.373  13.068  0.00  0.00    +0.000 A 
ATOM      8  C   UNL     1      47.406   5.502  13.994  0.00  0.00    +0.000 A 
ATOM      9  C   UNL     1      46.128   4.980  13.763  0.00  0.00    +0.000 A 
BRANCH   8  10
ATOM     10  O   UNL     1      47.967   5.127  15.188  0.00  0.00    +0.000 OA
BRANCH  10  11
ATOM     11  C   UNL     1      47.280   4.193  16.050  0.00  0.00    +0.000 C 
ATOM     12  C   UNL     1      47.236   4.487  17.556  0.00  0.00    +0.000 C 
ATOM     13  O   UNL     1      47.818   3.201  17.878  0.00  0.00    +0.000 OA
ATOM     14  C   UNL     1      48.121   2.977  16.481  0.00  0.00    +0.000 C 
ENDBRANCH  10  11
ENDBRANCH   8  10
ENDBRANCH   1   4
BRANCH   1  15
ATOM     15  C   UNL     1      43.534   4.990  10.926  0.00  0.00    +0.000 C 
BRANCH  15  16
ATOM     16  N   UNL     1      43.509   3.736  10.152  0.00  0.00    +0.000 N 
ATOM     17  H   UNL     1      43.024   2.961  10.609  0.00  0.00    +0.000 HD
BRANCH  16  21
ATOM     18  C   UNL     1      46.579   2.468   7.560  0.00  0.00    +0.000 A 
ATOM     19  C   UNL     1      46.282   3.830   7.664  0.00  0.00    +0.000 A 
ATOM     20  C   UNL     1      45.283   4.262   8.538  0.00  0.00    +0.000 A 
ATOM     21  C   UNL     1      44.580   3.362   9.349  0.00  0.00    +0.000 A 
ATOM     22  C   UNL     1      44.887   1.998   9.225  0.00  0.00    +0.000 A 
ATOM     23  C   UNL     1      45.877   1.552   8.342  0.00  0.00    +0.000 A 
BRANCH  18  25
ATOM     24  N   UNL     1      48.400   1.668   5.902  0.00  0.00    +0.000 NA
ATOM     25  C   UNL     1      47.584   2.025   6.649  0.00  0.00    +0.000 C 
ENDBRANCH  18  25
ENDBRANCH  16  21
ENDBRANCH  15  16
ENDBRANCH   1  15
TORSDOF 7
ENDMDL
MODEL 2
REMARK VINA RESULT:    -7.499      2.638      4.191
REMARK INTER + INTRA:         -11.625
REMARK INTER:                 -10.969
REMARK INTRA:                  -0.656
REMARK UNBOUND:                -1.058
REMARK  Name = 
REMARK  7 active torsions:
REMARK  status: ('A' for Active; 'I' for Inactive)
REMARK    1  A    between atoms: C_2  and  C_3
REMARK    2  A    between atoms: C_6  and  N_7
REMARK    3  A    between atoms: N_7  and  C_8
REMARK    4  A    between atoms: C_8  and  C_9
REMARK    5  A    between atoms: C_9  and  C_12
REMARK    6  A    between atoms: C_16  and  O_17
REMARK    7  A    between atoms: O_17  and  C_18
REMARK                            x       y       z     vdW  Elec       q    Type
REMARK                         _______ _______ _______ _____ _____    ______ ____
ROOT
ATOM      1  C   UNL     1      43.297   5.005  12.432  0.00  0.00    +0.000 C 
ATOM      2  F   UNL     1      42.431   5.855  11.799  0.00  0.00    +0.000 F 
ATOM      3  F   UNL     1      42.670   4.669  13.603  0.00  0.00    +0.000 F 
ENDROOT
BRANCH   1   4
ATOM      4  C   UNL     1      44.643   5.661  12.674  0.00  0.00    +0.000 A 
ATOM      5  C   UNL     1      45.681   4.949  13.289  0.00  0.00    +0.000 A 
ATOM      6  C   UNL     1      46.940   5.534  13.454  0.00  0.00    +0.000 A 
ATOM      7  C   UNL     1      47.179   6.843  13.016  0.00  0.00    +0.000 A 
ATOM      8  C   UNL     1      46.146   7.572  12.432  0.00  0.00    +0.000 A 
ATOM      9  C   UNL     1      44.888   6.980  12.262  0.00  0.00    +0.000 A 
BRANCH   8  10
ATOM     10  O   UNL     1      46.248   8.846  11.933  0.00  0.00    +0.000 OA
BRANCH  10  11
ATOM     11  C   UNL     1      45.155   9.776  12.093  0.00  0.00    +0.000 C 
ATOM     12  C   UNL     1      44.155   9.933  10.939  0.00  0.00    +0.000 C 
ATOM     13  O   UNL     1      44.376  11.362  10.871  0.00  0.00    +0.000 OA
ATOM     14  C   UNL     1      45.504  11.241  11.768  0.00  0.00    +0.000 C 
ENDBRANCH  10  11
ENDBRANCH   8  10
ENDBRANCH   1   4
BRANCH   1  15
ATOM     15  C   UNL     1      43.434   3.718  11.581  0.00  0.00    +0.000 C 
BRANCH  15  16
ATOM     16  N   UNL     1      43.499   3.984  10.132  0.00  0.00    +0.000 N 
ATOM     17  H   UNL     1      42.595   3.975   9.656  0.00  0.00    +0.000 HD
BRANCH  16  21
ATOM     18  C   UNL     1      46.563   2.499   7.650  0.00  0.00    +0.000 A 
ATOM     19  C   UNL     1      46.304   3.873   7.683  0.00  0.00    +0.000 A 
ATOM     20  C   UNL     1      45.308   4.377   8.519  0.00  0.00    +0.000 A 
ATOM     21  C   UNL     1      44.568   3.539   9.364  0.00  0.00    +0.000 A 
ATOM     22  C   UNL     1      44.836   2.163   9.313  0.00  0.00    +0.000 A 
ATOM     23  C   UNL     1      45.824   1.644   8.468  0.00  0.00    +0.000 A 
BRANCH  18  25
ATOM     24  N   UNL     1      48.379   1.563   6.060  0.00  0.00    +0.000 NA
ATOM     25  C   UNL     1      47.566   1.982   6.777  0.00  0.00    +0.000 C 
ENDBRANCH  18  25
ENDBRANCH  16  21
ENDBRANCH  15  16
ENDBRANCH   1  15
TORSDOF 7
ENDMDL
MODEL 3
REMARK VINA RESULT:    -7.474      1.366      1.940
REMARK INTER + INTRA:         -11.590
REMARK INTER:                 -10.925
REMARK INTRA:                  -0.665
REMARK UNBOUND:                -1.058
REMARK  Name = 
REMARK  7 active torsions:
REMARK  status: ('A' for Active; 'I' for Inactive)
REMARK    1  A    between atoms: C_2  and  C_3
REMARK    2  A    between atoms: C_6  and  N_7
REMARK    3  A    between atoms: N_7  and  C_8
REMARK    4  A    between atoms: C_8  and  C_9
REMARK    5  A    between atoms: C_9  and  C_12
REMARK    6  A    between atoms: C_16  and  O_17
REMARK    7  A    between atoms: O_17  and  C_18
REMARK                            x       y       z     vdW  Elec       q    Type
REMARK                         _______ _______ _______ _____ _____    ______ ____
ROOT
ATOM      1  C   UNL     1      44.326   4.678  12.246  0.00  0.00    +0.000 C 
ATOM      2  F   UNL     1      43.366   5.150  13.098  0.00  0.00    +0.000 F 
ATOM      3  F   UNL     1      44.408   3.336  12.512  0.00  0.00    +0.000 F 
ENDROOT
BRANCH   1   4
ATOM      4  C   UNL     1      45.653   5.384  12.457  0.00  0.00    +0.000 A 
ATOM      5  C   UNL     1      46.133   6.295  11.508  0.00  0.00    +0.000 A 
ATOM      6  C   UNL     1      47.324   6.991  11.735  0.00  0.00    +0.000 A 
ATOM      7  C   UNL     1      48.060   6.779  12.907  0.00  0.00    +0.000 A 
ATOM      8  C   UNL     1      47.610   5.851  13.843  0.00  0.00    +0.000 A 
ATOM      9  C   UNL     1      46.412   5.161  13.617  0.00  0.00    +0.000 A 
BRANCH   8  10
ATOM     10  O   UNL     1      48.212   5.567  15.043  0.00  0.00    +0.000 OA
BRANCH  10  11
ATOM     11  C   UNL     1      48.841   6.620  15.805  0.00  0.00    +0.000 C 
ATOM     12  C   UNL     1      50.237   7.096  15.378  0.00  0.00    +0.000 C 
ATOM     13  O   UNL     1      50.784   6.840  16.694  0.00  0.00    +0.000 OA
ATOM     14  C   UNL     1      49.573   6.146  17.075  0.00  0.00    +0.000 C 
ENDBRANCH  10  11
ENDBRANCH   8  10
ENDBRANCH   1   4
BRANCH   1  15
ATOM     15  C   UNL     1      43.819   4.844  10.792  0.00  0.00    +0.000 C 
BRANCH  15  16
ATOM     16  N   UNL     1      43.648   3.560  10.087  0.00  0.00    +0.000 N 
ATOM     17  H   UNL     1      43.227   2.817  10.647  0.00  0.00    +0.000 HD
BRANCH  16  21
ATOM     18  C   UNL     1      46.635   2.402   7.350  0.00  0.00    +0.000 A 
ATOM     19  C   UNL     1      46.061   1.445   8.193  0.00  0.00    +0.000 A 
ATOM     20  C   UNL     1      45.055   1.814   9.085  0.00  0.00    +0.000 A 
ATOM     21  C   UNL     1      44.572   3.128   9.142  0.00  0.00    +0.000 A 
ATOM     22  C   UNL     1      45.164   4.076   8.295  0.00  0.00    +0.000 A 
ATOM     23  C   UNL     1      46.184   3.720   7.404  0.00  0.00    +0.000 A 
BRANCH  18  25
ATOM     24  N   UNL     1      48.528   1.718   5.721  0.00  0.00    +0.000 NA
ATOM     25  C   UNL     1      47.680   2.028   6.454  0.00  0.00    +0.000 C 
ENDBRANCH  18  25
ENDBRANCH  16  21
ENDBRANCH  15  16
ENDBRANCH   1  15
TORSDOF 7
ENDMDL
MODEL 4
REMARK VINA RESULT:    -7.404      2.212      3.612
REMARK INTER + INTRA:         -11.492
REMARK INTER:                 -10.625
REMARK INTRA:                  -0.867
REMARK UNBOUND:                -1.058
REMARK  Name = 
REMARK  7 active torsions:
REMARK  status: ('A' for Active; 'I' for Inactive)
REMARK    1  A    between atoms: C_2  and  C_3
REMARK    2  A    between atoms: C_6  and  N_7
REMARK    3  A    between atoms: N_7  and  C_8
REMARK    4  A    between atoms: C_8  and  C_9
REMARK    5  A    between atoms: C_9  and  C_12
REMARK    6  A    between atoms: C_16  and  O_17
REMARK    7  A    between atoms: O_17  and  C_18
REMARK                            x       y       z     vdW  Elec       q    Type
REMARK                         _______ _______ _______ _____ _____    ______ ____
ROOT
ATOM      1  C   UNL     1      43.503   4.793  12.535  0.00  0.00    +0.000 C 
ATOM      2  F   UNL     1      42.769   5.837  12.043  0.00  0.00    +0.000 F 
ATOM      3  F   UNL     1      42.836   4.392  13.664  0.00  0.00    +0.000 F 
ENDROOT
BRANCH   1   4
ATOM      4  C   UNL     1      44.931   5.208  12.833  0.00  0.00    +0.000 A 
ATOM      5  C   UNL     1      45.712   4.474  13.734  0.00  0.00    +0.000 A 
ATOM      6  C   UNL     1      47.047   4.821  13.959  0.00  0.00    +0.000 A 
ATOM      7  C   UNL     1      47.620   5.914  13.296  0.00  0.00    +0.000 A 
ATOM      8  C   UNL     1      46.844   6.671  12.422  0.00  0.00    +0.000 A 
ATOM      9  C   UNL     1      45.509   6.316  12.193  0.00  0.00    +0.000 A 
BRANCH   8  10
ATOM     10  O   UNL     1      47.282   7.743  11.687  0.00  0.00    +0.000 OA
BRANCH  10  11
ATOM     11  C   UNL     1      47.956   8.842  12.338  0.00  0.00    +0.000 C 
ATOM     12  C   UNL     1      47.281  10.221  12.328  0.00  0.00    +0.000 C 
ATOM     13  O   UNL     1      48.443  10.844  11.729  0.00  0.00    +0.000 OA
ATOM     14  C   UNL     1      49.024   9.543  11.477  0.00  0.00    +0.000 C 
ENDBRANCH  10  11
ENDBRANCH   8  10
ENDBRANCH   1   4
BRANCH   1  15
ATOM     15  C   UNL     1      43.449   3.629  11.514  0.00  0.00    +0.000 C 
BRANCH  15  16
ATOM     16  N   UNL     1      43.616   4.073  10.118  0.00  0.00    +0.000 N 
ATOM     17  H   UNL     1      42.743   4.239   9.615  0.00  0.00    +0.000 HD
BRANCH  16  21
ATOM     18  C   UNL     1      46.604   2.522   7.585  0.00  0.00    +0.000 A 
ATOM     19  C   UNL     1      46.384   3.903   7.629  0.00  0.00    +0.000 A 
ATOM     20  C   UNL     1      45.414   4.428   8.483  0.00  0.00    +0.000 A 
ATOM     21  C   UNL     1      44.663   3.605   9.332  0.00  0.00    +0.000 A 
ATOM     22  C   UNL     1      44.892   2.222   9.268  0.00  0.00    +0.000 A 
ATOM     23  C   UNL     1      45.854   1.682   8.407  0.00  0.00    +0.000 A 
BRANCH  18  25
ATOM     24  N   UNL     1      48.378   1.542   5.973  0.00  0.00    +0.000 NA
ATOM     25  C   UNL     1      47.581   1.984   6.694  0.00  0.00    +0.000 C 
ENDBRANCH  18  25
ENDBRANCH  16  21
ENDBRANCH  15  16
ENDBRANCH   1  15
TORSDOF 7
ENDMDL
MODEL 5
REMARK VINA RESULT:    -6.961      3.838      5.457
REMARK INTER + INTRA:         -10.867
REMARK INTER:                 -10.066
REMARK INTRA:                  -0.802
REMARK UNBOUND:                -1.058
REMARK  Name = 
REMARK  7 active torsions:
REMARK  status: ('A' for Active; 'I' for Inactive)
REMARK    1  A    between atoms: C_2  and  C_3
REMARK    2  A    between atoms: C_6  and  N_7
REMARK    3  A    between atoms: N_7  and  C_8
REMARK    4  A    between atoms: C_8  and  C_9
REMARK    5  A    between atoms: C_9  and  C_12
REMARK    6  A    between atoms: C_16  and  O_17
REMARK    7  A    between atoms: O_17  and  C_18
REMARK                            x       y       z     vdW  Elec       q    Type
REMARK                         _______ _______ _______ _____ _____    ______ ____
ROOT
ATOM      1  C   UNL     1      44.470   5.657  12.016  0.00  0.00    +0.000 C 
ATOM      2  F   UNL     1      43.759   5.289  13.125  0.00  0.00    +0.000 F 
ATOM      3  F   UNL     1      45.608   4.894  12.055  0.00  0.00    +0.000 F 
ENDROOT
BRANCH   1   4
ATOM      4  C   UNL     1      44.778   7.142  12.019  0.00  0.00    +0.000 A 
ATOM      5  C   UNL     1      45.726   7.670  12.905  0.00  0.00    +0.000 A 
ATOM      6  C   UNL     1      46.054   9.029  12.862  0.00  0.00    +0.000 A 
ATOM      7  C   UNL     1      45.432   9.882  11.942  0.00  0.00    +0.000 A 
ATOM      8  C   UNL     1      44.464   9.375  11.079  0.00  0.00    +0.000 A 
ATOM      9  C   UNL     1      44.143   8.013  11.119  0.00  0.00    +0.000 A 
BRANCH   8  10
ATOM     10  O   UNL     1      43.801  10.088  10.113  0.00  0.00    +0.000 OA
BRANCH  10  11
ATOM     11  C   UNL     1      42.969  11.210  10.483  0.00  0.00    +0.000 C 
ATOM     12  C   UNL     1      41.989  11.038  11.652  0.00  0.00    +0.000 C 
ATOM     13  O   UNL     1      40.862  11.432  10.835  0.00  0.00    +0.000 OA
ATOM     14  C   UNL     1      41.684  11.362   9.646  0.00  0.00    +0.000 C 
ENDBRANCH  10  11
ENDBRANCH   8  10
ENDBRANCH   1   4
BRANCH   1  15
ATOM     15  C   UNL     1      43.666   5.245  10.757  0.00  0.00    +0.000 C 
BRANCH  15  16
ATOM     16  N   UNL     1      43.763   3.806  10.451  0.00  0.00    +0.000 N 
ATOM     17  H   UNL     1      43.670   3.190  11.260  0.00  0.00    +0.000 HD
BRANCH  16  21
ATOM     18  C   UNL     1      46.532   2.506   7.553  0.00  0.00    +0.000 A 
ATOM     19  C   UNL     1      45.881   1.566   8.358  0.00  0.00    +0.000 A 
ATOM     20  C   UNL     1      44.944   1.984   9.303  0.00  0.00    +0.000 A 
ATOM     21  C   UNL     1      44.608   3.337   9.452  0.00  0.00    +0.000 A 
ATOM     22  C   UNL     1      45.277   4.266   8.642  0.00  0.00    +0.000 A 
ATOM     23  C   UNL     1      46.228   3.859   7.699  0.00  0.00    +0.000 A 
BRANCH  18  25
ATOM     24  N   UNL     1      48.305   1.732   5.832  0.00  0.00    +0.000 NA
ATOM     25  C   UNL     1      47.506   2.078   6.603  0.00  0.00    +0.000 C 
ENDBRANCH  18  25
ENDBRANCH  16  21
ENDBRANCH  15  16
ENDBRANCH   1  15
TORSDOF 7
ENDMDL
MODEL 6
REMARK VINA RESULT:    -6.824      2.448      2.994
REMARK INTER + INTRA:         -10.674
REMARK INTER:                  -9.958
REMARK INTRA:                  -0.716
REMARK UNBOUND:                -1.058
REMARK  Name = 
REMARK  7 active torsions:
REMARK  status: ('A' for Active; 'I' for Inactive)
REMARK    1  A    between atoms: C_2  and  C_3
REMARK    2  A    between atoms: C_6  and  N_7
REMARK    3  A    between atoms: N_7  and  C_8
REMARK    4  A    between atoms: C_8  and  C_9
REMARK    5  A    between atoms: C_9  and  C_12
REMARK    6  A    between atoms: C_16  and  O_17
REMARK    7  A    between atoms: O_17  and  C_18
REMARK                            x       y       z     vdW  Elec       q    Type
REMARK                         _______ _______ _______ _____ _____    ______ ____
ROOT
ATOM      1  C   UNL     1      44.752   4.001  12.463  0.00  0.00    +0.000 C 
ATOM      2  F   UNL     1      44.294   3.884  13.746  0.00  0.00    +0.000 F 
ATOM      3  F   UNL     1      45.876   3.218  12.416  0.00  0.00    +0.000 F 
ENDROOT
BRANCH   1   4
ATOM      4  C   UNL     1      45.048   5.445  12.106  0.00  0.00    +0.000 A 
ATOM      5  C   UNL     1      44.004   6.341  11.842  0.00  0.00    +0.000 A 
ATOM      6  C   UNL     1      44.277   7.686  11.575  0.00  0.00    +0.000 A 
ATOM      7  C   UNL     1      45.596   8.154  11.556  0.00  0.00    +0.000 A 
ATOM      8  C   UNL     1      46.645   7.266  11.784  0.00  0.00    +0.000 A 
ATOM      9  C   UNL     1      46.368   5.921  12.059  0.00  0.00    +0.000 A 
BRANCH   8  10
ATOM     10  O   UNL     1      47.976   7.593  11.825  0.00  0.00    +0.000 OA
BRANCH  10  11
ATOM     11  C   UNL     1      48.814   7.090  12.888  0.00  0.00    +0.000 C 
ATOM     12  C   UNL     1      48.662   7.702  14.288  0.00  0.00    +0.000 C 
ATOM     13  O   UNL     1      50.069   8.038  14.351  0.00  0.00    +0.000 OA
ATOM     14  C   UNL     1      50.221   7.715  12.949  0.00  0.00    +0.000 C 
ENDBRANCH  10  11
ENDBRANCH   8  10
ENDBRANCH   1   4
BRANCH   1  15
ATOM     15  C   UNL     1      43.702   3.382  11.507  0.00  0.00    +0.000 C 
BRANCH  15  16
ATOM     16  N   UNL     1      43.766   3.929  10.140  0.00  0.00    +0.000 N 
ATOM     17  H   UNL     1      42.870   4.240   9.762  0.00  0.00    +0.000 HD
BRANCH  16  21
ATOM     18  C   UNL     1      46.650   2.515   7.413  0.00  0.00    +0.000 A 
ATOM     19  C   UNL     1      45.991   1.611   8.253  0.00  0.00    +0.000 A 
ATOM     20  C   UNL     1      45.017   2.066   9.142  0.00  0.00    +0.000 A 
ATOM     21  C   UNL     1      44.652   3.418   9.199  0.00  0.00    +0.000 A 
ATOM     22  C   UNL     1      45.330   4.311   8.355  0.00  0.00    +0.000 A 
ATOM     23  C   UNL     1      46.318   3.868   7.468  0.00  0.00    +0.000 A 
BRANCH  18  25
ATOM     24  N   UNL     1      48.487   1.667   5.797  0.00  0.00    +0.000 NA
ATOM     25  C   UNL     1      47.663   2.051   6.521  0.00  0.00    +0.000 C 
ENDBRANCH  18  25
ENDBRANCH  16  21
ENDBRANCH  15  16
ENDBRANCH   1  15
TORSDOF 7
ENDMDL
MODEL 7
REMARK VINA RESULT:    -6.618      3.988      7.905
REMARK INTER + INTRA:         -10.384
REMARK INTER:                  -9.974
REMARK INTRA:                  -0.410
REMARK UNBOUND:                -1.058
REMARK  Name = 
REMARK  7 active torsions:
REMARK  status: ('A' for Active; 'I' for Inactive)
REMARK    1  A    between atoms: C_2  and  C_3
REMARK    2  A    between atoms: C_6  and  N_7
REMARK    3  A    between atoms: N_7  and  C_8
REMARK    4  A    between atoms: C_8  and  C_9
REMARK    5  A    between atoms: C_9  and  C_12
REMARK    6  A    between atoms: C_16  and  O_17
REMARK    7  A    between atoms: O_17  and  C_18
REMARK                            x       y       z     vdW  Elec       q    Type
REMARK                         _______ _______ _______ _____ _____    ______ ____
ROOT
ATOM      1  C   UNL     1      45.553   6.169  11.256  0.00  0.00    +0.000 C 
ATOM      2  F   UNL     1      44.711   7.202  10.947  0.00  0.00    +0.000 F 
ATOM      3  F   UNL     1      46.808   6.636  10.968  0.00  0.00    +0.000 F 
ENDROOT
BRANCH   1   4
ATOM      4  C   UNL     1      45.214   4.919  10.466  0.00  0.00    +0.000 A 
ATOM      5  C   UNL     1      44.412   3.917  11.028  0.00  0.00    +0.000 A 
ATOM      6  C   UNL     1      44.050   2.796  10.275  0.00  0.00    +0.000 A 
ATOM      7  C   UNL     1      44.493   2.652   8.955  0.00  0.00    +0.000 A 
ATOM      8  C   UNL     1      45.318   3.625   8.396  0.00  0.00    +0.000 A 
ATOM      9  C   UNL     1      45.672   4.751   9.150  0.00  0.00    +0.000 A 
BRANCH   8  10
ATOM     10  O   UNL     1      45.797   3.627   7.111  0.00  0.00    +0.000 OA
BRANCH  10  11
ATOM     11  C   UNL     1      47.159   3.225   6.844  0.00  0.00    +0.000 C 
ATOM     12  C   UNL     1      47.513   2.737   5.433  0.00  0.00    +0.000 C 
ATOM     13  O   UNL     1      48.034   1.485   5.939  0.00  0.00    +0.000 OA
ATOM     14  C   UNL     1      47.494   1.777   7.249  0.00  0.00    +0.000 C 
ENDBRANCH  10  11
ENDBRANCH   8  10
ENDBRANCH   1   4
BRANCH   1  15
ATOM     15  C   UNL     1      45.479   5.915  12.782  0.00  0.00    +0.000 C 
BRANCH  15  16
ATOM     16  N   UNL     1      46.449   4.907  13.251  0.00  0.00    +0.000 N 
ATOM     17  H   UNL     1      46.144   3.939  13.143  0.00  0.00    +0.000 HD
BRANCH  16  21
ATOM     18  C   UNL     1      48.765   5.855  16.640  0.00  0.00    +0.000 A 
ATOM     19  C   UNL     1      47.972   4.703  16.645  0.00  0.00    +0.000 A 
ATOM     20  C   UNL     1      47.221   4.368  15.519  0.00  0.00    +0.000 A 
ATOM     21  C   UNL     1      47.260   5.145  14.354  0.00  0.00    +0.000 A 
ATOM     22  C   UNL     1      48.055   6.301  14.370  0.00  0.00    +0.000 A 
ATOM     23  C   UNL     1      48.803   6.655  15.499  0.00  0.00    +0.000 A 
BRANCH  18  25
ATOM     24  N   UNL     1      50.123   6.493  18.751  0.00  0.00    +0.000 NA
ATOM     25  C   UNL     1      49.515   6.209  17.801  0.00  0.00    +0.000 C 
ENDBRANCH  18  25
ENDBRANCH  16  21
ENDBRANCH  15  16
ENDBRANCH   1  15
TORSDOF 7
ENDMDL
MODEL 8
REMARK VINA RESULT:    -5.858      4.026      8.111
REMARK INTER + INTRA:          -9.313
REMARK INTER:                  -8.796
REMARK INTRA:                  -0.516
REMARK UNBOUND:                -1.058
REMARK  Name = 
REMARK  7 active torsions:
REMARK  status: ('A' for Active; 'I' for Inactive)
REMARK    1  A    between atoms: C_2  and  C_3
REMARK    2  A    between atoms: C_6  and  N_7
REMARK    3  A    between atoms: N_7  and  C_8
REMARK    4  A    between atoms: C_8  and  C_9
REMARK    5  A    between atoms: C_9  and  C_12
REMARK    6  A    between atoms: C_16  and  O_17
REMARK    7  A    between atoms: O_17  and  C_18
REMARK                            x       y       z     vdW  Elec       q    Type
REMARK                         _______ _______ _______ _____ _____    ______ ____
ROOT
ATOM      1  C   UNL     1      46.749   5.442  13.169  0.00  0.00    +0.000 C 
ATOM      2  F   UNL     1      46.537   6.435  14.085  0.00  0.00    +0.000 F 
ATOM      3  F   UNL     1      47.810   5.874  12.417  0.00  0.00    +0.000 F 
ENDROOT
BRANCH   1   4
ATOM      4  C   UNL     1      45.515   5.191  12.324  0.00  0.00    +0.000 A 
ATOM      5  C   UNL     1      44.536   6.183  12.181  0.00  0.00    +0.000 A 
ATOM      6  C   UNL     1      43.432   5.972  11.350  0.00  0.00    +0.000 A 
ATOM      7  C   UNL     1      43.281   4.763  10.659  0.00  0.00    +0.000 A 
ATOM      8  C   UNL     1      44.231   3.757  10.818  0.00  0.00    +0.000 A 
ATOM      9  C   UNL     1      45.340   3.974  11.645  0.00  0.00    +0.000 A 
BRANCH   8  10
ATOM     10  O   UNL     1      44.224   2.542  10.182  0.00  0.00    +0.000 OA
BRANCH  10  11
ATOM     11  C   UNL     1      44.614   2.449   8.794  0.00  0.00    +0.000 C 
ATOM     12  C   UNL     1      45.825   1.576   8.434  0.00  0.00    +0.000 C 
ATOM     13  O   UNL     1      46.488   2.677   7.769  0.00  0.00    +0.000 OA
ATOM     14  C   UNL     1      45.508   3.601   8.297  0.00  0.00    +0.000 C 
ENDBRANCH  10  11
ENDBRANCH   8  10
ENDBRANCH   1   4
BRANCH   1  15
ATOM     15  C   UNL     1      47.191   4.163  13.924  0.00  0.00    +0.000 C 
BRANCH  15  16
ATOM     16  N   UNL     1      46.705   4.112  15.314  0.00  0.00    +0.000 N 
ATOM     17  H   UNL     1      45.793   4.546  15.464  0.00  0.00    +0.000 HD
BRANCH  16  21
ATOM     18  C   UNL     1      49.217   4.615  18.660  0.00  0.00    +0.000 A 
ATOM     19  C   UNL     1      48.444   3.455  18.544  0.00  0.00    +0.000 A 
ATOM     20  C   UNL     1      47.628   3.268  17.428  0.00  0.00    +0.000 A 
ATOM     21  C   UNL     1      47.581   4.207  16.389  0.00  0.00    +0.000 A 
ATOM     22  C   UNL     1      48.357   5.368  16.526  0.00  0.00    +0.000 A 
ATOM     23  C   UNL     1      49.170   5.572  17.647  0.00  0.00    +0.000 A 
BRANCH  18  25
ATOM     24  N   UNL     1      50.694   4.976  20.755  0.00  0.00    +0.000 NA
ATOM     25  C   UNL     1      50.034   4.815  19.812  0.00  0.00    +0.000 C 
ENDBRANCH  18  25
ENDBRANCH  16  21
ENDBRANCH  15  16
ENDBRANCH   1  15
TORSDOF 7
ENDMDL
MODEL 9
REMARK VINA RESULT:    -5.679      2.935      4.539
REMARK INTER + INTRA:          -9.061
REMARK INTER:                  -7.953
REMARK INTRA:                  -1.108
REMARK UNBOUND:                -1.058
REMARK  Name = 
REMARK  7 active torsions:
REMARK  status: ('A' for Active; 'I' for Inactive)
REMARK    1  A    between atoms: C_2  and  C_3
REMARK    2  A    between atoms: C_6  and  N_7
REMARK    3  A    between atoms: N_7  and  C_8
REMARK    4  A    between atoms: C_8  and  C_9
REMARK    5  A    between atoms: C_9  and  C_12
REMARK    6  A    between atoms: C_16  and  O_17
REMARK    7  A    between atoms: O_17  and  C_18
REMARK                            x       y       z     vdW  Elec       q    Type
REMARK                         _______ _______ _______ _____ _____    ______ ____
ROOT
ATOM      1  C   UNL     1      48.302   8.206  12.947  0.00  0.00    +0.000 C 
ATOM      2  F   UNL     1      48.617   7.117  12.183  0.00  0.00    +0.000 F 
ATOM      3  F   UNL     1      49.074   9.223  12.450  0.00  0.00    +0.000 F 
ENDROOT
BRANCH   1   4
ATOM      4  C   UNL     1      48.572   7.952  14.418  0.00  0.00    +0.000 A 
ATOM      5  C   UNL     1      48.429   8.982  15.356  0.00  0.00    +0.000 A 
ATOM      6  C   UNL     1      48.617   8.729  16.718  0.00  0.00    +0.000 A 
ATOM      7  C   UNL     1      48.963   7.446  17.163  0.00  0.00    +0.000 A 
ATOM      8  C   UNL     1      49.140   6.422  16.237  0.00  0.00    +0.000 A 
ATOM      9  C   UNL     1      48.943   6.676  14.874  0.00  0.00    +0.000 A 
BRANCH   8  10
ATOM     10  O   UNL     1      49.447   5.118  16.534  0.00  0.00    +0.000 OA
BRANCH  10  11
ATOM     11  C   UNL     1      48.609   4.364  17.436  0.00  0.00    +0.000 C 
ATOM     12  C   UNL     1      48.560   2.837  17.282  0.00  0.00    +0.000 C 
ATOM     13  O   UNL     1      47.119   2.844  17.144  0.00  0.00    +0.000 OA
ATOM     14  C   UNL     1      47.127   4.286  17.025  0.00  0.00    +0.000 C 
ENDBRANCH  10  11
ENDBRANCH   8  10
ENDBRANCH   1   4
BRANCH   1  15
ATOM     15  C   UNL     1      46.817   8.570  12.696  0.00  0.00    +0.000 C 
BRANCH  15  16
ATOM     16  N   UNL     1      45.874   7.596  13.274  0.00  0.00    +0.000 N 
ATOM     17  H   UNL     1      45.946   7.481  14.287  0.00  0.00    +0.000 HD
BRANCH  16  21
ATOM     18  C   UNL     1      44.970   4.162  11.006  0.00  0.00    +0.000 A 
ATOM     19  C   UNL     1      45.342   4.026  12.348  0.00  0.00    +0.000 A 
ATOM     20  C   UNL     1      45.620   5.159  13.113  0.00  0.00    +0.000 A 
ATOM     21  C   UNL     1      45.506   6.450  12.580  0.00  0.00    +0.000 A 
ATOM     22  C   UNL     1      45.138   6.566  11.231  0.00  0.00    +0.000 A 
ATOM     23  C   UNL     1      44.870   5.437  10.450  0.00  0.00    +0.000 A 
BRANCH  18  25
ATOM     24  N   UNL     1      44.499   2.053   9.580  0.00  0.00    +0.000 NA
ATOM     25  C   UNL     1      44.709   3.002  10.218  0.00  0.00    +0.000 C 
ENDBRANCH  18  25
ENDBRANCH  16  21
ENDBRANCH  15  16
ENDBRANCH   1  15
TORSDOF 7
ENDMDL
