MODEL 1
REMARK VINA RESULT:    -7.577      0.000      0.000
REMARK INTER + INTRA:          -9.753
REMARK INTER:                  -9.349
REMARK INTRA:                  -0.405
REMARK UNBOUND:                -0.405
REMARK  Name = 
REMARK  4 active torsions:
REMARK  status: ('A' for Active; 'I' for Inactive)
REMARK    1  A    between atoms: C_2  and  C_4
REMARK    2  A    between atoms: C_7  and  N_8
REMARK    3  A    between atoms: N_8  and  C_9
REMARK    4  A    between atoms: C_9  and  C_10
REMARK                            x       y       z     vdW  Elec       q    Type
REMARK                         _______ _______ _______ _____ _____    ______ ____
ROOT
ATOM      1  C   UNL     1      46.373   2.322   7.805  0.00  0.00    +0.000 A 
ATOM      2  C   UNL     1      46.379   3.681   7.551  0.00  0.00    +0.000 A 
ATOM      3  N   UNL     1      45.528   4.539   8.173  0.00  0.00    +0.000 NA
ATOM      4  C   UNL     1      44.692   4.012   9.095  0.00  0.00    +0.000 A 
ATOM      5  C   UNL     1      44.688   2.627   9.313  0.00  0.00    +0.000 A 
ATOM      6  N   UNL     1      45.513   1.748   8.691  0.00  0.00    +0.000 NA
ENDROOT
BRANCH   1   8
ATOM      7  N   UNL     1      48.409   2.022   6.541  0.00  0.00    +0.000 N 
ATOM      8  C   UNL     1      47.306   1.416   7.082  0.00  0.00    +0.000 C 
ATOM      9  O   UNL     1      47.113   0.215   6.987  0.00  0.00    +0.000 OA
ATOM     10  H   UNL     1      49.109   1.459   6.080  0.00  0.00    +0.000 HD
ATOM     11  H   UNL     1      48.558   3.016   6.679  0.00  0.00    +0.000 HD
ENDBRANCH   1   8
BRANCH   4  12
ATOM     12  N   UNL     1      43.828   4.903   9.714  0.00  0.00    +0.000 N 
ATOM     13  H   UNL     1      42.934   4.889   9.227  0.00  0.00    +0.000 HD
BRANCH  12  14
ATOM     14  C   UNL     1      43.660   4.791  11.155  0.00  0.00    +0.000 C 
BRANCH  14  15
ATOM     15  C   UNL     1      44.934   5.186  11.856  0.00  0.00    +0.000 A 
ATOM     16  C   UNL     1      45.505   6.450  11.658  0.00  0.00    +0.000 A 
ATOM     17  C   UNL     1      46.649   6.825  12.367  0.00  0.00    +0.000 A 
ATOM     18  C   UNL     1      47.230   5.944  13.278  0.00  0.00    +0.000 A 
ATOM     19  C   UNL     1      46.674   4.683  13.480  0.00  0.00    +0.000 A 
ATOM     20  C   UNL     1      45.532   4.306  12.774  0.00  0.00    +0.000 A 
ENDBRANCH  14  15
ENDBRANCH  12  14
ENDBRANCH   4  12
TORSDOF 4
ENDMDL
MODEL 2
REMARK VINA RESULT:    -7.530      3.170      5.952
REMARK INTER + INTRA:          -9.696
REMARK INTER:                  -9.396
REMARK INTRA:                  -0.300
REMARK UNBOUND:                -0.405
REMARK  Name = 
REMARK  4 active torsions:
REMARK  status: ('A' for Active; 'I' for Inactive)
REMARK    1  A    between atoms: C_2  and  C_4
REMARK    2  A    between atoms: C_7  and  N_8
REMARK    3  A    between atoms: N_8  and  C_9
REMARK    4  A    between atoms: C_9  and  C_10
REMARK                            x       y       z     vdW  Elec       q    Type
REMARK                         _______ _______ _______ _____ _____    ______ ____
ROOT
ATOM      1  C   UNL     1      46.558   4.490  13.701  0.00  0.00    +0.000 A 
ATOM      2  C   UNL     1      46.680   5.671  12.991  0.00  0.00    +0.000 A 
ATOM      3  N   UNL     1      46.075   5.859  11.789  0.00  0.00    +0.000 NA
ATOM      4  C   UNL     1      45.303   4.852  11.327  0.00  0.00    +0.000 A 
ATOM      5  C   UNL     1      45.218   3.656  12.054  0.00  0.00    +0.000 A 
ATOM      6  N   UNL     1      45.828   3.436  13.245  0.00  0.00    +0.000 NA
ENDROOT
BRANCH   1   8
ATOM      7  N   UNL     1      47.508   5.476  15.691  0.00  0.00    +0.000 N 
ATOM      8  C   UNL     1      47.258   4.319  15.003  0.00  0.00    +0.000 C 
ATOM      9  O   UNL     1      47.577   3.224  15.437  0.00  0.00    +0.000 OA
ATOM     10  H   UNL     1      47.936   5.428  16.605  0.00  0.00    +0.000 HD
ATOM     11  H   UNL     1      47.189   6.365  15.319  0.00  0.00    +0.000 HD
ENDBRANCH   1   8
BRANCH   4  12
ATOM     12  N   UNL     1      44.699   5.062  10.096  0.00  0.00    +0.000 N 
ATOM     13  H   UNL     1      45.334   5.594   9.503  0.00  0.00    +0.000 HD
BRANCH  12  14
ATOM     14  C   UNL     1      44.155   3.905   9.402  0.00  0.00    +0.000 C 
BRANCH  14  15
ATOM     15  C   UNL     1      45.241   3.221   8.611  0.00  0.00    +0.000 A 
ATOM     16  C   UNL     1      45.490   1.850   8.762  0.00  0.00    +0.000 A 
ATOM     17  C   UNL     1      46.454   1.218   7.973  0.00  0.00    +0.000 A 
ATOM     18  C   UNL     1      47.174   1.946   7.027  0.00  0.00    +0.000 A 
ATOM     19  C   UNL     1      46.939   3.310   6.871  0.00  0.00    +0.000 A 
ATOM     20  C   UNL     1      45.977   3.944   7.657  0.00  0.00    +0.000 A 
ENDBRANCH  14  15
ENDBRANCH  12  14
ENDBRANCH   4  12
TORSDOF 4
ENDMDL
MODEL 3
REMARK VINA RESULT:    -7.235      3.273      6.044
REMARK INTER + INTRA:          -9.332
REMARK INTER:                  -8.994
REMARK INTRA:                  -0.337
REMARK UNBOUND:                -0.405
REMARK  Name = 
REMARK  4 active torsions:
REMARK  status: ('A' for Active; 'I' for Inactive)
REMARK    1  A    between atoms: C_2  and  C_4
REMARK    2  A    between atoms: C_7  and  N_8
REMARK    3  A    between atoms: N_8  and  C_9
REMARK    4  A    between atoms: C_9  and  C_10
REMARK                            x       y       z     vdW  Elec       q    Type
REMARK                         _______ _______ _______ _____ _____    ______ ____
ROOT
ATOM      1  C   UNL     1      46.843   5.397  13.290  0.00  0.00    +0.000 A 
ATOM      2  C   UNL     1      46.744   4.061  13.635  0.00  0.00    +0.000 A 
ATOM      3  N   UNL     1      45.985   3.184  12.927  0.00  0.00    +0.000 NA
ATOM      4  C   UNL     1      45.357   3.663  11.831  0.00  0.00    +0.000 A 
ATOM      5  C   UNL     1      45.453   5.026  11.519  0.00  0.00    +0.000 A 
ATOM      6  N   UNL     1      46.186   5.925  12.221  0.00  0.00    +0.000 NA
ENDROOT
BRANCH   1   8
ATOM      7  N   UNL     1      47.320   7.650  14.020  0.00  0.00    +0.000 N 
ATOM      8  C   UNL     1      47.666   6.328  14.109  0.00  0.00    +0.000 C 
ATOM      9  O   UNL     1      48.577   5.942  14.823  0.00  0.00    +0.000 OA
ATOM     10  H   UNL     1      47.805   8.329  14.587  0.00  0.00    +0.000 HD
ATOM     11  H   UNL     1      46.527   7.927  13.449  0.00  0.00    +0.000 HD
ENDBRANCH   1   8
BRANCH   4  12
ATOM     12  N   UNL     1      44.584   2.752  11.125  0.00  0.00    +0.000 N 
ATOM     13  H   UNL     1      43.820   2.437  11.720  0.00  0.00    +0.000 HD
BRANCH  12  14
ATOM     14  C   UNL     1      44.115   3.143   9.804  0.00  0.00    +0.000 C 
BRANCH  14  15
ATOM     15  C   UNL     1      45.161   2.819   8.769  0.00  0.00    +0.000 A 
ATOM     16  C   UNL     1      45.701   3.819   7.950  0.00  0.00    +0.000 A 
ATOM     17  C   UNL     1      46.718   3.515   7.042  0.00  0.00    +0.000 A 
ATOM     18  C   UNL     1      47.204   2.212   6.945  0.00  0.00    +0.000 A 
ATOM     19  C   UNL     1      46.673   1.207   7.751  0.00  0.00    +0.000 A 
ATOM     20  C   UNL     1      45.657   1.509   8.659  0.00  0.00    +0.000 A 
ENDBRANCH  14  15
ENDBRANCH  12  14
ENDBRANCH   4  12
TORSDOF 4
ENDMDL
MODEL 4
REMARK VINA RESULT:    -7.075      3.171      6.307
REMARK INTER + INTRA:          -9.134
REMARK INTER:                  -8.884
REMARK INTRA:                  -0.251
REMARK UNBOUND:                -0.405
REMARK  Name = 
REMARK  4 active torsions:
REMARK  status: ('A' for Active; 'I' for Inactive)
REMARK    1  A    between atoms: C_2  and  C_4
REMARK    2  A    between atoms: C_7  and  N_8
REMARK    3  A    between atoms: N_8  and  C_9
REMARK    4  A    between atoms: C_9  and  C_10
REMARK                            x       y       z     vdW  Elec       q    Type
REMARK                         _______ _______ _______ _____ _____    ______ ____
ROOT
ATOM      1  C   UNL     1      45.607   6.622  12.430  0.00  0.00    +0.000 A 
ATOM      2  C   UNL     1      45.125   6.433  11.147  0.00  0.00    +0.000 A 
ATOM      3  N   UNL     1      44.926   5.196  10.623  0.00  0.00    +0.000 NA
ATOM      4  C   UNL     1      45.178   4.140  11.428  0.00  0.00    +0.000 A 
ATOM      5  C   UNL     1      45.690   4.360  12.714  0.00  0.00    +0.000 A 
ATOM      6  N   UNL     1      45.917   5.583  13.253  0.00  0.00    +0.000 NA
ENDROOT
BRANCH   1   8
ATOM      7  N   UNL     1      44.845   8.901  12.674  0.00  0.00    +0.000 N 
ATOM      8  C   UNL     1      45.833   7.996  12.955  0.00  0.00    +0.000 C 
ATOM      9  O   UNL     1      46.823   8.295  13.603  0.00  0.00    +0.000 OA
ATOM     10  H   UNL     1      44.911   9.839  13.042  0.00  0.00    +0.000 HD
ATOM     11  H   UNL     1      44.015   8.604  12.170  0.00  0.00    +0.000 HD
ENDBRANCH   1   8
BRANCH   4  12
ATOM     12  N   UNL     1      44.972   2.887  10.871  0.00  0.00    +0.000 N 
ATOM     13  H   UNL     1      44.471   2.306  11.542  0.00  0.00    +0.000 HD
BRANCH  12  14
ATOM     14  C   UNL     1      44.371   2.824   9.548  0.00  0.00    +0.000 C 
BRANCH  14  15
ATOM     15  C   UNL     1      45.438   2.598   8.507  0.00  0.00    +0.000 A 
ATOM     16  C   UNL     1      46.056   1.349   8.366  0.00  0.00    +0.000 A 
ATOM     17  C   UNL     1      46.994   1.137   7.353  0.00  0.00    +0.000 A 
ATOM     18  C   UNL     1      47.321   2.167   6.473  0.00  0.00    +0.000 A 
ATOM     19  C   UNL     1      46.716   3.415   6.605  0.00  0.00    +0.000 A 
ATOM     20  C   UNL     1      45.779   3.630   7.616  0.00  0.00    +0.000 A 
ENDBRANCH  14  15
ENDBRANCH  12  14
ENDBRANCH   4  12
TORSDOF 4
ENDMDL
MODEL 5
REMARK VINA RESULT:    -6.279      3.746      6.340
REMARK INTER + INTRA:          -8.152
REMARK INTER:                  -7.788
REMARK INTRA:                  -0.363
REMARK UNBOUND:                -0.405
REMARK  Name = 
REMARK  4 active torsions:
REMARK  status: ('A' for Active; 'I' for Inactive)
REMARK    1  A    between atoms: C_2  and  C_4
REMARK    2  A    between atoms: C_7  and  N_8
REMARK    3  A    between atoms: N_8  and  C_9
REMARK    4  A    between atoms: C_9  and  C_10
REMARK                            x       y       z     vdW  Elec       q    Type
REMARK                         _______ _______ _______ _____ _____    ______ ____
ROOT
ATOM      1  C   UNL     1      47.199   4.811  14.724  0.00  0.00    +0.000 A 
ATOM      2  C   UNL     1      46.019   4.283  14.233  0.00  0.00    +0.000 A 
ATOM      3  N   UNL     1      45.509   4.646  13.026  0.00  0.00    +0.000 NA
ATOM      4  C   UNL     1      46.232   5.521  12.294  0.00  0.00    +0.000 A 
ATOM      5  C   UNL     1      47.411   6.060  12.827  0.00  0.00    +0.000 A 
ATOM      6  N   UNL     1      47.930   5.731  14.036  0.00  0.00    +0.000 NA
ENDROOT
BRANCH   1   8
ATOM      7  N   UNL     1      47.174   5.083  17.124  0.00  0.00    +0.000 N 
ATOM      8  C   UNL     1      47.707   4.403  16.062  0.00  0.00    +0.000 C 
ATOM      9  O   UNL     1      48.532   3.515  16.207  0.00  0.00    +0.000 OA
ATOM     10  H   UNL     1      47.438   4.823  18.063  0.00  0.00    +0.000 HD
ATOM     11  H   UNL     1      46.458   5.785  16.966  0.00  0.00    +0.000 HD
ENDBRANCH   1   8
BRANCH   4  12
ATOM     12  N   UNL     1      45.692   5.882  11.068  0.00  0.00    +0.000 N 
ATOM     13  H   UNL     1      46.447   5.985  10.392  0.00  0.00    +0.000 HD
BRANCH  12  14
ATOM     14  C   UNL     1      44.604   5.071  10.543  0.00  0.00    +0.000 C 
BRANCH  14  15
ATOM     15  C   UNL     1      45.130   4.112   9.506  0.00  0.00    +0.000 A 
ATOM     16  C   UNL     1      45.847   4.573   8.395  0.00  0.00    +0.000 A 
ATOM     17  C   UNL     1      46.386   3.667   7.478  0.00  0.00    +0.000 A 
ATOM     18  C   UNL     1      46.216   2.296   7.664  0.00  0.00    +0.000 A 
ATOM     19  C   UNL     1      45.501   1.825   8.764  0.00  0.00    +0.000 A 
ATOM     20  C   UNL     1      44.962   2.728   9.681  0.00  0.00    +0.000 A 
ENDBRANCH  14  15
ENDBRANCH  12  14
ENDBRANCH   4  12
TORSDOF 4
ENDMDL
MODEL 6
REMARK VINA RESULT:    -5.770      4.275      6.125
REMARK INTER + INTRA:          -7.524
REMARK INTER:                  -7.291
REMARK INTRA:                  -0.234
REMARK UNBOUND:                -0.405
REMARK  Name = 
REMARK  4 active torsions:
REMARK  status: ('A' for Active; 'I' for Inactive)
REMARK    1  A    between atoms: C_2  and  C_4
REMARK    2  A    between atoms: C_7  and  N_8
REMARK    3  A    between atoms: N_8  and  C_9
REMARK    4  A    between atoms: C_9  and  C_10
REMARK                            x       y       z     vdW  Elec       q    Type
REMARK                         _______ _______ _______ _____ _____    ______ ____
ROOT
ATOM      1  C   UNL     1      44.584   4.748  11.831  0.00  0.00    +0.000 A 
ATOM      2  C   UNL     1      44.914   3.412  11.967  0.00  0.00    +0.000 A 
ATOM      3  N   UNL     1      45.802   2.975  12.899  0.00  0.00    +0.000 NA
ATOM      4  C   UNL     1      46.325   3.904  13.729  0.00  0.00    +0.000 A 
ATOM      5  C   UNL     1      45.994   5.254  13.553  0.00  0.00    +0.000 A 
ATOM      6  N   UNL     1      45.128   5.718  12.618  0.00  0.00    +0.000 NA
ENDROOT
BRANCH   1   8
ATOM      7  N   UNL     1      43.915   4.761   9.511  0.00  0.00    +0.000 N 
ATOM      8  C   UNL     1      43.625   5.184  10.780  0.00  0.00    +0.000 C 
ATOM      9  O   UNL     1      42.641   5.861  11.030  0.00  0.00    +0.000 OA
ATOM     10  H   UNL     1      43.279   4.979   8.757  0.00  0.00    +0.000 HD
ATOM     11  H   UNL     1      44.719   4.163   9.348  0.00  0.00    +0.000 HD
ENDBRANCH   1   8
BRANCH   4  12
ATOM     12  N   UNL     1      47.233   3.438  14.669  0.00  0.00    +0.000 N 
ATOM     13  H   UNL     1      48.153   3.377  14.237  0.00  0.00    +0.000 HD
BRANCH  12  14
ATOM     14  C   UNL     1      47.283   4.117  15.955  0.00  0.00    +0.000 C 
BRANCH  14  15
ATOM     15  C   UNL     1      48.575   3.791  16.660  0.00  0.00    +0.000 A 
ATOM     16  C   UNL     1      49.057   2.477  16.713  0.00  0.00    +0.000 A 
ATOM     17  C   UNL     1      50.289   2.202  17.311  0.00  0.00    +0.000 A 
ATOM     18  C   UNL     1      51.050   3.234  17.857  0.00  0.00    +0.000 A 
ATOM     19  C   UNL     1      50.580   4.545  17.813  0.00  0.00    +0.000 A 
ATOM     20  C   UNL     1      49.350   4.823  17.217  0.00  0.00    +0.000 A 
ENDBRANCH  14  15
ENDBRANCH  12  14
ENDBRANCH   4  12
TORSDOF 4
ENDMDL
MODEL 7
REMARK VINA RESULT:    -5.601      3.267      4.958
REMARK INTER + INTRA:          -7.315
REMARK INTER:                  -7.064
REMARK INTRA:                  -0.251
REMARK UNBOUND:                -0.405
REMARK  Name = 
REMARK  4 active torsions:
REMARK  status: ('A' for Active; 'I' for Inactive)
REMARK    1  A    between atoms: C_2  and  C_4
REMARK    2  A    between atoms: C_7  and  N_8
REMARK    3  A    between atoms: N_8  and  C_9
REMARK    4  A    between atoms: C_9  and  C_10
REMARK                            x       y       z     vdW  Elec       q    Type
REMARK                         _______ _______ _______ _____ _____    ______ ____
ROOT
ATOM      1  C   UNL     1      44.572   3.897  11.710  0.00  0.00    +0.000 A 
ATOM      2  C   UNL     1      44.680   5.087  11.012  0.00  0.00    +0.000 A 
ATOM      3  N   UNL     1      45.263   6.191  11.549  0.00  0.00    +0.000 NA
ATOM      4  C   UNL     1      45.780   6.069  12.791  0.00  0.00    +0.000 A 
ATOM      5  C   UNL     1      45.634   4.860  13.485  0.00  0.00    +0.000 A 
ATOM      6  N   UNL     1      45.038   3.751  12.981  0.00  0.00    +0.000 NA
ENDROOT
BRANCH   1   8
ATOM      7  N   UNL     1      44.508   2.227   9.966  0.00  0.00    +0.000 N 
ATOM      8  C   UNL     1      43.904   2.720  11.092  0.00  0.00    +0.000 C 
ATOM      9  O   UNL     1      42.895   2.218  11.560  0.00  0.00    +0.000 OA
ATOM     10  H   UNL     1      44.135   1.399   9.525  0.00  0.00    +0.000 HD
ATOM     11  H   UNL     1      45.371   2.644   9.632  0.00  0.00    +0.000 HD
ENDBRANCH   1   8
BRANCH   4  12
ATOM     12  N   UNL     1      46.366   7.208  13.322  0.00  0.00    +0.000 N 
ATOM     13  H   UNL     1      47.254   6.954  13.751  0.00  0.00    +0.000 HD
BRANCH  12  14
ATOM     14  C   UNL     1      46.500   8.368  12.453  0.00  0.00    +0.000 C 
BRANCH  14  15
ATOM     15  C   UNL     1      47.950   8.588  12.106  0.00  0.00    +0.000 A 
ATOM     16  C   UNL     1      48.828   7.506  11.953  0.00  0.00    +0.000 A 
ATOM     17  C   UNL     1      50.152   7.723  11.565  0.00  0.00    +0.000 A 
ATOM     18  C   UNL     1      50.609   9.017  11.324  0.00  0.00    +0.000 A 
ATOM     19  C   UNL     1      49.747  10.101  11.476  0.00  0.00    +0.000 A 
ATOM     20  C   UNL     1      48.424   9.888  11.863  0.00  0.00    +0.000 A 
ENDBRANCH  14  15
ENDBRANCH  12  14
ENDBRANCH   4  12
TORSDOF 4
ENDMDL
MODEL 8
REMARK VINA RESULT:    -5.597      4.604      6.778
REMARK INTER + INTRA:          -7.311
REMARK INTER:                  -6.990
REMARK INTRA:                  -0.321
REMARK UNBOUND:                -0.405
REMARK  Name = 
REMARK  4 active torsions:
REMARK  status: ('A' for Active; 'I' for Inactive)
REMARK    1  A    between atoms: C_2  and  C_4
REMARK    2  A    between atoms: C_7  and  N_8
REMARK    3  A    between atoms: N_8  and  C_9
REMARK    4  A    between atoms: C_9  and  C_10
REMARK                            x       y       z     vdW  Elec       q    Type
REMARK                         _______ _______ _______ _____ _____    ______ ____
ROOT
ATOM      1  C   UNL     1      47.759   4.229  15.989  0.00  0.00    +0.000 A 
ATOM      2  C   UNL     1      48.249   5.511  15.817  0.00  0.00    +0.000 A 
ATOM      3  N   UNL     1      48.130   6.180  14.640  0.00  0.00    +0.000 NA
ATOM      4  C   UNL     1      47.468   5.554  13.643  0.00  0.00    +0.000 A 
ATOM      5  C   UNL     1      47.006   4.245  13.836  0.00  0.00    +0.000 A 
ATOM      6  N   UNL     1      47.129   3.548  14.993  0.00  0.00    +0.000 NA
ENDROOT
BRANCH   1   8
ATOM      7  N   UNL     1      46.865   2.770  17.693  0.00  0.00    +0.000 N 
ATOM      8  C   UNL     1      47.933   3.525  17.289  0.00  0.00    +0.000 C 
ATOM      9  O   UNL     1      48.960   3.601  17.944  0.00  0.00    +0.000 OA
ATOM     10  H   UNL     1      46.934   2.226  18.541  0.00  0.00    +0.000 HD
ATOM     11  H   UNL     1      46.045   2.695  17.100  0.00  0.00    +0.000 HD
ENDBRANCH   1   8
BRANCH   4  12
ATOM     12  N   UNL     1      47.363   6.252  12.449  0.00  0.00    +0.000 N 
ATOM     13  H   UNL     1      47.769   5.691  11.702  0.00  0.00    +0.000 HD
BRANCH  12  14
ATOM     14  C   UNL     1      46.054   6.772  12.083  0.00  0.00    +0.000 C 
BRANCH  14  15
ATOM     15  C   UNL     1      45.381   5.837  11.111  0.00  0.00    +0.000 A 
ATOM     16  C   UNL     1      45.950   5.564   9.860  0.00  0.00    +0.000 A 
ATOM     17  C   UNL     1      45.349   4.643   8.999  0.00  0.00    +0.000 A 
ATOM     18  C   UNL     1      44.178   3.988   9.378  0.00  0.00    +0.000 A 
ATOM     19  C   UNL     1      43.601   4.254  10.618  0.00  0.00    +0.000 A 
ATOM     20  C   UNL     1      44.199   5.173  11.480  0.00  0.00    +0.000 A 
ENDBRANCH  14  15
ENDBRANCH  12  14
ENDBRANCH   4  12
TORSDOF 4
ENDMDL
MODEL 9
REMARK VINA RESULT:    -5.482      5.018      7.342
REMARK INTER + INTRA:          -7.169
REMARK INTER:                  -6.889
REMARK INTRA:                  -0.279
REMARK UNBOUND:                -0.405
REMARK  Name = 
REMARK  4 active torsions:
REMARK  status: ('A' for Active; 'I' for Inactive)
REMARK    1  A    between atoms: C_2  and  C_4
REMARK    2  A    between atoms: C_7  and  N_8
REMARK    3  A    between atoms: N_8  and  C_9
REMARK    4  A    between atoms: C_9  and  C_10
REMARK                            x       y       z     vdW  Elec       q    Type
REMARK                         _______ _______ _______ _____ _____    ______ ____
ROOT
ATOM      1  C   UNL     1      48.421   5.489  16.319  0.00  0.00    +0.000 A 
ATOM      2  C   UNL     1      47.664   4.360  16.573  0.00  0.00    +0.000 A 
ATOM      3  N   UNL     1      46.846   3.809  15.638  0.00  0.00    +0.000 NA
ATOM      4  C   UNL     1      46.833   4.389  14.417  0.00  0.00    +0.000 A 
ATOM      5  C   UNL     1      47.590   5.548  14.195  0.00  0.00    +0.000 A 
ATOM      6  N   UNL     1      48.397   6.128  15.117  0.00  0.00    +0.000 NA
ENDROOT
BRANCH   1   8
ATOM      7  N   UNL     1      49.524   7.416  17.270  0.00  0.00    +0.000 N 
ATOM      8  C   UNL     1      49.284   6.072  17.382  0.00  0.00    +0.000 C 
ATOM      9  O   UNL     1      49.737   5.405  18.298  0.00  0.00    +0.000 OA
ATOM     10  H   UNL     1      50.061   7.885  17.985  0.00  0.00    +0.000 HD
ATOM     11  H   UNL     1      49.093   7.945  16.519  0.00  0.00    +0.000 HD
ENDBRANCH   1   8
BRANCH   4  12
ATOM     12  N   UNL     1      45.988   3.815  13.479  0.00  0.00    +0.000 N 
ATOM     13  H   UNL     1      45.550   2.992  13.889  0.00  0.00    +0.000 HD
BRANCH  12  14
ATOM     14  C   UNL     1      45.013   4.678  12.829  0.00  0.00    +0.000 C 
BRANCH  14  15
ATOM     15  C   UNL     1      44.950   4.365  11.356  0.00  0.00    +0.000 A 
ATOM     16  C   UNL     1      45.515   5.230  10.409  0.00  0.00    +0.000 A 
ATOM     17  C   UNL     1      45.507   4.893   9.054  0.00  0.00    +0.000 A 
ATOM     18  C   UNL     1      44.938   3.691   8.633  0.00  0.00    +0.000 A 
ATOM     19  C   UNL     1      44.370   2.825   9.564  0.00  0.00    +0.000 A 
ATOM     20  C   UNL     1      44.376   3.159  10.918  0.00  0.00    +0.000 A 
ENDBRANCH  14  15
ENDBRANCH  12  14
ENDBRANCH   4  12
TORSDOF 4
ENDMDL
