MODEL 1
REMARK VINA RESULT:    -8.593      0.000      0.000
REMARK INTER + INTRA:         -11.834
REMARK INTER:                 -11.105
REMARK INTRA:                  -0.729
REMARK UNBOUND:                -0.729
REMARK  Name = 
REMARK  5 active torsions:
REMARK  status: ('A' for Active; 'I' for Inactive)
REMARK    1  A    between atoms: C_2  and  C_4
REMARK    2  A    between atoms: C_7  and  N_8
REMARK    3  A    between atoms: N_8  and  C_9
REMARK    4  A    between atoms: C_9  and  C_10
REMARK    5  A    between atoms: C_12  and  N_13
REMARK                            x       y       z     vdW  Elec       q    Type
REMARK                         _______ _______ _______ _____ _____    ______ ____
ROOT
ATOM      1  C   UNL     1      43.900   3.206  11.796  0.00  0.00    +0.000 C 
ENDROOT
BRANCH   1   2
ATOM      2  C   UNL     1      45.062   3.954  12.418  0.00  0.00    +0.000 A 
ATOM      3  C   UNL     1      45.170   5.331  12.226  0.00  0.00    +0.000 A 
ATOM      4  C   UNL     1      46.220   6.058  12.797  0.00  0.00    +0.000 A 
ATOM      5  C   UNL     1      47.104   5.349  13.604  0.00  0.00    +0.000 A 
ATOM      6  C   UNL     1      46.933   3.977  13.755  0.00  0.00    +0.000 A 
ATOM      7  N   UNL     1      45.943   3.263  13.178  0.00  0.00    +0.000 NA
BRANCH   4   8
ATOM      8  N   UNL     1      46.309   7.419  12.566  0.00  0.00    +0.000 N 
ATOM      9  C   UNL     1      47.588   8.128  12.453  0.00  0.00    +0.000 C 
ATOM     10  C   UNL     1      47.385   9.606  12.890  0.00  0.00    +0.000 C 
ATOM     11  N   UNL     1      46.281  10.308  12.192  0.00  0.00    +0.000 NA
ATOM     12  C   UNL     1      45.043   9.508  12.322  0.00  0.00    +0.000 C 
ATOM     13  C   UNL     1      45.208   8.058  11.820  0.00  0.00    +0.000 C 
ATOM     14  H   UNL     1      46.517  10.360  11.202  0.00  0.00    +0.000 HD
ENDBRANCH   4   8
ENDBRANCH   1   2
BRANCH   1  15
ATOM     15  N   UNL     1      43.660   3.677  10.428  0.00  0.00    +0.000 N 
ATOM     16  H   UNL     1      43.368   4.653  10.425  0.00  0.00    +0.000 HD
BRANCH  15  20
ATOM     17  C   UNL     1      46.529   2.645   7.510  0.00  0.00    +0.000 A 
ATOM     18  C   UNL     1      46.103   3.969   7.623  0.00  0.00    +0.000 A 
ATOM     19  C   UNL     1      45.122   4.312   8.561  0.00  0.00    +0.000 A 
ATOM     20  C   UNL     1      44.531   3.353   9.389  0.00  0.00    +0.000 A 
ATOM     21  C   UNL     1      44.970   2.024   9.257  0.00  0.00    +0.000 A 
ATOM     22  C   UNL     1      45.945   1.667   8.315  0.00  0.00    +0.000 A 
BRANCH  17  24
ATOM     23  N   UNL     1      47.676   2.950   5.385  0.00  0.00    +0.000 N 
ATOM     24  C   UNL     1      47.605   2.255   6.558  0.00  0.00    +0.000 C 
ATOM     25  O   UNL     1      48.416   1.384   6.832  0.00  0.00    +0.000 OA
ATOM     26  H   UNL     1      48.476   2.753   4.801  0.00  0.00    +0.000 HD
ATOM     27  H   UNL     1      47.210   3.836   5.258  0.00  0.00    +0.000 HD
ENDBRANCH  17  24
ENDBRANCH  15  20
ENDBRANCH   1  15
TORSDOF 5
ENDMDL
MODEL 2
REMARK VINA RESULT:    -8.453      1.748      3.482
REMARK INTER + INTRA:         -11.653
REMARK INTER:                 -10.937
REMARK INTRA:                  -0.716
REMARK UNBOUND:                -0.729
REMARK  Name = 
REMARK  5 active torsions:
REMARK  status: ('A' for Active; 'I' for Inactive)
REMARK    1  A    between atoms: C_2  and  C_4
REMARK    2  A    between atoms: C_7  and  N_8
REMARK    3  A    between atoms: N_8  and  C_9
REMARK    4  A    between atoms: C_9  and  C_10
REMARK    5  A    between atoms: C_12  and  N_13
REMARK                            x       y       z     vdW  Elec       q    Type
REMARK                         _______ _______ _______ _____ _____    ______ ____
ROOT
ATOM      1  C   UNL     1      43.422   5.021  11.098  0.00  0.00    +0.000 C 
ENDROOT
BRANCH   1   2
ATOM      2  C   UNL     1      44.460   5.897  11.771  0.00  0.00    +0.000 A 
ATOM      3  C   UNL     1      45.297   5.343  12.738  0.00  0.00    +0.000 A 
ATOM      4  C   UNL     1      46.277   6.116  13.371  0.00  0.00    +0.000 A 
ATOM      5  C   UNL     1      46.404   7.434  12.944  0.00  0.00    +0.000 A 
ATOM      6  C   UNL     1      45.537   7.919  11.972  0.00  0.00    +0.000 A 
ATOM      7  N   UNL     1      44.566   7.188  11.382  0.00  0.00    +0.000 NA
BRANCH   4   8
ATOM      8  N   UNL     1      47.075   5.540  14.342  0.00  0.00    +0.000 N 
ATOM      9  C   UNL     1      47.109   4.094  14.594  0.00  0.00    +0.000 C 
ATOM     10  C   UNL     1      47.494   3.851  16.081  0.00  0.00    +0.000 C 
ATOM     11  N   UNL     1      48.738   4.534  16.514  0.00  0.00    +0.000 NA
ATOM     12  C   UNL     1      48.635   5.973  16.187  0.00  0.00    +0.000 C 
ATOM     13  C   UNL     1      48.328   6.233  14.697  0.00  0.00    +0.000 C 
ATOM     14  H   UNL     1      49.513   4.147  15.978  0.00  0.00    +0.000 HD
ENDBRANCH   4   8
ENDBRANCH   1   2
BRANCH   1  15
ATOM     15  N   UNL     1      43.684   4.931   9.658  0.00  0.00    +0.000 N 
ATOM     16  H   UNL     1      43.716   5.856   9.235  0.00  0.00    +0.000 HD
BRANCH  15  20
ATOM     17  C   UNL     1      46.433   2.305   7.827  0.00  0.00    +0.000 A 
ATOM     18  C   UNL     1      45.487   1.802   8.719  0.00  0.00    +0.000 A 
ATOM     19  C   UNL     1      44.598   2.672   9.362  0.00  0.00    +0.000 A 
ATOM     20  C   UNL     1      44.640   4.053   9.150  0.00  0.00    +0.000 A 
ATOM     21  C   UNL     1      45.604   4.541   8.250  0.00  0.00    +0.000 A 
ATOM     22  C   UNL     1      46.505   3.681   7.608  0.00  0.00    +0.000 A 
BRANCH  17  24
ATOM     23  N   UNL     1      48.374   1.995   6.390  0.00  0.00    +0.000 N 
ATOM     24  C   UNL     1      47.360   1.403   7.089  0.00  0.00    +0.000 C 
ATOM     25  O   UNL     1      47.249   0.188   7.143  0.00  0.00    +0.000 OA
ATOM     26  H   UNL     1      49.059   1.371   5.990  0.00  0.00    +0.000 HD
ATOM     27  H   UNL     1      48.650   2.952   6.553  0.00  0.00    +0.000 HD
ENDBRANCH  17  24
ENDBRANCH  15  20
ENDBRANCH   1  15
TORSDOF 5
ENDMDL
MODEL 3
REMARK VINA RESULT:    -8.078      1.743      3.083
REMARK INTER + INTRA:         -11.168
REMARK INTER:                 -10.533
REMARK INTRA:                  -0.634
REMARK UNBOUND:                -0.729
REMARK  Name = 
REMARK  5 active torsions:
REMARK  status: ('A' for Active; 'I' for Inactive)
REMARK    1  A    between atoms: C_2  and  C_4
REMARK    2  A    between atoms: C_7  and  N_8
REMARK    3  A    between atoms: N_8  and  C_9
REMARK    4  A    between atoms: C_9  and  C_10
REMARK    5  A    between atoms: C_12  and  N_13
REMARK                            x       y       z     vdW  Elec       q    Type
REMARK                         _______ _______ _______ _____ _____    ______ ____
ROOT
ATOM      1  C   UNL     1      43.809   5.026  11.406  0.00  0.00    +0.000 C 
ENDROOT
BRANCH   1   2
ATOM      2  C   UNL     1      44.606   6.272  11.738  0.00  0.00    +0.000 A 
ATOM      3  C   UNL     1      45.822   6.147  12.408  0.00  0.00    +0.000 A 
ATOM      4  C   UNL     1      46.594   7.272  12.717  0.00  0.00    +0.000 A 
ATOM      5  C   UNL     1      46.112   8.500  12.272  0.00  0.00    +0.000 A 
ATOM      6  C   UNL     1      44.893   8.549  11.607  0.00  0.00    +0.000 A 
ATOM      7  N   UNL     1      44.126   7.472  11.336  0.00  0.00    +0.000 NA
BRANCH   4   8
ATOM      8  N   UNL     1      47.784   7.112  13.403  0.00  0.00    +0.000 N 
ATOM      9  C   UNL     1      47.926   6.219  14.559  0.00  0.00    +0.000 C 
ATOM     10  C   UNL     1      49.060   6.760  15.475  0.00  0.00    +0.000 C 
ATOM     11  N   UNL     1      50.348   7.003  14.783  0.00  0.00    +0.000 NA
ATOM     12  C   UNL     1      50.107   7.876  13.612  0.00  0.00    +0.000 C 
ATOM     13  C   UNL     1      49.037   7.315  12.652  0.00  0.00    +0.000 C 
ATOM     14  H   UNL     1      50.695   6.109  14.439  0.00  0.00    +0.000 HD
ENDBRANCH   4   8
ENDBRANCH   1   2
BRANCH   1  15
ATOM     15  N   UNL     1      43.776   4.808   9.957  0.00  0.00    +0.000 N 
ATOM     16  H   UNL     1      43.611   5.682   9.461  0.00  0.00    +0.000 HD
BRANCH  15  20
ATOM     17  C   UNL     1      46.420   2.346   7.776  0.00  0.00    +0.000 A 
ATOM     18  C   UNL     1      45.537   1.772   8.690  0.00  0.00    +0.000 A 
ATOM     19  C   UNL     1      44.686   2.585   9.447  0.00  0.00    +0.000 A 
ATOM     20  C   UNL     1      44.704   3.978   9.329  0.00  0.00    +0.000 A 
ATOM     21  C   UNL     1      45.604   4.538   8.405  0.00  0.00    +0.000 A 
ATOM     22  C   UNL     1      46.468   3.734   7.648  0.00  0.00    +0.000 A 
BRANCH  17  24
ATOM     23  N   UNL     1      48.419   2.108   6.407  0.00  0.00    +0.000 N 
ATOM     24  C   UNL     1      47.304   1.508   6.920  0.00  0.00    +0.000 C 
ATOM     25  O   UNL     1      47.069   0.326   6.721  0.00  0.00    +0.000 OA
ATOM     26  H   UNL     1      49.066   1.501   5.924  0.00  0.00    +0.000 HD
ATOM     27  H   UNL     1      48.777   2.977   6.774  0.00  0.00    +0.000 HD
ENDBRANCH  17  24
ENDBRANCH  15  20
ENDBRANCH   1  15
TORSDOF 5
ENDMDL
MODEL 4
REMARK VINA RESULT:    -6.790      2.709      6.629
REMARK INTER + INTRA:          -9.504
REMARK INTER:                  -8.748
REMARK INTRA:                  -0.757
REMARK UNBOUND:                -0.729
REMARK  Name = 
REMARK  5 active torsions:
REMARK  status: ('A' for Active; 'I' for Inactive)
REMARK    1  A    between atoms: C_2  and  C_4
REMARK    2  A    between atoms: C_7  and  N_8
REMARK    3  A    between atoms: N_8  and  C_9
REMARK    4  A    between atoms: C_9  and  C_10
REMARK    5  A    between atoms: C_12  and  N_13
REMARK                            x       y       z     vdW  Elec       q    Type
REMARK                         _______ _______ _______ _____ _____    ______ ____
ROOT
ATOM      1  C   UNL     1      44.132   7.089  11.722  0.00  0.00    +0.000 C 
ENDROOT
BRANCH   1   2
ATOM      2  C   UNL     1      44.030   5.590  11.519  0.00  0.00    +0.000 A 
ATOM      3  C   UNL     1      44.674   5.003  10.430  0.00  0.00    +0.000 A 
ATOM      4  C   UNL     1      44.616   3.621  10.218  0.00  0.00    +0.000 A 
ATOM      5  C   UNL     1      43.939   2.871  11.175  0.00  0.00    +0.000 A 
ATOM      6  C   UNL     1      43.323   3.523  12.237  0.00  0.00    +0.000 A 
ATOM      7  N   UNL     1      43.345   4.859  12.429  0.00  0.00    +0.000 NA
BRANCH   4   8
ATOM      8  N   UNL     1      45.247   3.076   9.115  0.00  0.00    +0.000 N 
ATOM      9  C   UNL     1      45.171   1.651   8.774  0.00  0.00    +0.000 C 
ATOM     10  C   UNL     1      46.452   1.252   7.989  0.00  0.00    +0.000 C 
ATOM     11  N   UNL     1      46.742   2.104   6.811  0.00  0.00    +0.000 NA
ATOM     12  C   UNL     1      46.761   3.522   7.235  0.00  0.00    +0.000 C 
ATOM     13  C   UNL     1      45.463   3.954   7.949  0.00  0.00    +0.000 C 
ATOM     14  H   UNL     1      45.982   1.988   6.143  0.00  0.00    +0.000 HD
ENDBRANCH   4   8
ENDBRANCH   1   2
BRANCH   1  15
ATOM     15  N   UNL     1      44.992   7.394  12.870  0.00  0.00    +0.000 N 
ATOM     16  H   UNL     1      44.767   6.796  13.663  0.00  0.00    +0.000 HD
BRANCH  15  20
ATOM     17  C   UNL     1      49.075   8.088  12.061  0.00  0.00    +0.000 A 
ATOM     18  C   UNL     1      48.660   6.826  12.486  0.00  0.00    +0.000 A 
ATOM     19  C   UNL     1      47.313   6.599  12.795  0.00  0.00    +0.000 A 
ATOM     20  C   UNL     1      46.359   7.617  12.710  0.00  0.00    +0.000 A 
ATOM     21  C   UNL     1      46.798   8.883  12.284  0.00  0.00    +0.000 A 
ATOM     22  C   UNL     1      48.145   9.124  11.981  0.00  0.00    +0.000 A 
BRANCH  17  24
ATOM     23  N   UNL     1      51.238   7.273  11.296  0.00  0.00    +0.000 N 
ATOM     24  C   UNL     1      50.489   8.351  11.677  0.00  0.00    +0.000 C 
ATOM     25  O   UNL     1      50.948   9.483  11.659  0.00  0.00    +0.000 OA
ATOM     26  H   UNL     1      52.157   7.479  10.931  0.00  0.00    +0.000 HD
ATOM     27  H   UNL     1      50.818   6.393  11.038  0.00  0.00    +0.000 HD
ENDBRANCH  17  24
ENDBRANCH  15  20
ENDBRANCH   1  15
TORSDOF 5
ENDMDL
MODEL 5
REMARK VINA RESULT:    -6.770      4.327      7.838
REMARK INTER + INTRA:          -9.478
REMARK INTER:                  -8.865
REMARK INTRA:                  -0.613
REMARK UNBOUND:                -0.729
REMARK  Name = 
REMARK  5 active torsions:
REMARK  status: ('A' for Active; 'I' for Inactive)
REMARK    1  A    between atoms: C_2  and  C_4
REMARK    2  A    between atoms: C_7  and  N_8
REMARK    3  A    between atoms: N_8  and  C_9
REMARK    4  A    between atoms: C_9  and  C_10
REMARK    5  A    between atoms: C_12  and  N_13
REMARK                            x       y       z     vdW  Elec       q    Type
REMARK                         _______ _______ _______ _____ _____    ______ ____
ROOT
ATOM      1  C   UNL     1      48.540   6.604  15.553  0.00  0.00    +0.000 C 
ENDROOT
BRANCH   1   2
ATOM      2  C   UNL     1      47.999   6.574  14.137  0.00  0.00    +0.000 A 
ATOM      3  C   UNL     1      46.893   5.777  13.846  0.00  0.00    +0.000 A 
ATOM      4  C   UNL     1      46.355   5.735  12.555  0.00  0.00    +0.000 A 
ATOM      5  C   UNL     1      46.944   6.566  11.606  0.00  0.00    +0.000 A 
ATOM      6  C   UNL     1      48.043   7.337  11.969  0.00  0.00    +0.000 A 
ATOM      7  N   UNL     1      48.588   7.356  13.204  0.00  0.00    +0.000 NA
BRANCH   4   8
ATOM      8  N   UNL     1      45.272   4.916  12.296  0.00  0.00    +0.000 N 
ATOM      9  C   UNL     1      45.393   3.464  12.115  0.00  0.00    +0.000 C 
ATOM     10  C   UNL     1      44.237   2.974  11.199  0.00  0.00    +0.000 C 
ATOM     11  N   UNL     1      42.882   3.381  11.645  0.00  0.00    +0.000 NA
ATOM     12  C   UNL     1      42.861   4.847  11.840  0.00  0.00    +0.000 C 
ATOM     13  C   UNL     1      43.956   5.342  12.809  0.00  0.00    +0.000 C 
ATOM     14  H   UNL     1      42.703   2.943  12.547  0.00  0.00    +0.000 HD
ENDBRANCH   4   8
ENDBRANCH   1   2
BRANCH   1  15
ATOM     15  N   UNL     1      48.049   5.452  16.315  0.00  0.00    +0.000 N 
ATOM     16  H   UNL     1      47.185   5.091  15.913  0.00  0.00    +0.000 HD
BRANCH  15  20
ATOM     17  C   UNL     1      50.865   2.499  17.393  0.00  0.00    +0.000 A 
ATOM     18  C   UNL     1      49.609   2.117  16.922  0.00  0.00    +0.000 A 
ATOM     19  C   UNL     1      48.655   3.090  16.601  0.00  0.00    +0.000 A 
ATOM     20  C   UNL     1      48.916   4.454  16.757  0.00  0.00    +0.000 A 
ATOM     21  C   UNL     1      50.187   4.819  17.238  0.00  0.00    +0.000 A 
ATOM     22  C   UNL     1      51.146   3.854  17.571  0.00  0.00    +0.000 A 
BRANCH  17  24
ATOM     23  N   UNL     1      51.497   0.257  18.096  0.00  0.00    +0.000 N 
ATOM     24  C   UNL     1      51.919   1.493  17.697  0.00  0.00    +0.000 C 
ATOM     25  O   UNL     1      53.105   1.746  17.553  0.00  0.00    +0.000 OA
ATOM     26  H   UNL     1      52.216  -0.448  18.189  0.00  0.00    +0.000 HD
ATOM     27  H   UNL     1      50.549  -0.058  17.956  0.00  0.00    +0.000 HD
ENDBRANCH  17  24
ENDBRANCH  15  20
ENDBRANCH   1  15
TORSDOF 5
ENDMDL
MODEL 6
REMARK VINA RESULT:    -6.654      5.163      8.358
REMARK INTER + INTRA:          -9.327
REMARK INTER:                  -8.826
REMARK INTRA:                  -0.501
REMARK UNBOUND:                -0.729
REMARK  Name = 
REMARK  5 active torsions:
REMARK  status: ('A' for Active; 'I' for Inactive)
REMARK    1  A    between atoms: C_2  and  C_4
REMARK    2  A    between atoms: C_7  and  N_8
REMARK    3  A    between atoms: N_8  and  C_9
REMARK    4  A    between atoms: C_9  and  C_10
REMARK    5  A    between atoms: C_12  and  N_13
REMARK                            x       y       z     vdW  Elec       q    Type
REMARK                         _______ _______ _______ _____ _____    ______ ____
ROOT
ATOM      1  C   UNL     1      47.842   4.063  16.755  0.00  0.00    +0.000 C 
ENDROOT
BRANCH   1   2
ATOM      2  C   UNL     1      47.557   4.813  15.468  0.00  0.00    +0.000 A 
ATOM      3  C   UNL     1      46.452   4.454  14.699  0.00  0.00    +0.000 A 
ATOM      4  C   UNL     1      46.148   5.133  13.514  0.00  0.00    +0.000 A 
ATOM      5  C   UNL     1      46.967   6.208  13.183  0.00  0.00    +0.000 A 
ATOM      6  C   UNL     1      48.050   6.511  13.999  0.00  0.00    +0.000 A 
ATOM      7  N   UNL     1      48.370   5.839  15.126  0.00  0.00    +0.000 NA
BRANCH   4   8
ATOM      8  N   UNL     1      45.057   4.734  12.763  0.00  0.00    +0.000 N 
ATOM      9  C   UNL     1      44.236   5.671  11.986  0.00  0.00    +0.000 C 
ATOM     10  C   UNL     1      42.797   5.097  11.863  0.00  0.00    +0.000 C 
ATOM     11  N   UNL     1      42.729   3.711  11.339  0.00  0.00    +0.000 NA
ATOM     12  C   UNL     1      43.612   2.846  12.152  0.00  0.00    +0.000 C 
ATOM     13  C   UNL     1      45.065   3.362  12.221  0.00  0.00    +0.000 C 
ATOM     14  H   UNL     1      43.089   3.717  10.386  0.00  0.00    +0.000 HD
ENDBRANCH   4   8
ENDBRANCH   1   2
BRANCH   1  15
ATOM     15  N   UNL     1      49.114   4.504  17.335  0.00  0.00    +0.000 N 
ATOM     16  H   UNL     1      48.960   5.028  18.195  0.00  0.00    +0.000 HD
BRANCH  15  20
ATOM     17  C   UNL     1      52.314   1.788  17.772  0.00  0.00    +0.000 A 
ATOM     18  C   UNL     1      52.511   3.139  18.056  0.00  0.00    +0.000 A 
ATOM     19  C   UNL     1      51.466   4.052  17.875  0.00  0.00    +0.000 A 
ATOM     20  C   UNL     1      50.216   3.652  17.392  0.00  0.00    +0.000 A 
ATOM     21  C   UNL     1      50.039   2.287  17.107  0.00  0.00    +0.000 A 
ATOM     22  C   UNL     1      51.081   1.364  17.276  0.00  0.00    +0.000 A 
BRANCH  17  24
ATOM     23  N   UNL     1      53.000  -0.444  18.460  0.00  0.00    +0.000 N 
ATOM     24  C   UNL     1      53.388   0.782  18.000  0.00  0.00    +0.000 C 
ATOM     25  O   UNL     1      54.558   1.026  17.746  0.00  0.00    +0.000 OA
ATOM     26  H   UNL     1      53.721  -1.150  18.503  0.00  0.00    +0.000 HD
ATOM     27  H   UNL     1      52.042  -0.756  18.412  0.00  0.00    +0.000 HD
ENDBRANCH  17  24
ENDBRANCH  15  20
ENDBRANCH   1  15
TORSDOF 5
ENDMDL
MODEL 7
REMARK VINA RESULT:    -6.632      4.059      7.947
REMARK INTER + INTRA:          -9.299
REMARK INTER:                  -8.895
REMARK INTRA:                  -0.404
REMARK UNBOUND:                -0.729
REMARK  Name = 
REMARK  5 active torsions:
REMARK  status: ('A' for Active; 'I' for Inactive)
REMARK    1  A    between atoms: C_2  and  C_4
REMARK    2  A    between atoms: C_7  and  N_8
REMARK    3  A    between atoms: N_8  and  C_9
REMARK    4  A    between atoms: C_9  and  C_10
REMARK    5  A    between atoms: C_12  and  N_13
REMARK                            x       y       z     vdW  Elec       q    Type
REMARK                         _______ _______ _______ _____ _____    ______ ____
ROOT
ATOM      1  C   UNL     1      46.421   5.387  14.026  0.00  0.00    +0.000 C 
ENDROOT
BRANCH   1   2
ATOM      2  C   UNL     1      45.342   5.092  13.003  0.00  0.00    +0.000 A 
ATOM      3  C   UNL     1      45.687   4.455  11.811  0.00  0.00    +0.000 A 
ATOM      4  C   UNL     1      44.717   4.151  10.850  0.00  0.00    +0.000 A 
ATOM      5  C   UNL     1      43.400   4.464  11.172  0.00  0.00    +0.000 A 
ATOM      6  C   UNL     1      43.129   5.096  12.380  0.00  0.00    +0.000 A 
ATOM      7  N   UNL     1      44.064   5.423  13.297  0.00  0.00    +0.000 NA
BRANCH   4   8
ATOM      8  N   UNL     1      45.099   3.541   9.669  0.00  0.00    +0.000 N 
ATOM      9  C   UNL     1      44.756   2.152   9.341  0.00  0.00    +0.000 C 
ATOM     10  C   UNL     1      45.840   1.578   8.386  0.00  0.00    +0.000 C 
ATOM     11  N   UNL     1      46.096   2.402   7.179  0.00  0.00    +0.000 NA
ATOM     12  C   UNL     1      46.392   3.790   7.598  0.00  0.00    +0.000 C 
ATOM     13  C   UNL     1      45.287   4.400   8.485  0.00  0.00    +0.000 C 
ATOM     14  H   UNL     1      45.242   2.419   6.623  0.00  0.00    +0.000 HD
ENDBRANCH   4   8
ENDBRANCH   1   2
BRANCH   1  15
ATOM     15  N   UNL     1      46.389   4.396  15.106  0.00  0.00    +0.000 N 
ATOM     16  H   UNL     1      46.007   3.511  14.777  0.00  0.00    +0.000 HD
BRANCH  15  20
ATOM     17  C   UNL     1      49.837   4.006  17.508  0.00  0.00    +0.000 A 
ATOM     18  C   UNL     1      49.077   2.877  17.200  0.00  0.00    +0.000 A 
ATOM     19  C   UNL     1      47.910   3.004  16.438  0.00  0.00    +0.000 A 
ATOM     20  C   UNL     1      47.462   4.248  15.984  0.00  0.00    +0.000 A 
ATOM     21  C   UNL     1      48.239   5.374  16.307  0.00  0.00    +0.000 A 
ATOM     22  C   UNL     1      49.405   5.261  17.077  0.00  0.00    +0.000 A 
BRANCH  17  24
ATOM     23  N   UNL     1      51.764   2.703  18.223  0.00  0.00    +0.000 N 
ATOM     24  C   UNL     1      51.110   3.901  18.273  0.00  0.00    +0.000 C 
ATOM     25  O   UNL     1      51.571   4.854  18.881  0.00  0.00    +0.000 OA
ATOM     26  H   UNL     1      52.679   2.680  18.651  0.00  0.00    +0.000 HD
ATOM     27  H   UNL     1      51.559   2.008  17.521  0.00  0.00    +0.000 HD
ENDBRANCH  17  24
ENDBRANCH  15  20
ENDBRANCH   1  15
TORSDOF 5
ENDMDL
MODEL 8
REMARK VINA RESULT:    -6.371      4.051      6.386
REMARK INTER + INTRA:          -8.961
REMARK INTER:                  -8.369
REMARK INTRA:                  -0.592
REMARK UNBOUND:                -0.729
REMARK  Name = 
REMARK  5 active torsions:
REMARK  status: ('A' for Active; 'I' for Inactive)
REMARK    1  A    between atoms: C_2  and  C_4
REMARK    2  A    between atoms: C_7  and  N_8
REMARK    3  A    between atoms: N_8  and  C_9
REMARK    4  A    between atoms: C_9  and  C_10
REMARK    5  A    between atoms: C_12  and  N_13
REMARK                            x       y       z     vdW  Elec       q    Type
REMARK                         _______ _______ _______ _____ _____    ______ ____
ROOT
ATOM      1  C   UNL     1      48.395   7.734  13.539  0.00  0.00    +0.000 C 
ENDROOT
BRANCH   1   2
ATOM      2  C   UNL     1      49.367   7.365  14.643  0.00  0.00    +0.000 A 
ATOM      3  C   UNL     1      48.925   6.583  15.709  0.00  0.00    +0.000 A 
ATOM      4  C   UNL     1      49.796   6.209  16.738  0.00  0.00    +0.000 A 
ATOM      5  C   UNL     1      51.122   6.607  16.608  0.00  0.00    +0.000 A 
ATOM      6  C   UNL     1      51.494   7.383  15.516  0.00  0.00    +0.000 A 
ATOM      7  N   UNL     1      50.651   7.777  14.537  0.00  0.00    +0.000 NA
BRANCH   4   8
ATOM      8  N   UNL     1      49.317   5.453  17.792  0.00  0.00    +0.000 N 
ATOM      9  C   UNL     1      49.299   5.934  19.178  0.00  0.00    +0.000 C 
ATOM     10  C   UNL     1      49.386   4.713  20.136  0.00  0.00    +0.000 C 
ATOM     11  N   UNL     1      48.372   3.661  19.887  0.00  0.00    +0.000 NA
ATOM     12  C   UNL     1      48.431   3.264  18.463  0.00  0.00    +0.000 C 
ATOM     13  C   UNL     1      48.269   4.457  17.497  0.00  0.00    +0.000 C 
ATOM     14  H   UNL     1      47.452   4.063  20.061  0.00  0.00    +0.000 HD
ENDBRANCH   4   8
ENDBRANCH   1   2
BRANCH   1  15
ATOM     15  N   UNL     1      47.070   7.171  13.814  0.00  0.00    +0.000 N 
ATOM     16  H   UNL     1      46.436   7.886  14.168  0.00  0.00    +0.000 HD
BRANCH  15  20
ATOM     17  C   UNL     1      44.985   4.685  11.115  0.00  0.00    +0.000 A 
ATOM     18  C   UNL     1      45.118   4.299  12.449  0.00  0.00    +0.000 A 
ATOM     19  C   UNL     1      45.843   5.098  13.341  0.00  0.00    +0.000 A 
ATOM     20  C   UNL     1      46.465   6.280  12.929  0.00  0.00    +0.000 A 
ATOM     21  C   UNL     1      46.323   6.650  11.579  0.00  0.00    +0.000 A 
ATOM     22  C   UNL     1      45.608   5.853  10.675  0.00  0.00    +0.000 A 
BRANCH  17  24
ATOM     23  N   UNL     1      44.072   4.372   8.881  0.00  0.00    +0.000 N 
ATOM     24  C   UNL     1      44.180   3.884  10.152  0.00  0.00    +0.000 C 
ATOM     25  O   UNL     1      43.677   2.818  10.470  0.00  0.00    +0.000 OA
ATOM     26  H   UNL     1      43.621   3.766   8.211  0.00  0.00    +0.000 HD
ATOM     27  H   UNL     1      44.692   5.084   8.525  0.00  0.00    +0.000 HD
ENDBRANCH  17  24
ENDBRANCH  15  20
ENDBRANCH   1  15
TORSDOF 5
ENDMDL
MODEL 9
REMARK VINA RESULT:    -6.072      4.032      6.289
REMARK INTER + INTRA:          -8.576
REMARK INTER:                  -7.989
REMARK INTRA:                  -0.587
REMARK UNBOUND:                -0.729
REMARK  Name = 
REMARK  5 active torsions:
REMARK  status: ('A' for Active; 'I' for Inactive)
REMARK    1  A    between atoms: C_2  and  C_4
REMARK    2  A    between atoms: C_7  and  N_8
REMARK    3  A    between atoms: N_8  and  C_9
REMARK    4  A    between atoms: C_9  and  C_10
REMARK    5  A    between atoms: C_12  and  N_13
REMARK                            x       y       z     vdW  Elec       q    Type
REMARK                         _______ _______ _______ _____ _____    ______ ____
ROOT
ATOM      1  C   UNL     1      48.684   6.871  13.203  0.00  0.00    +0.000 C 
ENDROOT
BRANCH   1   2
ATOM      2  C   UNL     1      48.688   7.283  14.663  0.00  0.00    +0.000 A 
ATOM      3  C   UNL     1      48.754   6.300  15.649  0.00  0.00    +0.000 A 
ATOM      4  C   UNL     1      48.776   6.641  17.006  0.00  0.00    +0.000 A 
ATOM      5  C   UNL     1      48.786   8.000  17.307  0.00  0.00    +0.000 A 
ATOM      6  C   UNL     1      48.721   8.925  16.272  0.00  0.00    +0.000 A 
ATOM      7  N   UNL     1      48.665   8.602  14.962  0.00  0.00    +0.000 NA
BRANCH   4   8
ATOM      8  N   UNL     1      48.818   5.639  17.958  0.00  0.00    +0.000 N 
ATOM      9  C   UNL     1      49.155   4.247  17.639  0.00  0.00    +0.000 C 
ATOM     10  C   UNL     1      48.466   3.313  18.673  0.00  0.00    +0.000 C 
ATOM     11  N   UNL     1      48.740   3.654  20.090  0.00  0.00    +0.000 NA
ATOM     12  C   UNL     1      48.412   5.079  20.313  0.00  0.00    +0.000 C 
ATOM     13  C   UNL     1      49.148   6.027  19.343  0.00  0.00    +0.000 C 
ATOM     14  H   UNL     1      49.738   3.534  20.255  0.00  0.00    +0.000 HD
ENDBRANCH   4   8
ENDBRANCH   1   2
BRANCH   1  15
ATOM     15  N   UNL     1      47.414   7.238  12.570  0.00  0.00    +0.000 N 
ATOM     16  H   UNL     1      47.549   7.980  11.886  0.00  0.00    +0.000 HD
BRANCH  15  20
ATOM     17  C   UNL     1      44.901   4.086  11.323  0.00  0.00    +0.000 A 
ATOM     18  C   UNL     1      45.163   5.146  10.455  0.00  0.00    +0.000 A 
ATOM     19  C   UNL     1      45.962   6.215  10.876  0.00  0.00    +0.000 A 
ATOM     20  C   UNL     1      46.501   6.266  12.165  0.00  0.00    +0.000 A 
ATOM     21  C   UNL     1      46.222   5.190  13.026  0.00  0.00    +0.000 A 
ATOM     22  C   UNL     1      45.416   4.118  12.619  0.00  0.00    +0.000 A 
BRANCH  17  24
ATOM     23  N   UNL     1      44.601   2.156   9.870  0.00  0.00    +0.000 N 
ATOM     24  C   UNL     1      44.097   2.909  10.891  0.00  0.00    +0.000 C 
ATOM     25  O   UNL     1      43.056   2.605  11.454  0.00  0.00    +0.000 OA
ATOM     26  H   UNL     1      44.105   1.301   9.663  0.00  0.00    +0.000 HD
ATOM     27  H   UNL     1      45.566   2.218   9.583  0.00  0.00    +0.000 HD
ENDBRANCH  17  24
ENDBRANCH  15  20
ENDBRANCH   1  15
TORSDOF 5
ENDMDL
