MODEL 1
REMARK VINA RESULT:    -6.627      0.000      0.000
REMARK INTER + INTRA:         -10.631
REMARK INTER:                  -8.951
REMARK INTRA:                  -1.680
REMARK UNBOUND:                -1.680
REMARK  Name = 
REMARK  9 active torsions:
REMARK  status: ('A' for Active; 'I' for Inactive)
REMARK    1  A    between atoms: C_1  and  C_2
REMARK    2  A    between atoms: C_2  and  C_3
REMARK    3  A    between atoms: C_2  and  C_4
REMARK    4  A    between atoms: C_2  and  C_22
REMARK    5  A    between atoms: C_4  and  N_5
REMARK    6  A    between atoms: N_5  and  C_6
REMARK    7  A    between atoms: C_10  and  C_11
REMARK    8  A    between atoms: C_14  and  S_15
REMARK    9  A    between atoms: S_15  and  C_16
REMARK                            x       y       z     vdW  Elec       q    Type
REMARK                         _______ _______ _______ _____ _____    ______ ____
ROOT
ATOM      1  C   UNL     1      49.829   7.604  15.525  0.00  0.00    +0.000 A 
ATOM      2  C   UNL     1      50.752   8.183  14.657  0.00  0.00    +0.000 A 
ATOM      3  C   UNL     1      50.573   8.096  13.276  0.00  0.00    +0.000 A 
ATOM      4  C   UNL     1      49.458   7.441  12.749  0.00  0.00    +0.000 A 
ATOM      5  C   UNL     1      48.502   6.846  13.586  0.00  0.00    +0.000 A 
ATOM      6  C   UNL     1      48.698   6.982  14.970  0.00  0.00    +0.000 A 
ENDROOT
BRANCH   5   7
ATOM      7  C   UNL     1      47.383   6.034  13.055  0.00  0.00    +0.000 A 
ATOM      8  C   UNL     1      46.970   4.868  13.726  0.00  0.00    +0.000 A 
ATOM      9  C   UNL     1      45.867   4.126  13.298  0.00  0.00    +0.000 A 
ATOM     10  C   UNL     1      45.148   4.549  12.183  0.00  0.00    +0.000 A 
ATOM     11  C   UNL     1      45.538   5.688  11.480  0.00  0.00    +0.000 A 
ATOM     12  C   UNL     1      46.650   6.418  11.915  0.00  0.00    +0.000 A 
BRANCH  10  13
ATOM     13  S   UNL     1      43.782   3.570  11.609  0.00  0.00    +0.000 S 
ATOM     14  C   UNL     1      44.381   2.824  10.119  0.00  0.00    +0.000 C 
ATOM     15  O   UNL     1      43.567   2.511  12.580  0.00  0.00    +0.000 OA
ATOM     16  O   UNL     1      42.713   4.479  11.255  0.00  0.00    +0.000 OA
ENDBRANCH  10  13
ENDBRANCH   5   7
BRANCH   1  17
ATOM     17  N   UNL     1      49.900   7.650  16.918  0.00  0.00    +0.000 N 
ATOM     18  H   UNL     1      50.437   8.471  17.190  0.00  0.00    +0.000 HD
BRANCH  17  19
ATOM     19  C   UNL     1      48.724   7.422  17.752  0.00  0.00    +0.000 C 
BRANCH  19  21
ATOM     20  C   UNL     1      50.372   6.421  19.423  0.00  0.00    +0.000 C 
ATOM     21  C   UNL     1      48.967   6.273  18.785  0.00  0.00    +0.000 C 
ATOM     22  C   UNL     1      47.947   6.369  19.951  0.00  0.00    +0.000 C 
BRANCH  21  23
ATOM     23  C   UNL     1      48.824   4.937  18.037  0.00  0.00    +0.000 A 
ATOM     24  C   UNL     1      47.578   4.440  17.622  0.00  0.00    +0.000 A 
ATOM     25  C   UNL     1      47.486   3.227  16.943  0.00  0.00    +0.000 A 
ATOM     26  C   UNL     1      48.652   2.535  16.677  0.00  0.00    +0.000 A 
ATOM     27  N   UNL     1      49.873   2.979  17.024  0.00  0.00    +0.000 NA
ATOM     28  C   UNL     1      49.931   4.160  17.686  0.00  0.00    +0.000 A 
ENDBRANCH  21  23
ENDBRANCH  19  21
ENDBRANCH  17  19
ENDBRANCH   1  17
TORSDOF 6
ENDMDL
MODEL 2
REMARK VINA RESULT:    -6.227      4.473      8.069
REMARK INTER + INTRA:         -10.092
REMARK INTER:                  -9.177
REMARK INTRA:                  -0.915
REMARK UNBOUND:                -1.680
REMARK  Name = 
REMARK  9 active torsions:
REMARK  status: ('A' for Active; 'I' for Inactive)
REMARK    1  A    between atoms: C_1  and  C_2
REMARK    2  A    between atoms: C_2  and  C_3
REMARK    3  A    between atoms: C_2  and  C_4
REMARK    4  A    between atoms: C_2  and  C_22
REMARK    5  A    between atoms: C_4  and  N_5
REMARK    6  A    between atoms: N_5  and  C_6
REMARK    7  A    between atoms: C_10  and  C_11
REMARK    8  A    between atoms: C_14  and  S_15
REMARK    9  A    between atoms: S_15  and  C_16
REMARK                            x       y       z     vdW  Elec       q    Type
REMARK                         _______ _______ _______ _____ _____    ______ ____
ROOT
ATOM      1  C   UNL     1      46.715   6.221  12.620  0.00  0.00    +0.000 A 
ATOM      2  C   UNL     1      47.550   6.982  11.806  0.00  0.00    +0.000 A 
ATOM      3  C   UNL     1      48.756   7.482  12.301  0.00  0.00    +0.000 A 
ATOM      4  C   UNL     1      49.145   7.212  13.614  0.00  0.00    +0.000 A 
ATOM      5  C   UNL     1      48.336   6.447  14.469  0.00  0.00    +0.000 A 
ATOM      6  C   UNL     1      47.147   5.934  13.926  0.00  0.00    +0.000 A 
ENDROOT
BRANCH   5   7
ATOM      7  C   UNL     1      48.660   6.257  15.901  0.00  0.00    +0.000 A 
ATOM      8  C   UNL     1      48.428   5.016  16.524  0.00  0.00    +0.000 A 
ATOM      9  C   UNL     1      48.798   4.779  17.850  0.00  0.00    +0.000 A 
ATOM     10  C   UNL     1      49.421   5.789  18.578  0.00  0.00    +0.000 A 
ATOM     11  C   UNL     1      49.651   7.038  18.002  0.00  0.00    +0.000 A 
ATOM     12  C   UNL     1      49.267   7.265  16.676  0.00  0.00    +0.000 A 
BRANCH  10  13
ATOM     13  S   UNL     1      49.837   5.501  20.280  0.00  0.00    +0.000 S 
ATOM     14  C   UNL     1      50.228   7.110  20.907  0.00  0.00    +0.000 C 
ATOM     15  O   UNL     1      48.632   5.044  20.952  0.00  0.00    +0.000 OA
ATOM     16  O   UNL     1      51.046   4.707  20.305  0.00  0.00    +0.000 OA
ENDBRANCH  10  13
ENDBRANCH   5   7
BRANCH   1  17
ATOM     17  N   UNL     1      45.503   5.657  12.221  0.00  0.00    +0.000 N 
ATOM     18  H   UNL     1      45.137   6.191  11.437  0.00  0.00    +0.000 HD
BRANCH  17  19
ATOM     19  C   UNL     1      45.345   4.213  12.066  0.00  0.00    +0.000 C 
BRANCH  19  21
ATOM     20  C   UNL     1      43.436   2.650  11.415  0.00  0.00    +0.000 C 
ATOM     21  C   UNL     1      44.287   3.867  10.968  0.00  0.00    +0.000 C 
ATOM     22  C   UNL     1      43.295   5.046  10.781  0.00  0.00    +0.000 C 
BRANCH  21  23
ATOM     23  C   UNL     1      45.048   3.576   9.664  0.00  0.00    +0.000 A 
ATOM     24  C   UNL     1      45.302   2.269   9.220  0.00  0.00    +0.000 A 
ATOM     25  C   UNL     1      45.992   2.043   8.031  0.00  0.00    +0.000 A 
ATOM     26  C   UNL     1      46.406   3.135   7.295  0.00  0.00    +0.000 A 
ATOM     27  N   UNL     1      46.162   4.408   7.658  0.00  0.00    +0.000 NA
ATOM     28  C   UNL     1      45.492   4.597   8.820  0.00  0.00    +0.000 A 
ENDBRANCH  21  23
ENDBRANCH  19  21
ENDBRANCH  17  19
ENDBRANCH   1  17
TORSDOF 6
ENDMDL
MODEL 3
REMARK VINA RESULT:    -6.111      5.852      7.982
REMARK INTER + INTRA:          -9.935
REMARK INTER:                  -8.814
REMARK INTRA:                  -1.121
REMARK UNBOUND:                -1.680
REMARK  Name = 
REMARK  9 active torsions:
REMARK  status: ('A' for Active; 'I' for Inactive)
REMARK    1  A    between atoms: C_1  and  C_2
REMARK    2  A    between atoms: C_2  and  C_3
REMARK    3  A    between atoms: C_2  and  C_4
REMARK    4  A    between atoms: C_2  and  C_22
REMARK    5  A    between atoms: C_4  and  N_5
REMARK    6  A    between atoms: N_5  and  C_6
REMARK    7  A    between atoms: C_10  and  C_11
REMARK    8  A    between atoms: C_14  and  S_15
REMARK    9  A    between atoms: S_15  and  C_16
REMARK                            x       y       z     vdW  Elec       q    Type
REMARK                         _______ _______ _______ _____ _____    ______ ____
ROOT
ATOM      1  C   UNL     1      45.514   8.314  12.448  0.00  0.00    +0.000 A 
ATOM      2  C   UNL     1      44.919   9.569  12.353  0.00  0.00    +0.000 A 
ATOM      3  C   UNL     1      45.672  10.680  11.969  0.00  0.00    +0.000 A 
ATOM      4  C   UNL     1      47.027  10.543  11.663  0.00  0.00    +0.000 A 
ATOM      5  C   UNL     1      47.667   9.297  11.744  0.00  0.00    +0.000 A 
ATOM      6  C   UNL     1      46.871   8.196  12.101  0.00  0.00    +0.000 A 
ENDROOT
BRANCH   5   7
ATOM      7  C   UNL     1      49.128   9.146  11.554  0.00  0.00    +0.000 A 
ATOM      8  C   UNL     1      49.703   7.866  11.453  0.00  0.00    +0.000 A 
ATOM      9  C   UNL     1      51.064   7.691  11.192  0.00  0.00    +0.000 A 
ATOM     10  C   UNL     1      51.877   8.808  11.018  0.00  0.00    +0.000 A 
ATOM     11  C   UNL     1      51.348  10.093  11.130  0.00  0.00    +0.000 A 
ATOM     12  C   UNL     1      49.984  10.254  11.401  0.00  0.00    +0.000 A 
BRANCH  10  13
ATOM     13  S   UNL     1      53.617   8.580  10.743  0.00  0.00    +0.000 S 
ATOM     14  C   UNL     1      54.206   7.880  12.260  0.00  0.00    +0.000 C 
ATOM     15  O   UNL     1      53.765   7.575   9.704  0.00  0.00    +0.000 OA
ATOM     16  O   UNL     1      54.211   9.891  10.597  0.00  0.00    +0.000 OA
ENDBRANCH  10  13
ENDBRANCH   5   7
BRANCH   1  17
ATOM     17  N   UNL     1      44.852   7.137  12.800  0.00  0.00    +0.000 N 
ATOM     18  H   UNL     1      44.307   7.309  13.641  0.00  0.00    +0.000 HD
BRANCH  17  19
ATOM     19  C   UNL     1      44.151   6.327  11.807  0.00  0.00    +0.000 C 
BRANCH  19  21
ATOM     20  C   UNL     1      45.770   4.660  12.860  0.00  0.00    +0.000 C 
ATOM     21  C   UNL     1      44.564   4.822  11.901  0.00  0.00    +0.000 C 
ATOM     22  C   UNL     1      43.409   3.981  12.508  0.00  0.00    +0.000 C 
BRANCH  21  23
ATOM     23  C   UNL     1      44.904   4.343  10.479  0.00  0.00    +0.000 A 
ATOM     24  C   UNL     1      44.514   3.083   9.999  0.00  0.00    +0.000 A 
ATOM     25  C   UNL     1      44.837   2.684   8.704  0.00  0.00    +0.000 A 
ATOM     26  C   UNL     1      45.537   3.564   7.902  0.00  0.00    +0.000 A 
ATOM     27  N   UNL     1      45.908   4.795   8.300  0.00  0.00    +0.000 NA
ATOM     28  C   UNL     1      45.583   5.154   9.565  0.00  0.00    +0.000 A 
ENDBRANCH  21  23
ENDBRANCH  19  21
ENDBRANCH  17  19
ENDBRANCH   1  17
TORSDOF 6
ENDMDL
MODEL 4
REMARK VINA RESULT:    -5.520      5.257      8.838
REMARK INTER + INTRA:          -9.136
REMARK INTER:                  -8.962
REMARK INTRA:                  -0.174
REMARK UNBOUND:                -1.680
REMARK  Name = 
REMARK  9 active torsions:
REMARK  status: ('A' for Active; 'I' for Inactive)
REMARK    1  A    between atoms: C_1  and  C_2
REMARK    2  A    between atoms: C_2  and  C_3
REMARK    3  A    between atoms: C_2  and  C_4
REMARK    4  A    between atoms: C_2  and  C_22
REMARK    5  A    between atoms: C_4  and  N_5
REMARK    6  A    between atoms: N_5  and  C_6
REMARK    7  A    between atoms: C_10  and  C_11
REMARK    8  A    between atoms: C_14  and  S_15
REMARK    9  A    between atoms: S_15  and  C_16
REMARK                            x       y       z     vdW  Elec       q    Type
REMARK                         _______ _______ _______ _____ _____    ______ ____
ROOT
ATOM      1  C   UNL     1      45.130   5.562  10.508  0.00  0.00    +0.000 A 
ATOM      2  C   UNL     1      44.091   5.498  11.433  0.00  0.00    +0.000 A 
ATOM      3  C   UNL     1      44.274   5.969  12.734  0.00  0.00    +0.000 A 
ATOM      4  C   UNL     1      45.496   6.523  13.119  0.00  0.00    +0.000 A 
ATOM      5  C   UNL     1      46.570   6.610  12.219  0.00  0.00    +0.000 A 
ATOM      6  C   UNL     1      46.339   6.157  10.910  0.00  0.00    +0.000 A 
ENDROOT
BRANCH   5   7
ATOM      7  C   UNL     1      47.914   7.070  12.636  0.00  0.00    +0.000 A 
ATOM      8  C   UNL     1      48.728   7.791  11.742  0.00  0.00    +0.000 A 
ATOM      9  C   UNL     1      49.966   8.309  12.130  0.00  0.00    +0.000 A 
ATOM     10  C   UNL     1      50.408   8.118  13.436  0.00  0.00    +0.000 A 
ATOM     11  C   UNL     1      49.640   7.393  14.345  0.00  0.00    +0.000 A 
ATOM     12  C   UNL     1      48.406   6.872  13.941  0.00  0.00    +0.000 A 
BRANCH  10  13
ATOM     13  S   UNL     1      52.008   8.730  13.908  0.00  0.00    +0.000 S 
ATOM     14  C   UNL     1      52.926   8.749  12.393  0.00  0.00    +0.000 C 
ATOM     15  O   UNL     1      51.837  10.107  14.340  0.00  0.00    +0.000 OA
ATOM     16  O   UNL     1      52.610   7.748  14.782  0.00  0.00    +0.000 OA
ENDBRANCH  10  13
ENDBRANCH   5   7
BRANCH   1  17
ATOM     17  N   UNL     1      45.049   5.142   9.180  0.00  0.00    +0.000 N 
ATOM     18  H   UNL     1      45.986   5.130   8.784  0.00  0.00    +0.000 HD
BRANCH  17  19
ATOM     19  C   UNL     1      44.238   3.992   8.790  0.00  0.00    +0.000 C 
BRANCH  19  21
ATOM     20  C   UNL     1      45.730   2.656  10.371  0.00  0.00    +0.000 C 
ATOM     21  C   UNL     1      45.010   2.648   8.997  0.00  0.00    +0.000 C 
ATOM     22  C   UNL     1      44.019   1.454   9.033  0.00  0.00    +0.000 C 
BRANCH  21  23
ATOM     23  C   UNL     1      46.009   2.501   7.837  0.00  0.00    +0.000 A 
ATOM     24  C   UNL     1      46.128   3.465   6.824  0.00  0.00    +0.000 A 
ATOM     25  C   UNL     1      47.046   3.301   5.789  0.00  0.00    +0.000 A 
ATOM     26  C   UNL     1      47.845   2.174   5.794  0.00  0.00    +0.000 A 
ATOM     27  N   UNL     1      47.794   1.234   6.756  0.00  0.00    +0.000 NA
ATOM     28  C   UNL     1      46.889   1.419   7.747  0.00  0.00    +0.000 A 
ENDBRANCH  21  23
ENDBRANCH  19  21
ENDBRANCH  17  19
ENDBRANCH   1  17
TORSDOF 6
ENDMDL
MODEL 5
REMARK VINA RESULT:    -5.314      1.937      2.668
REMARK INTER + INTRA:          -8.857
REMARK INTER:                  -7.818
REMARK INTRA:                  -1.039
REMARK UNBOUND:                -1.680
REMARK  Name = 
REMARK  9 active torsions:
REMARK  status: ('A' for Active; 'I' for Inactive)
REMARK    1  A    between atoms: C_1  and  C_2
REMARK    2  A    between atoms: C_2  and  C_3
REMARK    3  A    between atoms: C_2  and  C_4
REMARK    4  A    between atoms: C_2  and  C_22
REMARK    5  A    between atoms: C_4  and  N_5
REMARK    6  A    between atoms: N_5  and  C_6
REMARK    7  A    between atoms: C_10  and  C_11
REMARK    8  A    between atoms: C_14  and  S_15
REMARK    9  A    between atoms: S_15  and  C_16
REMARK                            x       y       z     vdW  Elec       q    Type
REMARK                         _______ _______ _______ _____ _____    ______ ____
ROOT
ATOM      1  C   UNL     1      50.125   8.399  14.256  0.00  0.00    +0.000 A 
ATOM      2  C   UNL     1      50.906   8.768  13.164  0.00  0.00    +0.000 A 
ATOM      3  C   UNL     1      50.517   8.422  11.869  0.00  0.00    +0.000 A 
ATOM      4  C   UNL     1      49.334   7.714  11.653  0.00  0.00    +0.000 A 
ATOM      5  C   UNL     1      48.515   7.323  12.724  0.00  0.00    +0.000 A 
ATOM      6  C   UNL     1      48.921   7.718  14.010  0.00  0.00    +0.000 A 
ENDROOT
BRANCH   5   7
ATOM      7  C   UNL     1      47.327   6.460  12.535  0.00  0.00    +0.000 A 
ATOM      8  C   UNL     1      46.495   6.631  11.414  0.00  0.00    +0.000 A 
ATOM      9  C   UNL     1      45.414   5.781  11.165  0.00  0.00    +0.000 A 
ATOM     10  C   UNL     1      45.154   4.731  12.040  0.00  0.00    +0.000 A 
ATOM     11  C   UNL     1      45.944   4.540  13.172  0.00  0.00    +0.000 A 
ATOM     12  C   UNL     1      47.018   5.404  13.415  0.00  0.00    +0.000 A 
BRANCH  10  13
ATOM     13  S   UNL     1      43.745   3.688  11.749  0.00  0.00    +0.000 S 
ATOM     14  C   UNL     1      44.129   2.857  10.233  0.00  0.00    +0.000 C 
ATOM     15  O   UNL     1      43.716   2.691  12.806  0.00  0.00    +0.000 OA
ATOM     16  O   UNL     1      42.607   4.549  11.510  0.00  0.00    +0.000 OA
ENDBRANCH  10  13
ENDBRANCH   5   7
BRANCH   1  17
ATOM     17  N   UNL     1      50.408   8.711  15.587  0.00  0.00    +0.000 N 
ATOM     18  H   UNL     1      50.234   9.702  15.733  0.00  0.00    +0.000 HD
BRANCH  17  19
ATOM     19  C   UNL     1      49.943   7.869  16.686  0.00  0.00    +0.000 C 
BRANCH  19  21
ATOM     20  C   UNL     1      50.233   9.857  18.259  0.00  0.00    +0.000 C 
ATOM     21  C   UNL     1      49.277   8.720  17.817  0.00  0.00    +0.000 C 
ATOM     22  C   UNL     1      47.992   9.412  17.288  0.00  0.00    +0.000 C 
BRANCH  21  23
ATOM     23  C   UNL     1      48.951   7.770  18.982  0.00  0.00    +0.000 A 
ATOM     24  C   UNL     1      47.779   7.896  19.746  0.00  0.00    +0.000 A 
ATOM     25  C   UNL     1      47.515   7.016  20.793  0.00  0.00    +0.000 A 
ATOM     26  C   UNL     1      48.425   6.010  21.050  0.00  0.00    +0.000 A 
ATOM     27  N   UNL     1      49.548   5.825  20.331  0.00  0.00    +0.000 NA
ATOM     28  C   UNL     1      49.780   6.698  19.321  0.00  0.00    +0.000 A 
ENDBRANCH  21  23
ENDBRANCH  19  21
ENDBRANCH  17  19
ENDBRANCH   1  17
TORSDOF 6
ENDMDL
MODEL 6
REMARK VINA RESULT:    -5.176      5.962      8.444
REMARK INTER + INTRA:          -8.672
REMARK INTER:                  -8.231
REMARK INTRA:                  -0.441
REMARK UNBOUND:                -1.680
REMARK  Name = 
REMARK  9 active torsions:
REMARK  status: ('A' for Active; 'I' for Inactive)
REMARK    1  A    between atoms: C_1  and  C_2
REMARK    2  A    between atoms: C_2  and  C_3
REMARK    3  A    between atoms: C_2  and  C_4
REMARK    4  A    between atoms: C_2  and  C_22
REMARK    5  A    between atoms: C_4  and  N_5
REMARK    6  A    between atoms: N_5  and  C_6
REMARK    7  A    between atoms: C_10  and  C_11
REMARK    8  A    between atoms: C_14  and  S_15
REMARK    9  A    between atoms: S_15  and  C_16
REMARK                            x       y       z     vdW  Elec       q    Type
REMARK                         _______ _______ _______ _____ _____    ______ ____
ROOT
ATOM      1  C   UNL     1      46.903   7.125  11.985  0.00  0.00    +0.000 A 
ATOM      2  C   UNL     1      46.246   7.926  12.914  0.00  0.00    +0.000 A 
ATOM      3  C   UNL     1      46.949   8.890  13.638  0.00  0.00    +0.000 A 
ATOM      4  C   UNL     1      48.318   9.071  13.428  0.00  0.00    +0.000 A 
ATOM      5  C   UNL     1      49.019   8.287  12.500  0.00  0.00    +0.000 A 
ATOM      6  C   UNL     1      48.272   7.350  11.766  0.00  0.00    +0.000 A 
ENDROOT
BRANCH   5   7
ATOM      7  C   UNL     1      50.491   8.366  12.352  0.00  0.00    +0.000 A 
ATOM      8  C   UNL     1      51.305   8.620  13.471  0.00  0.00    +0.000 A 
ATOM      9  C   UNL     1      52.700   8.619  13.380  0.00  0.00    +0.000 A 
ATOM     10  C   UNL     1      53.305   8.353  12.155  0.00  0.00    +0.000 A 
ATOM     11  C   UNL     1      52.532   8.116  11.020  0.00  0.00    +0.000 A 
ATOM     12  C   UNL     1      51.136   8.129  11.123  0.00  0.00    +0.000 A 
BRANCH  10  13
ATOM     13  S   UNL     1      55.077   8.410  12.033  0.00  0.00    +0.000 S 
ATOM     14  C   UNL     1      55.445   7.394  10.630  0.00  0.00    +0.000 C 
ATOM     15  O   UNL     1      55.446   9.775  11.701  0.00  0.00    +0.000 OA
ATOM     16  O   UNL     1      55.615   7.761  13.208  0.00  0.00    +0.000 OA
ENDBRANCH  10  13
ENDBRANCH   5   7
BRANCH   1  17
ATOM     17  N   UNL     1      46.294   6.150  11.194  0.00  0.00    +0.000 N 
ATOM     18  H   UNL     1      46.856   5.303  11.230  0.00  0.00    +0.000 HD
BRANCH  17  19
ATOM     19  C   UNL     1      44.857   5.896  11.262  0.00  0.00    +0.000 C 
BRANCH  19  21
ATOM     20  C   UNL     1      45.198   3.659  12.439  0.00  0.00    +0.000 C 
ATOM     21  C   UNL     1      44.542   4.365  11.225  0.00  0.00    +0.000 C 
ATOM     22  C   UNL     1      43.014   4.124  11.356  0.00  0.00    +0.000 C 
BRANCH  21  23
ATOM     23  C   UNL     1      45.075   3.812   9.893  0.00  0.00    +0.000 A 
ATOM     24  C   UNL     1      45.165   2.434   9.636  0.00  0.00    +0.000 A 
ATOM     25  C   UNL     1      45.650   1.968   8.416  0.00  0.00    +0.000 A 
ATOM     26  C   UNL     1      46.025   2.895   7.463  0.00  0.00    +0.000 A 
ATOM     27  N   UNL     1      45.932   4.225   7.645  0.00  0.00    +0.000 NA
ATOM     28  C   UNL     1      45.459   4.648   8.842  0.00  0.00    +0.000 A 
ENDBRANCH  21  23
ENDBRANCH  19  21
ENDBRANCH  17  19
ENDBRANCH   1  17
TORSDOF 6
ENDMDL
MODEL 7
REMARK VINA RESULT:    -4.994      1.591      2.322
REMARK INTER + INTRA:          -8.426
REMARK INTER:                  -7.267
REMARK INTRA:                  -1.159
REMARK UNBOUND:                -1.680
REMARK  Name = 
REMARK  9 active torsions:
REMARK  status: ('A' for Active; 'I' for Inactive)
REMARK    1  A    between atoms: C_1  and  C_2
REMARK    2  A    between atoms: C_2  and  C_3
REMARK    3  A    between atoms: C_2  and  C_4
REMARK    4  A    between atoms: C_2  and  C_22
REMARK    5  A    between atoms: C_4  and  N_5
REMARK    6  A    between atoms: N_5  and  C_6
REMARK    7  A    between atoms: C_10  and  C_11
REMARK    8  A    between atoms: C_14  and  S_15
REMARK    9  A    between atoms: S_15  and  C_16
REMARK                            x       y       z     vdW  Elec       q    Type
REMARK                         _______ _______ _______ _____ _____    ______ ____
ROOT
ATOM      1  C   UNL     1      49.746   9.197  14.386  0.00  0.00    +0.000 A 
ATOM      2  C   UNL     1      50.635   9.463  13.349  0.00  0.00    +0.000 A 
ATOM      3  C   UNL     1      50.403   8.951  12.071  0.00  0.00    +0.000 A 
ATOM      4  C   UNL     1      49.268   8.179  11.816  0.00  0.00    +0.000 A 
ATOM      5  C   UNL     1      48.344   7.889  12.831  0.00  0.00    +0.000 A 
ATOM      6  C   UNL     1      48.593   8.448  14.095  0.00  0.00    +0.000 A 
ENDROOT
BRANCH   5   7
ATOM      7  C   UNL     1      47.205   6.966  12.622  0.00  0.00    +0.000 A 
ATOM      8  C   UNL     1      46.165   7.309  11.737  0.00  0.00    +0.000 A 
ATOM      9  C   UNL     1      45.119   6.427  11.455  0.00  0.00    +0.000 A 
ATOM     10  C   UNL     1      45.103   5.171  12.056  0.00  0.00    +0.000 A 
ATOM     11  C   UNL     1      46.104   4.802  12.953  0.00  0.00    +0.000 A 
ATOM     12  C   UNL     1      47.141   5.699  13.233  0.00  0.00    +0.000 A 
BRANCH  10  13
ATOM     13  S   UNL     1      43.741   4.075  11.738  0.00  0.00    +0.000 S 
ATOM     14  C   UNL     1      42.324   5.138  11.736  0.00  0.00    +0.000 C 
ATOM     15  O   UNL     1      43.907   3.554  10.392  0.00  0.00    +0.000 OA
ATOM     16  O   UNL     1      43.627   3.182  12.870  0.00  0.00    +0.000 OA
ENDBRANCH  10  13
ENDBRANCH   5   7
BRANCH   1  17
ATOM     17  N   UNL     1      49.870   9.676  15.691  0.00  0.00    +0.000 N 
ATOM     18  H   UNL     1      49.671  10.673  15.693  0.00  0.00    +0.000 HD
BRANCH  17  19
ATOM     19  C   UNL     1      49.287   8.964  16.826  0.00  0.00    +0.000 C 
BRANCH  19  21
ATOM     20  C   UNL     1      51.769   8.397  16.992  0.00  0.00    +0.000 C 
ATOM     21  C   UNL     1      50.370   8.156  17.614  0.00  0.00    +0.000 C 
ATOM     22  C   UNL     1      50.455   8.654  19.082  0.00  0.00    +0.000 C 
BRANCH  21  23
ATOM     23  C   UNL     1      49.974   6.671  17.558  0.00  0.00    +0.000 A 
ATOM     24  C   UNL     1      50.420   5.741  18.510  0.00  0.00    +0.000 A 
ATOM     25  C   UNL     1      50.038   4.403  18.431  0.00  0.00    +0.000 A 
ATOM     26  C   UNL     1      49.200   4.020  17.402  0.00  0.00    +0.000 A 
ATOM     27  N   UNL     1      48.718   4.876  16.481  0.00  0.00    +0.000 NA
ATOM     28  C   UNL     1      49.109   6.169  16.582  0.00  0.00    +0.000 A 
ENDBRANCH  21  23
ENDBRANCH  19  21
ENDBRANCH  17  19
ENDBRANCH   1  17
TORSDOF 6
ENDMDL
MODEL 8
REMARK VINA RESULT:    -4.900      1.873      2.606
REMARK INTER + INTRA:          -8.298
REMARK INTER:                  -6.693
REMARK INTRA:                  -1.605
REMARK UNBOUND:                -1.680
REMARK  Name = 
REMARK  9 active torsions:
REMARK  status: ('A' for Active; 'I' for Inactive)
REMARK    1  A    between atoms: C_1  and  C_2
REMARK    2  A    between atoms: C_2  and  C_3
REMARK    3  A    between atoms: C_2  and  C_4
REMARK    4  A    between atoms: C_2  and  C_22
REMARK    5  A    between atoms: C_4  and  N_5
REMARK    6  A    between atoms: N_5  and  C_6
REMARK    7  A    between atoms: C_10  and  C_11
REMARK    8  A    between atoms: C_14  and  S_15
REMARK    9  A    between atoms: S_15  and  C_16
REMARK                            x       y       z     vdW  Elec       q    Type
REMARK                         _______ _______ _______ _____ _____    ______ ____
ROOT
ATOM      1  C   UNL     1      49.217   9.425  16.003  0.00  0.00    +0.000 A 
ATOM      2  C   UNL     1      50.558   9.141  15.756  0.00  0.00    +0.000 A 
ATOM      3  C   UNL     1      50.912   8.148  14.841  0.00  0.00    +0.000 A 
ATOM      4  C   UNL     1      49.927   7.439  14.152  0.00  0.00    +0.000 A 
ATOM      5  C   UNL     1      48.564   7.695  14.367  0.00  0.00    +0.000 A 
ATOM      6  C   UNL     1      48.245   8.723  15.270  0.00  0.00    +0.000 A 
ENDROOT
BRANCH   5   7
ATOM      7  C   UNL     1      47.499   6.871  13.751  0.00  0.00    +0.000 A 
ATOM      8  C   UNL     1      47.369   5.510  14.085  0.00  0.00    +0.000 A 
ATOM      9  C   UNL     1      46.327   4.727  13.585  0.00  0.00    +0.000 A 
ATOM     10  C   UNL     1      45.383   5.303  12.739  0.00  0.00    +0.000 A 
ATOM     11  C   UNL     1      45.488   6.643  12.369  0.00  0.00    +0.000 A 
ATOM     12  C   UNL     1      46.543   7.414  12.871  0.00  0.00    +0.000 A 
BRANCH  10  13
ATOM     13  S   UNL     1      44.092   4.288  12.060  0.00  0.00    +0.000 S 
ATOM     14  C   UNL     1      42.654   5.321  12.123  0.00  0.00    +0.000 C 
ATOM     15  O   UNL     1      44.411   4.057  10.662  0.00  0.00    +0.000 OA
ATOM     16  O   UNL     1      43.886   3.181  12.967  0.00  0.00    +0.000 OA
ENDBRANCH  10  13
ENDBRANCH   5   7
BRANCH   1  17
ATOM     17  N   UNL     1      48.754  10.409  16.878  0.00  0.00    +0.000 N 
ATOM     18  H   UNL     1      48.638  11.277  16.361  0.00  0.00    +0.000 HD
BRANCH  17  19
ATOM     19  C   UNL     1      47.671  10.145  17.822  0.00  0.00    +0.000 C 
BRANCH  19  21
ATOM     20  C   UNL     1      49.415  10.504  19.649  0.00  0.00    +0.000 C 
ATOM     21  C   UNL     1      48.218   9.630  19.193  0.00  0.00    +0.000 C 
ATOM     22  C   UNL     1      47.133   9.769  20.295  0.00  0.00    +0.000 C 
BRANCH  21  23
ATOM     23  C   UNL     1      48.630   8.160  19.008  0.00  0.00    +0.000 A 
ATOM     24  C   UNL     1      47.737   7.186  18.534  0.00  0.00    +0.000 A 
ATOM     25  C   UNL     1      48.146   5.863  18.375  0.00  0.00    +0.000 A 
ATOM     26  C   UNL     1      49.453   5.540  18.682  0.00  0.00    +0.000 A 
ATOM     27  N   UNL     1      50.358   6.439  19.111  0.00  0.00    +0.000 NA
ATOM     28  C   UNL     1      49.931   7.716  19.259  0.00  0.00    +0.000 A 
ENDBRANCH  21  23
ENDBRANCH  19  21
ENDBRANCH  17  19
ENDBRANCH   1  17
TORSDOF 6
ENDMDL
MODEL 9
REMARK VINA RESULT:    -4.444     11.516     13.657
REMARK INTER + INTRA:          -7.683
REMARK INTER:                  -5.867
REMARK INTRA:                  -1.816
REMARK UNBOUND:                -1.680
REMARK  Name = 
REMARK  9 active torsions:
REMARK  status: ('A' for Active; 'I' for Inactive)
REMARK    1  A    between atoms: C_1  and  C_2
REMARK    2  A    between atoms: C_2  and  C_3
REMARK    3  A    between atoms: C_2  and  C_4
REMARK    4  A    between atoms: C_2  and  C_22
REMARK    5  A    between atoms: C_4  and  N_5
REMARK    6  A    between atoms: N_5  and  C_6
REMARK    7  A    between atoms: C_10  and  C_11
REMARK    8  A    between atoms: C_14  and  S_15
REMARK    9  A    between atoms: S_15  and  C_16
REMARK                            x       y       z     vdW  Elec       q    Type
REMARK                         _______ _______ _______ _____ _____    ______ ____
ROOT
ATOM      1  C   UNL     1      40.327  -2.742  16.105  0.00  0.00    +0.000 A 
ATOM      2  C   UNL     1      39.615  -2.353  17.236  0.00  0.00    +0.000 A 
ATOM      3  C   UNL     1      40.056  -2.718  18.509  0.00  0.00    +0.000 A 
ATOM      4  C   UNL     1      41.224  -3.466  18.664  0.00  0.00    +0.000 A 
ATOM      5  C   UNL     1      41.974  -3.878  17.552  0.00  0.00    +0.000 A 
ATOM      6  C   UNL     1      41.519  -3.464  16.289  0.00  0.00    +0.000 A 
ENDROOT
BRANCH   5   7
ATOM      7  C   UNL     1      43.141  -4.781  17.678  0.00  0.00    +0.000 A 
ATOM      8  C   UNL     1      43.191  -5.985  16.949  0.00  0.00    +0.000 A 
ATOM      9  C   UNL     1      44.312  -6.818  16.983  0.00  0.00    +0.000 A 
ATOM     10  C   UNL     1      45.415  -6.450  17.748  0.00  0.00    +0.000 A 
ATOM     11  C   UNL     1      45.397  -5.275  18.499  0.00  0.00    +0.000 A 
ATOM     12  C   UNL     1      44.264  -4.454  18.463  0.00  0.00    +0.000 A 
BRANCH  10  13
ATOM     13  S   UNL     1      46.815  -7.541  17.832  0.00  0.00    +0.000 S 
ATOM     14  C   UNL     1      48.205  -6.482  17.541  0.00  0.00    +0.000 C 
ATOM     15  O   UNL     1      46.906  -8.027  19.198  0.00  0.00    +0.000 OA
ATOM     16  O   UNL     1      46.717  -8.462  16.722  0.00  0.00    +0.000 OA
ENDBRANCH  10  13
ENDBRANCH   5   7
BRANCH   1  17
ATOM     17  N   UNL     1      39.989  -2.415  14.792  0.00  0.00    +0.000 N 
ATOM     18  H   UNL     1      40.784  -1.953  14.356  0.00  0.00    +0.000 HD
BRANCH  17  19
ATOM     19  C   UNL     1      39.318  -3.369  13.913  0.00  0.00    +0.000 C 
BRANCH  19  21
ATOM     20  C   UNL     1      39.513  -4.006  11.450  0.00  0.00    +0.000 C 
ATOM     21  C   UNL     1      40.277  -3.891  12.794  0.00  0.00    +0.000 C 
ATOM     22  C   UNL     1      41.430  -2.879  12.553  0.00  0.00    +0.000 C 
BRANCH  21  23
ATOM     23  C   UNL     1      40.827  -5.253  13.250  0.00  0.00    +0.000 A 
ATOM     24  C   UNL     1      40.119  -6.092  14.124  0.00  0.00    +0.000 A 
ATOM     25  C   UNL     1      40.646  -7.322  14.514  0.00  0.00    +0.000 A 
ATOM     26  C   UNL     1      41.874  -7.699  14.006  0.00  0.00    +0.000 A 
ATOM     27  N   UNL     1      42.581  -6.948  13.142  0.00  0.00    +0.000 NA
ATOM     28  C   UNL     1      42.045  -5.756  12.784  0.00  0.00    +0.000 A 
ENDBRANCH  21  23
ENDBRANCH  19  21
ENDBRANCH  17  19
ENDBRANCH   1  17
TORSDOF 6
ENDMDL
