MODEL 1
REMARK VINA RESULT:    -9.251      0.000      0.000
REMARK INTER + INTRA:         -12.329
REMARK INTER:                 -11.414
REMARK INTRA:                  -0.915
REMARK UNBOUND:                -0.915
REMARK  Name = 
REMARK  4 active torsions:
REMARK  status: ('A' for Active; 'I' for Inactive)
REMARK    1  A    between atoms: C_2  and  C_4
REMARK    2  A    between atoms: N_8  and  C_9
REMARK    3  A    between atoms: C_9  and  C_10
REMARK    4  A    between atoms: C_14  and  C_15
REMARK                            x       y       z     vdW  Elec       q    Type
REMARK                         _______ _______ _______ _____ _____    ______ ____
ROOT
ATOM      1  C   UNL     1      43.433   4.859  11.029  0.00  0.00    +0.000 C 
ENDROOT
BRANCH   1   6
ATOM      2  C   UNL     1      46.357   2.289   7.687  0.00  0.00    +0.000 A 
ATOM      3  C   UNL     1      45.641   1.799   8.775  0.00  0.00    +0.000 A 
ATOM      4  C   UNL     1      44.776   2.654   9.458  0.00  0.00    +0.000 A 
ATOM      5  C   UNL     1      44.649   3.980   9.054  0.00  0.00    +0.000 A 
ATOM      6  N   UNL     1      43.774   4.872   9.624  0.00  0.00    +0.000 N 
ATOM      7  N   UNL     1      45.346   4.464   8.007  0.00  0.00    +0.000 NA
ATOM      8  C   UNL     1      46.188   3.623   7.354  0.00  0.00    +0.000 A 
ATOM      9  H   UNL     1      43.913   5.791   9.215  0.00  0.00    +0.000 HD
BRANCH   2  11
ATOM     10  N   UNL     1      48.432   2.063   6.443  0.00  0.00    +0.000 N 
ATOM     11  C   UNL     1      47.291   1.462   6.899  0.00  0.00    +0.000 C 
ATOM     12  O   UNL     1      47.071   0.275   6.686  0.00  0.00    +0.000 OA
ATOM     13  H   UNL     1      49.107   1.457   5.994  0.00  0.00    +0.000 HD
ATOM     14  H   UNL     1      48.766   2.943   6.808  0.00  0.00    +0.000 HD
ENDBRANCH   2  11
ENDBRANCH   1   6
BRANCH   1  15
ATOM     15  C   UNL     1      44.582   5.119  11.981  0.00  0.00    +0.000 A 
ATOM     16  C   UNL     1      45.069   4.194  12.909  0.00  0.00    +0.000 A 
ATOM     17  C   UNL     1      46.166   4.513  13.709  0.00  0.00    +0.000 A 
ATOM     18  C   UNL     1      46.805   5.748  13.574  0.00  0.00    +0.000 A 
ATOM     19  C   UNL     1      46.377   6.690  12.625  0.00  0.00    +0.000 A 
ATOM     20  C   UNL     1      45.235   6.365  11.871  0.00  0.00    +0.000 A 
BRANCH  19  21
ATOM     21  C   UNL     1      47.159   7.916  12.333  0.00  0.00    +0.000 A 
ATOM     22  C   UNL     1      48.512   7.823  11.947  0.00  0.00    +0.000 A 
ATOM     23  C   UNL     1      49.244   8.945  11.546  0.00  0.00    +0.000 A 
ATOM     24  C   UNL     1      48.635  10.192  11.517  0.00  0.00    +0.000 A 
ATOM     25  C   UNL     1      47.308  10.307  11.910  0.00  0.00    +0.000 A 
ATOM     26  F   UNL     1      46.712  11.508  11.867  0.00  0.00    +0.000 F 
ATOM     27  C   UNL     1      46.577   9.195  12.326  0.00  0.00    +0.000 A 
ENDBRANCH  19  21
ENDBRANCH   1  15
TORSDOF 4
ENDMDL
MODEL 2
REMARK VINA RESULT:    -8.255      2.912      4.276
REMARK INTER + INTRA:         -11.101
REMARK INTER:                 -10.310
REMARK INTRA:                  -0.791
REMARK UNBOUND:                -0.915
REMARK  Name = 
REMARK  4 active torsions:
REMARK  status: ('A' for Active; 'I' for Inactive)
REMARK    1  A    between atoms: C_2  and  C_4
REMARK    2  A    between atoms: N_8  and  C_9
REMARK    3  A    between atoms: C_9  and  C_10
REMARK    4  A    between atoms: C_14  and  C_15
REMARK                            x       y       z     vdW  Elec       q    Type
REMARK                         _______ _______ _______ _____ _____    ______ ____
ROOT
ATOM      1  C   UNL     1      44.526   5.096  11.511  0.00  0.00    +0.000 C 
ENDROOT
BRANCH   1   6
ATOM      2  C   UNL     1      46.495   2.534   7.525  0.00  0.00    +0.000 A 
ATOM      3  C   UNL     1      46.022   2.034   8.733  0.00  0.00    +0.000 A 
ATOM      4  C   UNL     1      45.374   2.897   9.618  0.00  0.00    +0.000 A 
ATOM      5  C   UNL     1      45.222   4.241   9.288  0.00  0.00    +0.000 A 
ATOM      6  N   UNL     1      44.541   5.146  10.066  0.00  0.00    +0.000 N 
ATOM      7  N   UNL     1      45.686   4.735   8.124  0.00  0.00    +0.000 NA
ATOM      8  C   UNL     1      46.317   3.885   7.274  0.00  0.00    +0.000 A 
ATOM      9  H   UNL     1      44.627   6.073   9.660  0.00  0.00    +0.000 HD
BRANCH   2  11
ATOM     10  N   UNL     1      47.979   2.340   5.611  0.00  0.00    +0.000 N 
ATOM     11  C   UNL     1      47.187   1.700   6.523  0.00  0.00    +0.000 C 
ATOM     12  O   UNL     1      47.082   0.478   6.526  0.00  0.00    +0.000 OA
ATOM     13  H   UNL     1      48.524   1.746   4.999  0.00  0.00    +0.000 HD
ATOM     14  H   UNL     1      48.290   3.293   5.735  0.00  0.00    +0.000 HD
ENDBRANCH   2  11
ENDBRANCH   1   6
BRANCH   1  15
ATOM     15  C   UNL     1      45.685   5.789  12.198  0.00  0.00    +0.000 A 
ATOM     16  C   UNL     1      46.196   7.036  11.829  0.00  0.00    +0.000 A 
ATOM     17  C   UNL     1      47.236   7.612  12.557  0.00  0.00    +0.000 A 
ATOM     18  C   UNL     1      47.761   6.963  13.677  0.00  0.00    +0.000 A 
ATOM     19  C   UNL     1      47.249   5.729  14.110  0.00  0.00    +0.000 A 
ATOM     20  C   UNL     1      46.238   5.145  13.325  0.00  0.00    +0.000 A 
BRANCH  19  21
ATOM     21  C   UNL     1      47.654   5.124  15.402  0.00  0.00    +0.000 A 
ATOM     22  C   UNL     1      48.595   5.773  16.229  0.00  0.00    +0.000 A 
ATOM     23  C   UNL     1      48.909   5.295  17.505  0.00  0.00    +0.000 A 
ATOM     24  C   UNL     1      48.282   4.155  17.988  0.00  0.00    +0.000 A 
ATOM     25  C   UNL     1      47.366   3.492  17.183  0.00  0.00    +0.000 A 
ATOM     26  F   UNL     1      46.747   2.399  17.654  0.00  0.00    +0.000 F 
ATOM     27  C   UNL     1      47.060   3.953  15.903  0.00  0.00    +0.000 A 
ENDBRANCH  19  21
ENDBRANCH   1  15
TORSDOF 4
ENDMDL
MODEL 3
REMARK VINA RESULT:    -8.005      5.289      8.163
REMARK INTER + INTRA:         -10.792
REMARK INTER:                 -10.252
REMARK INTRA:                  -0.540
REMARK UNBOUND:                -0.915
REMARK  Name = 
REMARK  4 active torsions:
REMARK  status: ('A' for Active; 'I' for Inactive)
REMARK    1  A    between atoms: C_2  and  C_4
REMARK    2  A    between atoms: N_8  and  C_9
REMARK    3  A    between atoms: C_9  and  C_10
REMARK    4  A    between atoms: C_14  and  C_15
REMARK                            x       y       z     vdW  Elec       q    Type
REMARK                         _______ _______ _______ _____ _____    ______ ____
ROOT
ATOM      1  C   UNL     1      46.172   5.399  13.771  0.00  0.00    +0.000 C 
ENDROOT
BRANCH   1   6
ATOM      2  C   UNL     1      49.544   4.110  17.418  0.00  0.00    +0.000 A 
ATOM      3  C   UNL     1      49.220   5.375  16.939  0.00  0.00    +0.000 A 
ATOM      4  C   UNL     1      48.150   5.512  16.054  0.00  0.00    +0.000 A 
ATOM      5  C   UNL     1      47.433   4.388  15.653  0.00  0.00    +0.000 A 
ATOM      6  N   UNL     1      46.327   4.438  14.840  0.00  0.00    +0.000 N 
ATOM      7  N   UNL     1      47.747   3.158  16.106  0.00  0.00    +0.000 NA
ATOM      8  C   UNL     1      48.792   3.039  16.964  0.00  0.00    +0.000 A 
ATOM      9  H   UNL     1      46.020   3.493  14.628  0.00  0.00    +0.000 HD
BRANCH   2  11
ATOM     10  N   UNL     1      50.502   4.319  19.641  0.00  0.00    +0.000 N 
ATOM     11  C   UNL     1      50.652   3.864  18.360  0.00  0.00    +0.000 C 
ATOM     12  O   UNL     1      51.656   3.248  18.019  0.00  0.00    +0.000 OA
ATOM     13  H   UNL     1      51.225   4.053  20.297  0.00  0.00    +0.000 HD
ATOM     14  H   UNL     1      49.606   4.592  20.019  0.00  0.00    +0.000 HD
ENDBRANCH   2  11
ENDBRANCH   1   6
BRANCH   1  15
ATOM     15  C   UNL     1      45.139   5.045  12.721  0.00  0.00    +0.000 A 
ATOM     16  C   UNL     1      43.805   5.460  12.748  0.00  0.00    +0.000 A 
ATOM     17  C   UNL     1      42.942   5.120  11.708  0.00  0.00    +0.000 A 
ATOM     18  C   UNL     1      43.407   4.384  10.615  0.00  0.00    +0.000 A 
ATOM     19  C   UNL     1      44.749   3.982  10.525  0.00  0.00    +0.000 A 
ATOM     20  C   UNL     1      45.583   4.291  11.615  0.00  0.00    +0.000 A 
BRANCH  19  21
ATOM     21  C   UNL     1      45.303   3.376   9.290  0.00  0.00    +0.000 A 
ATOM     22  C   UNL     1      45.752   4.196   8.234  0.00  0.00    +0.000 A 
ATOM     23  C   UNL     1      46.391   3.665   7.109  0.00  0.00    +0.000 A 
ATOM     24  C   UNL     1      46.600   2.296   7.015  0.00  0.00    +0.000 A 
ATOM     25  C   UNL     1      46.150   1.471   8.037  0.00  0.00    +0.000 A 
ATOM     26  F   UNL     1      46.365   0.149   7.957  0.00  0.00    +0.000 F 
ATOM     27  C   UNL     1      45.498   1.991   9.154  0.00  0.00    +0.000 A 
ENDBRANCH  19  21
ENDBRANCH   1  15
TORSDOF 4
ENDMDL
MODEL 4
REMARK VINA RESULT:    -7.904      4.466      7.488
REMARK INTER + INTRA:         -10.668
REMARK INTER:                 -10.250
REMARK INTRA:                  -0.418
REMARK UNBOUND:                -0.915
REMARK  Name = 
REMARK  4 active torsions:
REMARK  status: ('A' for Active; 'I' for Inactive)
REMARK    1  A    between atoms: C_2  and  C_4
REMARK    2  A    between atoms: N_8  and  C_9
REMARK    3  A    between atoms: C_9  and  C_10
REMARK    4  A    between atoms: C_14  and  C_15
REMARK                            x       y       z     vdW  Elec       q    Type
REMARK                         _______ _______ _______ _____ _____    ______ ____
ROOT
ATOM      1  C   UNL     1      45.510   7.062  11.782  0.00  0.00    +0.000 C 
ENDROOT
BRANCH   1   6
ATOM      2  C   UNL     1      47.916   4.914  15.773  0.00  0.00    +0.000 A 
ATOM      3  C   UNL     1      46.846   4.422  15.033  0.00  0.00    +0.000 A 
ATOM      4  C   UNL     1      46.450   5.098  13.879  0.00  0.00    +0.000 A 
ATOM      5  C   UNL     1      47.118   6.257  13.491  0.00  0.00    +0.000 A 
ATOM      6  N   UNL     1      46.841   6.948  12.337  0.00  0.00    +0.000 N 
ATOM      7  N   UNL     1      48.150   6.745  14.208  0.00  0.00    +0.000 NA
ATOM      8  C   UNL     1      48.522   6.079  15.330  0.00  0.00    +0.000 A 
ATOM      9  H   UNL     1      47.402   7.794  12.306  0.00  0.00    +0.000 HD
BRANCH   2  11
ATOM     10  N   UNL     1      47.482   3.871  17.924  0.00  0.00    +0.000 N 
ATOM     11  C   UNL     1      48.412   4.267  17.002  0.00  0.00    +0.000 C 
ATOM     12  O   UNL     1      49.608   4.062  17.180  0.00  0.00    +0.000 OA
ATOM     13  H   UNL     1      47.832   3.339  18.711  0.00  0.00    +0.000 HD
ATOM     14  H   UNL     1      46.500   3.788  17.704  0.00  0.00    +0.000 HD
ENDBRANCH   2  11
ENDBRANCH   1   6
BRANCH   1  15
ATOM     15  C   UNL     1      44.861   5.755  11.374  0.00  0.00    +0.000 A 
ATOM     16  C   UNL     1      43.630   5.297  11.851  0.00  0.00    +0.000 A 
ATOM     17  C   UNL     1      43.094   4.101  11.377  0.00  0.00    +0.000 A 
ATOM     18  C   UNL     1      43.767   3.361  10.402  0.00  0.00    +0.000 A 
ATOM     19  C   UNL     1      44.986   3.804   9.863  0.00  0.00    +0.000 A 
ATOM     20  C   UNL     1      45.530   4.985  10.400  0.00  0.00    +0.000 A 
BRANCH  19  21
ATOM     21  C   UNL     1      45.612   3.140   8.694  0.00  0.00    +0.000 A 
ATOM     22  C   UNL     1      46.084   3.905   7.608  0.00  0.00    +0.000 A 
ATOM     23  C   UNL     1      46.788   3.325   6.548  0.00  0.00    +0.000 A 
ATOM     24  C   UNL     1      47.040   1.960   6.551  0.00  0.00    +0.000 A 
ATOM     25  C   UNL     1      46.568   1.187   7.603  0.00  0.00    +0.000 A 
ATOM     26  F   UNL     1      46.825  -0.130   7.618  0.00  0.00    +0.000 F 
ATOM     27  C   UNL     1      45.852   1.755   8.656  0.00  0.00    +0.000 A 
ENDBRANCH  19  21
ENDBRANCH   1  15
TORSDOF 4
ENDMDL
MODEL 5
REMARK VINA RESULT:    -7.846      4.256      7.235
REMARK INTER + INTRA:         -10.596
REMARK INTER:                 -10.097
REMARK INTRA:                  -0.499
REMARK UNBOUND:                -0.915
REMARK  Name = 
REMARK  4 active torsions:
REMARK  status: ('A' for Active; 'I' for Inactive)
REMARK    1  A    between atoms: C_2  and  C_4
REMARK    2  A    between atoms: N_8  and  C_9
REMARK    3  A    between atoms: C_9  and  C_10
REMARK    4  A    between atoms: C_14  and  C_15
REMARK                            x       y       z     vdW  Elec       q    Type
REMARK                         _______ _______ _______ _____ _____    ______ ____
ROOT
ATOM      1  C   UNL     1      43.880   6.749  11.352  0.00  0.00    +0.000 C 
ENDROOT
BRANCH   1   6
ATOM      2  C   UNL     1      48.287   7.117  13.954  0.00  0.00    +0.000 A 
ATOM      3  C   UNL     1      47.461   6.009  13.791  0.00  0.00    +0.000 A 
ATOM      4  C   UNL     1      46.389   6.087  12.903  0.00  0.00    +0.000 A 
ATOM      5  C   UNL     1      46.151   7.268  12.204  0.00  0.00    +0.000 A 
ATOM      6  N   UNL     1      45.162   7.412  11.262  0.00  0.00    +0.000 N 
ATOM      7  N   UNL     1      46.941   8.348  12.363  0.00  0.00    +0.000 NA
ATOM      8  C   UNL     1      47.979   8.259  13.234  0.00  0.00    +0.000 A 
ATOM      9  H   UNL     1      45.135   8.376  10.944  0.00  0.00    +0.000 HD
BRANCH   2  11
ATOM     10  N   UNL     1      50.344   8.154  14.727  0.00  0.00    +0.000 N 
ATOM     11  C   UNL     1      49.448   7.130  14.864  0.00  0.00    +0.000 C 
ATOM     12  O   UNL     1      49.591   6.274  15.731  0.00  0.00    +0.000 OA
ATOM     13  H   UNL     1      51.076   8.203  15.425  0.00  0.00    +0.000 HD
ATOM     14  H   UNL     1      50.130   8.997  14.215  0.00  0.00    +0.000 HD
ENDBRANCH   2  11
ENDBRANCH   1   6
BRANCH   1  15
ATOM     15  C   UNL     1      43.913   5.243  11.188  0.00  0.00    +0.000 A 
ATOM     16  C   UNL     1      43.146   4.346  11.935  0.00  0.00    +0.000 A 
ATOM     17  C   UNL     1      43.213   2.978  11.675  0.00  0.00    +0.000 A 
ATOM     18  C   UNL     1      44.026   2.492  10.649  0.00  0.00    +0.000 A 
ATOM     19  C   UNL     1      44.781   3.360   9.844  0.00  0.00    +0.000 A 
ATOM     20  C   UNL     1      44.738   4.729  10.165  0.00  0.00    +0.000 A 
BRANCH  19  21
ATOM     21  C   UNL     1      45.491   2.884   8.632  0.00  0.00    +0.000 A 
ATOM     22  C   UNL     1      45.895   3.799   7.637  0.00  0.00    +0.000 A 
ATOM     23  C   UNL     1      46.671   3.404   6.543  0.00  0.00    +0.000 A 
ATOM     24  C   UNL     1      47.066   2.079   6.420  0.00  0.00    +0.000 A 
ATOM     25  C   UNL     1      46.664   1.160   7.379  0.00  0.00    +0.000 A 
ATOM     26  F   UNL     1      47.058  -0.118   7.271  0.00  0.00    +0.000 F 
ATOM     27  C   UNL     1      45.876   1.543   8.464  0.00  0.00    +0.000 A 
ENDBRANCH  19  21
ENDBRANCH   1  15
TORSDOF 4
ENDMDL
MODEL 6
REMARK VINA RESULT:    -7.668      4.130      7.185
REMARK INTER + INTRA:         -10.377
REMARK INTER:                  -9.513
REMARK INTRA:                  -0.863
REMARK UNBOUND:                -0.915
REMARK  Name = 
REMARK  4 active torsions:
REMARK  status: ('A' for Active; 'I' for Inactive)
REMARK    1  A    between atoms: C_2  and  C_4
REMARK    2  A    between atoms: N_8  and  C_9
REMARK    3  A    between atoms: C_9  and  C_10
REMARK    4  A    between atoms: C_14  and  C_15
REMARK                            x       y       z     vdW  Elec       q    Type
REMARK                         _______ _______ _______ _____ _____    ______ ____
ROOT
ATOM      1  C   UNL     1      45.793   4.830  13.921  0.00  0.00    +0.000 C 
ENDROOT
BRANCH   1   6
ATOM      2  C   UNL     1      48.160   8.960  12.005  0.00  0.00    +0.000 A 
ATOM      3  C   UNL     1      46.971   8.892  12.723  0.00  0.00    +0.000 A 
ATOM      4  C   UNL     1      46.590   7.677  13.294  0.00  0.00    +0.000 A 
ATOM      5  C   UNL     1      47.393   6.552  13.127  0.00  0.00    +0.000 A 
ATOM      6  N   UNL     1      47.131   5.335  13.707  0.00  0.00    +0.000 N 
ATOM      7  N   UNL     1      48.541   6.607  12.424  0.00  0.00    +0.000 NA
ATOM      8  C   UNL     1      48.897   7.795  11.872  0.00  0.00    +0.000 A 
ATOM      9  H   UNL     1      47.810   4.652  13.384  0.00  0.00    +0.000 HD
BRANCH   2  11
ATOM     10  N   UNL     1      47.727  11.169  11.091  0.00  0.00    +0.000 N 
ATOM     11  C   UNL     1      48.649  10.198  11.370  0.00  0.00    +0.000 C 
ATOM     12  O   UNL     1      49.840  10.366  11.129  0.00  0.00    +0.000 OA
ATOM     13  H   UNL     1      48.095  12.049  10.752  0.00  0.00    +0.000 HD
ATOM     14  H   UNL     1      46.804  11.176  11.501  0.00  0.00    +0.000 HD
ENDBRANCH   2  11
ENDBRANCH   1   6
BRANCH   1  15
ATOM     15  C   UNL     1      44.908   4.791  12.692  0.00  0.00    +0.000 A 
ATOM     16  C   UNL     1      43.700   5.483  12.562  0.00  0.00    +0.000 A 
ATOM     17  C   UNL     1      42.980   5.420  11.369  0.00  0.00    +0.000 A 
ATOM     18  C   UNL     1      43.470   4.688  10.285  0.00  0.00    +0.000 A 
ATOM     19  C   UNL     1      44.699   4.013  10.356  0.00  0.00    +0.000 A 
ATOM     20  C   UNL     1      45.376   4.047  11.589  0.00  0.00    +0.000 A 
BRANCH  19  21
ATOM     21  C   UNL     1      45.326   3.400   9.161  0.00  0.00    +0.000 A 
ATOM     22  C   UNL     1      45.840   4.214   8.129  0.00  0.00    +0.000 A 
ATOM     23  C   UNL     1      46.545   3.676   7.048  0.00  0.00    +0.000 A 
ATOM     24  C   UNL     1      46.757   2.306   6.974  0.00  0.00    +0.000 A 
ATOM     25  C   UNL     1      46.243   1.487   7.970  0.00  0.00    +0.000 A 
ATOM     26  F   UNL     1      46.461   0.164   7.911  0.00  0.00    +0.000 F 
ATOM     27  C   UNL     1      45.526   2.014   9.044  0.00  0.00    +0.000 A 
ENDBRANCH  19  21
ENDBRANCH   1  15
TORSDOF 4
ENDMDL
MODEL 7
REMARK VINA RESULT:    -6.626      5.813      8.693
REMARK INTER + INTRA:          -9.091
REMARK INTER:                  -8.518
REMARK INTRA:                  -0.573
REMARK UNBOUND:                -0.915
REMARK  Name = 
REMARK  4 active torsions:
REMARK  status: ('A' for Active; 'I' for Inactive)
REMARK    1  A    between atoms: C_2  and  C_4
REMARK    2  A    between atoms: N_8  and  C_9
REMARK    3  A    between atoms: C_9  and  C_10
REMARK    4  A    between atoms: C_14  and  C_15
REMARK                            x       y       z     vdW  Elec       q    Type
REMARK                         _______ _______ _______ _____ _____    ______ ____
ROOT
ATOM      1  C   UNL     1      47.996   7.063  14.011  0.00  0.00    +0.000 C 
ENDROOT
BRANCH   1   6
ATOM      2  C   UNL     1      49.948   5.840  18.596  0.00  0.00    +0.000 A 
ATOM      3  C   UNL     1      49.607   7.094  18.101  0.00  0.00    +0.000 A 
ATOM      4  C   UNL     1      48.935   7.183  16.882  0.00  0.00    +0.000 A 
ATOM      5  C   UNL     1      48.628   6.024  16.173  0.00  0.00    +0.000 A 
ATOM      6  N   UNL     1      47.911   6.012  15.002  0.00  0.00    +0.000 N 
ATOM      7  N   UNL     1      48.963   4.806  16.642  0.00  0.00    +0.000 NA
ATOM      8  C   UNL     1      49.620   4.735  17.828  0.00  0.00    +0.000 A 
ATOM      9  H   UNL     1      47.877   5.066  14.635  0.00  0.00    +0.000 HD
BRANCH   2  11
ATOM     10  N   UNL     1      50.626   4.391  20.424  0.00  0.00    +0.000 N 
ATOM     11  C   UNL     1      50.653   5.643  19.877  0.00  0.00    +0.000 C 
ATOM     12  O   UNL     1      51.266   6.558  20.416  0.00  0.00    +0.000 OA
ATOM     13  H   UNL     1      51.199   4.251  21.247  0.00  0.00    +0.000 HD
ATOM     14  H   UNL     1      50.362   3.572  19.896  0.00  0.00    +0.000 HD
ENDBRANCH   2  11
ENDBRANCH   1   6
BRANCH   1  15
ATOM     15  C   UNL     1      46.808   7.175  13.078  0.00  0.00    +0.000 A 
ATOM     16  C   UNL     1      46.080   8.348  12.856  0.00  0.00    +0.000 A 
ATOM     17  C   UNL     1      45.030   8.360  11.940  0.00  0.00    +0.000 A 
ATOM     18  C   UNL     1      44.710   7.209  11.215  0.00  0.00    +0.000 A 
ATOM     19  C   UNL     1      45.441   6.021  11.373  0.00  0.00    +0.000 A 
ATOM     20  C   UNL     1      46.458   6.021  12.345  0.00  0.00    +0.000 A 
BRANCH  19  21
ATOM     21  C   UNL     1      45.246   4.857  10.476  0.00  0.00    +0.000 A 
ATOM     22  C   UNL     1      44.531   3.725  10.921  0.00  0.00    +0.000 A 
ATOM     23  C   UNL     1      44.223   2.663  10.065  0.00  0.00    +0.000 A 
ATOM     24  C   UNL     1      44.621   2.710   8.736  0.00  0.00    +0.000 A 
ATOM     25  C   UNL     1      45.341   3.808   8.283  0.00  0.00    +0.000 A 
ATOM     26  F   UNL     1      45.712   3.864   6.995  0.00  0.00    +0.000 F 
ATOM     27  C   UNL     1      45.665   4.863   9.134  0.00  0.00    +0.000 A 
ENDBRANCH  19  21
ENDBRANCH   1  15
TORSDOF 4
ENDMDL
MODEL 8
REMARK VINA RESULT:    -6.598      5.546      8.010
REMARK INTER + INTRA:          -9.057
REMARK INTER:                  -8.247
REMARK INTRA:                  -0.809
REMARK UNBOUND:                -0.915
REMARK  Name = 
REMARK  4 active torsions:
REMARK  status: ('A' for Active; 'I' for Inactive)
REMARK    1  A    between atoms: C_2  and  C_4
REMARK    2  A    between atoms: N_8  and  C_9
REMARK    3  A    between atoms: C_9  and  C_10
REMARK    4  A    between atoms: C_14  and  C_15
REMARK                            x       y       z     vdW  Elec       q    Type
REMARK                         _______ _______ _______ _____ _____    ______ ____
ROOT
ATOM      1  C   UNL     1      48.794   7.606  15.798  0.00  0.00    +0.000 C 
ENDROOT
BRANCH   1   6
ATOM      2  C   UNL     1      50.848   3.204  17.453  0.00  0.00    +0.000 A 
ATOM      3  C   UNL     1      51.428   4.467  17.392  0.00  0.00    +0.000 A 
ATOM      4  C   UNL     1      50.632   5.564  17.059  0.00  0.00    +0.000 A 
ATOM      5  C   UNL     1      49.280   5.381  16.782  0.00  0.00    +0.000 A 
ATOM      6  N   UNL     1      48.410   6.409  16.512  0.00  0.00    +0.000 N 
ATOM      7  N   UNL     1      48.713   4.159  16.830  0.00  0.00    +0.000 NA
ATOM      8  C   UNL     1      49.500   3.100  17.151  0.00  0.00    +0.000 A 
ATOM      9  H   UNL     1      47.500   6.027  16.271  0.00  0.00    +0.000 HD
BRANCH   2  11
ATOM     10  N   UNL     1      52.697   2.133  18.609  0.00  0.00    +0.000 N 
ATOM     11  C   UNL     1      51.604   1.986  17.800  0.00  0.00    +0.000 C 
ATOM     12  O   UNL     1      51.251   0.880  17.406  0.00  0.00    +0.000 OA
ATOM     13  H   UNL     1      53.141   1.278  18.919  0.00  0.00    +0.000 HD
ATOM     14  H   UNL     1      52.863   2.968  19.152  0.00  0.00    +0.000 HD
ENDBRANCH   2  11
ENDBRANCH   1   6
BRANCH   1  15
ATOM     15  C   UNL     1      48.482   7.609  14.316  0.00  0.00    +0.000 A 
ATOM     16  C   UNL     1      49.149   8.386  13.365  0.00  0.00    +0.000 A 
ATOM     17  C   UNL     1      48.818   8.281  12.015  0.00  0.00    +0.000 A 
ATOM     18  C   UNL     1      47.836   7.382  11.595  0.00  0.00    +0.000 A 
ATOM     19  C   UNL     1      47.170   6.550  12.509  0.00  0.00    +0.000 A 
ATOM     20  C   UNL     1      47.484   6.717  13.871  0.00  0.00    +0.000 A 
BRANCH  19  21
ATOM     21  C   UNL     1      46.274   5.456  12.063  0.00  0.00    +0.000 A 
ATOM     22  C   UNL     1      46.046   4.338  12.892  0.00  0.00    +0.000 A 
ATOM     23  C   UNL     1      45.115   3.350  12.558  0.00  0.00    +0.000 A 
ATOM     24  C   UNL     1      44.383   3.459  11.384  0.00  0.00    +0.000 A 
ATOM     25  C   UNL     1      44.606   4.543  10.546  0.00  0.00    +0.000 A 
ATOM     26  F   UNL     1      43.888   4.661   9.418  0.00  0.00    +0.000 F 
ATOM     27  C   UNL     1      45.544   5.525  10.864  0.00  0.00    +0.000 A 
ENDBRANCH  19  21
ENDBRANCH   1  15
TORSDOF 4
ENDMDL
MODEL 9
REMARK VINA RESULT:    -6.538      5.764      8.606
REMARK INTER + INTRA:          -8.982
REMARK INTER:                  -8.216
REMARK INTRA:                  -0.765
REMARK UNBOUND:                -0.915
REMARK  Name = 
REMARK  4 active torsions:
REMARK  status: ('A' for Active; 'I' for Inactive)
REMARK    1  A    between atoms: C_2  and  C_4
REMARK    2  A    between atoms: N_8  and  C_9
REMARK    3  A    between atoms: C_9  and  C_10
REMARK    4  A    between atoms: C_14  and  C_15
REMARK                            x       y       z     vdW  Elec       q    Type
REMARK                         _______ _______ _______ _____ _____    ______ ____
ROOT
ATOM      1  C   UNL     1      49.028   7.084  13.785  0.00  0.00    +0.000 C 
ENDROOT
BRANCH   1   6
ATOM      2  C   UNL     1      48.367   5.831  18.718  0.00  0.00    +0.000 A 
ATOM      3  C   UNL     1      48.666   5.003  17.641  0.00  0.00    +0.000 A 
ATOM      4  C   UNL     1      48.966   5.577  16.405  0.00  0.00    +0.000 A 
ATOM      5  C   UNL     1      48.950   6.962  16.262  0.00  0.00    +0.000 A 
ATOM      6  N   UNL     1      49.296   7.614  15.104  0.00  0.00    +0.000 N 
ATOM      7  N   UNL     1      48.652   7.771  17.298  0.00  0.00    +0.000 NA
ATOM      8  C   UNL     1      48.359   7.198  18.494  0.00  0.00    +0.000 A 
ATOM      9  H   UNL     1      49.137   8.611  15.216  0.00  0.00    +0.000 HD
BRANCH   2  11
ATOM     10  N   UNL     1      48.445   4.048  20.366  0.00  0.00    +0.000 N 
ATOM     11  C   UNL     1      48.044   5.320  20.063  0.00  0.00    +0.000 C 
ATOM     12  O   UNL     1      47.464   6.016  20.890  0.00  0.00    +0.000 OA
ATOM     13  H   UNL     1      48.306   3.752  21.324  0.00  0.00    +0.000 HD
ATOM     14  H   UNL     1      49.135   3.551  19.820  0.00  0.00    +0.000 HD
ENDBRANCH   2  11
ENDBRANCH   1   6
BRANCH   1  15
ATOM     15  C   UNL     1      47.630   7.330  13.256  0.00  0.00    +0.000 A 
ATOM     16  C   UNL     1      46.934   8.535  13.383  0.00  0.00    +0.000 A 
ATOM     17  C   UNL     1      45.667   8.677  12.819  0.00  0.00    +0.000 A 
ATOM     18  C   UNL     1      45.091   7.628  12.099  0.00  0.00    +0.000 A 
ATOM     19  C   UNL     1      45.772   6.415  11.909  0.00  0.00    +0.000 A 
ATOM     20  C   UNL     1      47.024   6.279  12.537  0.00  0.00    +0.000 A 
BRANCH  19  21
ATOM     21  C   UNL     1      45.266   5.369  10.987  0.00  0.00    +0.000 A 
ATOM     22  C   UNL     1      45.672   5.352   9.637  0.00  0.00    +0.000 A 
ATOM     23  C   UNL     1      45.312   4.314   8.771  0.00  0.00    +0.000 A 
ATOM     24  C   UNL     1      44.538   3.262   9.240  0.00  0.00    +0.000 A 
ATOM     25  C   UNL     1      44.113   3.269  10.562  0.00  0.00    +0.000 A 
ATOM     26  F   UNL     1      43.379   2.245  11.022  0.00  0.00    +0.000 F 
ATOM     27  C   UNL     1      44.454   4.309  11.426  0.00  0.00    +0.000 A 
ENDBRANCH  19  21
ENDBRANCH   1  15
TORSDOF 4
ENDMDL
