MODEL 1
REMARK VINA RESULT:    -8.471      0.000      0.000
REMARK INTER + INTRA:         -13.034
REMARK INTER:                 -11.937
REMARK INTRA:                  -1.097
REMARK UNBOUND:                -1.097
REMARK  Name = 
REMARK  7 active torsions:
REMARK  status: ('A' for Active; 'I' for Inactive)
REMARK    1  A    between atoms: C_2  and  C_3
REMARK    2  A    between atoms: C_6  and  N_7
REMARK    3  A    between atoms: N_7  and  C_8
REMARK    4  A    between atoms: C_8  and  C_9
REMARK    5  A    between atoms: C_9  and  C_12
REMARK    6  A    between atoms: C_16  and  O_17
REMARK    7  A    between atoms: O_17  and  C_18
REMARK                            x       y       z     vdW  Elec       q    Type
REMARK                         _______ _______ _______ _____ _____    ______ ____
ROOT
ATOM      1  C   UNL     1      44.139   4.917  12.430  0.00  0.00    +0.000 C 
ATOM      2  F   UNL     1      43.265   5.532  13.278  0.00  0.00    +0.000 F 
ATOM      3  F   UNL     1      43.964   3.576  12.632  0.00  0.00    +0.000 F 
ENDROOT
BRANCH   1   4
ATOM      4  C   UNL     1      45.574   5.357  12.659  0.00  0.00    +0.000 A 
ATOM      5  C   UNL     1      46.183   6.269  11.787  0.00  0.00    +0.000 A 
ATOM      6  C   UNL     1      47.423   6.821  12.111  0.00  0.00    +0.000 A 
ATOM      7  C   UNL     1      48.083   6.447  13.291  0.00  0.00    +0.000 A 
ATOM      8  C   UNL     1      47.523   5.480  14.125  0.00  0.00    +0.000 A 
ATOM      9  C   UNL     1      46.269   4.947  13.809  0.00  0.00    +0.000 A 
BRANCH   8  10
ATOM     10  O   UNL     1      48.065   5.014  15.301  0.00  0.00    +0.000 OA
BRANCH  10  11
ATOM     11  C   UNL     1      47.264   4.193  16.184  0.00  0.00    +0.000 C 
ATOM     12  C   UNL     1      47.166   4.588  17.670  0.00  0.00    +0.000 C 
ATOM     13  N   UNL     1      47.540   3.227  18.080  0.00  0.00    +0.000 NA
ATOM     14  C   UNL     1      47.934   2.893  16.704  0.00  0.00    +0.000 C 
ATOM     15  H   UNL     1      46.763   2.669  18.435  0.00  0.00    +0.000 HD
ENDBRANCH  10  11
ENDBRANCH   8  10
ENDBRANCH   1   4
BRANCH   1  16
ATOM     16  C   UNL     1      43.748   5.250  10.964  0.00  0.00    +0.000 C 
BRANCH  16  17
ATOM     17  N   UNL     1      43.573   4.066  10.106  0.00  0.00    +0.000 N 
ATOM     18  H   UNL     1      43.057   3.302  10.551  0.00  0.00    +0.000 HD
BRANCH  17  22
ATOM     19  C   UNL     1      46.620   2.581   7.583  0.00  0.00    +0.000 A 
ATOM     20  C   UNL     1      46.448   3.961   7.719  0.00  0.00    +0.000 A 
ATOM     21  C   UNL     1      45.466   4.468   8.581  0.00  0.00    +0.000 A 
ATOM     22  C   UNL     1      44.651   3.612   9.334  0.00  0.00    +0.000 A 
ATOM     23  C   UNL     1      44.853   2.230   9.179  0.00  0.00    +0.000 A 
ATOM     24  F   UNL     1      44.095   1.375   9.880  0.00  0.00    +0.000 F 
ATOM     25  C   UNL     1      45.823   1.711   8.324  0.00  0.00    +0.000 A 
BRANCH  19  27
ATOM     26  N   UNL     1      48.378   1.652   5.923  0.00  0.00    +0.000 NA
ATOM     27  C   UNL     1      47.597   2.064   6.666  0.00  0.00    +0.000 C 
ENDBRANCH  19  27
ENDBRANCH  17  22
ENDBRANCH  16  17
ENDBRANCH   1  16
TORSDOF 7
ENDMDL
MODEL 2
REMARK VINA RESULT:    -7.381      2.304      3.535
REMARK INTER + INTRA:         -11.498
REMARK INTER:                 -10.468
REMARK INTRA:                  -1.029
REMARK UNBOUND:                -1.097
REMARK  Name = 
REMARK  7 active torsions:
REMARK  status: ('A' for Active; 'I' for Inactive)
REMARK    1  A    between atoms: C_2  and  C_3
REMARK    2  A    between atoms: C_6  and  N_7
REMARK    3  A    between atoms: N_7  and  C_8
REMARK    4  A    between atoms: C_8  and  C_9
REMARK    5  A    between atoms: C_9  and  C_12
REMARK    6  A    between atoms: C_16  and  O_17
REMARK    7  A    between atoms: O_17  and  C_18
REMARK                            x       y       z     vdW  Elec       q    Type
REMARK                         _______ _______ _______ _____ _____    ______ ____
ROOT
ATOM      1  C   UNL     1      43.995   4.761  12.391  0.00  0.00    +0.000 C 
ATOM      2  F   UNL     1      42.956   5.194  13.162  0.00  0.00    +0.000 F 
ATOM      3  F   UNL     1      43.945   3.396  12.442  0.00  0.00    +0.000 F 
ENDROOT
BRANCH   1   4
ATOM      4  C   UNL     1      45.331   5.312  12.858  0.00  0.00    +0.000 A 
ATOM      5  C   UNL     1      46.007   4.717  13.931  0.00  0.00    +0.000 A 
ATOM      6  C   UNL     1      47.317   5.097  14.225  0.00  0.00    +0.000 A 
ATOM      7  C   UNL     1      47.956   6.093  13.473  0.00  0.00    +0.000 A 
ATOM      8  C   UNL     1      47.264   6.748  12.455  0.00  0.00    +0.000 A 
ATOM      9  C   UNL     1      45.960   6.348  12.147  0.00  0.00    +0.000 A 
BRANCH   8  10
ATOM     10  O   UNL     1      47.764   7.746  11.650  0.00  0.00    +0.000 OA
BRANCH  10  11
ATOM     11  C   UNL     1      48.551   8.811  12.235  0.00  0.00    +0.000 C 
ATOM     12  C   UNL     1      47.815   9.987  12.906  0.00  0.00    +0.000 C 
ATOM     13  N   UNL     1      48.593  10.953  12.118  0.00  0.00    +0.000 NA
ATOM     14  C   UNL     1      49.095   9.879  11.248  0.00  0.00    +0.000 C 
ATOM     15  H   UNL     1      49.322  11.433  12.646  0.00  0.00    +0.000 HD
ENDBRANCH  10  11
ENDBRANCH   8  10
ENDBRANCH   1   4
BRANCH   1  16
ATOM     16  C   UNL     1      43.761   5.210  10.922  0.00  0.00    +0.000 C 
BRANCH  16  17
ATOM     17  N   UNL     1      43.557   4.096   9.980  0.00  0.00    +0.000 N 
ATOM     18  H   UNL     1      42.970   3.343  10.349  0.00  0.00    +0.000 HD
BRANCH  17  22
ATOM     19  C   UNL     1      46.629   2.534   7.537  0.00  0.00    +0.000 A 
ATOM     20  C   UNL     1      46.447   3.917   7.617  0.00  0.00    +0.000 A 
ATOM     21  C   UNL     1      45.457   4.450   8.453  0.00  0.00    +0.000 A 
ATOM     22  C   UNL     1      44.643   3.620   9.234  0.00  0.00    +0.000 A 
ATOM     23  C   UNL     1      44.855   2.233   9.134  0.00  0.00    +0.000 A 
ATOM     24  F   UNL     1      44.098   1.401   9.864  0.00  0.00    +0.000 F 
ATOM     25  C   UNL     1      45.834   1.688   8.307  0.00  0.00    +0.000 A 
BRANCH  19  27
ATOM     26  N   UNL     1      48.408   1.556   5.927  0.00  0.00    +0.000 NA
ATOM     27  C   UNL     1      47.615   1.988   6.646  0.00  0.00    +0.000 C 
ENDBRANCH  19  27
ENDBRANCH  17  22
ENDBRANCH  16  17
ENDBRANCH   1  16
TORSDOF 7
ENDMDL
MODEL 3
REMARK VINA RESULT:    -7.301      2.696      4.107
REMARK INTER + INTRA:         -11.385
REMARK INTER:                 -10.824
REMARK INTRA:                  -0.562
REMARK UNBOUND:                -1.097
REMARK  Name = 
REMARK  7 active torsions:
REMARK  status: ('A' for Active; 'I' for Inactive)
REMARK    1  A    between atoms: C_2  and  C_3
REMARK    2  A    between atoms: C_6  and  N_7
REMARK    3  A    between atoms: N_7  and  C_8
REMARK    4  A    between atoms: C_8  and  C_9
REMARK    5  A    between atoms: C_9  and  C_12
REMARK    6  A    between atoms: C_16  and  O_17
REMARK    7  A    between atoms: O_17  and  C_18
REMARK                            x       y       z     vdW  Elec       q    Type
REMARK                         _______ _______ _______ _____ _____    ______ ____
ROOT
ATOM      1  C   UNL     1      43.352   4.555  12.613  0.00  0.00    +0.000 C 
ATOM      2  F   UNL     1      42.288   5.312  12.218  0.00  0.00    +0.000 F 
ATOM      3  F   UNL     1      42.944   3.913  13.749  0.00  0.00    +0.000 F 
ENDROOT
BRANCH   1   4
ATOM      4  C   UNL     1      44.604   5.386  12.833  0.00  0.00    +0.000 A 
ATOM      5  C   UNL     1      45.863   4.772  12.878  0.00  0.00    +0.000 A 
ATOM      6  C   UNL     1      47.019   5.553  12.878  0.00  0.00    +0.000 A 
ATOM      7  C   UNL     1      46.934   6.952  12.864  0.00  0.00    +0.000 A 
ATOM      8  C   UNL     1      45.685   7.574  12.900  0.00  0.00    +0.000 A 
ATOM      9  C   UNL     1      44.530   6.788  12.875  0.00  0.00    +0.000 A 
BRANCH   8  10
ATOM     10  O   UNL     1      45.458   8.931  12.901  0.00  0.00    +0.000 OA
BRANCH  10  11
ATOM     11  C   UNL     1      45.380   9.645  11.645  0.00  0.00    +0.000 C 
ATOM     12  C   UNL     1      45.317  11.185  11.675  0.00  0.00    +0.000 C 
ATOM     13  N   UNL     1      44.133  11.175  10.804  0.00  0.00    +0.000 NA
ATOM     14  C   UNL     1      43.975   9.726  10.990  0.00  0.00    +0.000 C 
ATOM     15  H   UNL     1      44.322  11.451   9.840  0.00  0.00    +0.000 HD
ENDBRANCH  10  11
ENDBRANCH   8  10
ENDBRANCH   1   4
BRANCH   1  16
ATOM     16  C   UNL     1      43.652   3.489  11.523  0.00  0.00    +0.000 C 
BRANCH  16  17
ATOM     17  N   UNL     1      43.757   4.037  10.160  0.00  0.00    +0.000 N 
ATOM     18  H   UNL     1      42.861   4.109   9.671  0.00  0.00    +0.000 HD
BRANCH  17  22
ATOM     19  C   UNL     1      46.678   2.637   7.447  0.00  0.00    +0.000 A 
ATOM     20  C   UNL     1      46.549   4.009   7.675  0.00  0.00    +0.000 A 
ATOM     21  C   UNL     1      45.611   4.486   8.601  0.00  0.00    +0.000 A 
ATOM     22  C   UNL     1      44.796   3.606   9.326  0.00  0.00    +0.000 A 
ATOM     23  C   UNL     1      44.954   2.231   9.077  0.00  0.00    +0.000 A 
ATOM     24  F   UNL     1      44.194   1.353   9.748  0.00  0.00    +0.000 F 
ATOM     25  C   UNL     1      45.881   1.742   8.158  0.00  0.00    +0.000 A 
BRANCH  19  27
ATOM     26  N   UNL     1      48.361   1.763   5.683  0.00  0.00    +0.000 NA
ATOM     27  C   UNL     1      47.609   2.154   6.466  0.00  0.00    +0.000 C 
ENDBRANCH  19  27
ENDBRANCH  17  22
ENDBRANCH  16  17
ENDBRANCH   1  16
TORSDOF 7
ENDMDL
MODEL 4
REMARK VINA RESULT:    -7.091      2.429      7.554
REMARK INTER + INTRA:         -11.090
REMARK INTER:                 -10.086
REMARK INTRA:                  -1.004
REMARK UNBOUND:                -1.097
REMARK  Name = 
REMARK  7 active torsions:
REMARK  status: ('A' for Active; 'I' for Inactive)
REMARK    1  A    between atoms: C_2  and  C_3
REMARK    2  A    between atoms: C_6  and  N_7
REMARK    3  A    between atoms: N_7  and  C_8
REMARK    4  A    between atoms: C_8  and  C_9
REMARK    5  A    between atoms: C_9  and  C_12
REMARK    6  A    between atoms: C_16  and  O_17
REMARK    7  A    between atoms: O_17  and  C_18
REMARK                            x       y       z     vdW  Elec       q    Type
REMARK                         _______ _______ _______ _____ _____    ______ ____
ROOT
ATOM      1  C   UNL     1      44.825   6.301  11.558  0.00  0.00    +0.000 C 
ATOM      2  F   UNL     1      44.272   6.098  12.789  0.00  0.00    +0.000 F 
ATOM      3  F   UNL     1      44.048   7.253  10.959  0.00  0.00    +0.000 F 
ENDROOT
BRANCH   1   4
ATOM      4  C   UNL     1      44.909   5.022  10.743  0.00  0.00    +0.000 A 
ATOM      5  C   UNL     1      44.202   3.880  11.142  0.00  0.00    +0.000 A 
ATOM      6  C   UNL     1      44.121   2.779  10.290  0.00  0.00    +0.000 A 
ATOM      7  C   UNL     1      44.767   2.791   9.045  0.00  0.00    +0.000 A 
ATOM      8  C   UNL     1      45.540   3.891   8.673  0.00  0.00    +0.000 A 
ATOM      9  C   UNL     1      45.599   5.003   9.519  0.00  0.00    +0.000 A 
BRANCH   8  10
ATOM     10  O   UNL     1      46.233   4.030   7.493  0.00  0.00    +0.000 OA
BRANCH  10  11
ATOM     11  C   UNL     1      46.569   2.856   6.717  0.00  0.00    +0.000 C 
ATOM     12  C   UNL     1      47.908   2.146   6.997  0.00  0.00    +0.000 C 
ATOM     13  N   UNL     1      48.253   2.184   5.569  0.00  0.00    +0.000 NA
ATOM     14  C   UNL     1      47.148   3.115   5.299  0.00  0.00    +0.000 C 
ATOM     15  H   UNL     1      48.163   1.286   5.093  0.00  0.00    +0.000 HD
ENDBRANCH  10  11
ENDBRANCH   8  10
ENDBRANCH   1   4
BRANCH   1  16
ATOM     16  C   UNL     1      46.260   6.872  11.731  0.00  0.00    +0.000 C 
BRANCH  16  17
ATOM     17  N   UNL     1      47.242   5.888  12.218  0.00  0.00    +0.000 N 
ATOM     18  H   UNL     1      47.185   4.979  11.751  0.00  0.00    +0.000 HD
BRANCH  17  22
ATOM     19  C   UNL     1      48.116   5.301  16.309  0.00  0.00    +0.000 A 
ATOM     20  C   UNL     1      48.626   6.422  15.649  0.00  0.00    +0.000 A 
ATOM     21  C   UNL     1      48.313   6.649  14.301  0.00  0.00    +0.000 A 
ATOM     22  C   UNL     1      47.476   5.776  13.594  0.00  0.00    +0.000 A 
ATOM     23  C   UNL     1      46.975   4.661  14.290  0.00  0.00    +0.000 A 
ATOM     24  F   UNL     1      46.171   3.799  13.651  0.00  0.00    +0.000 F 
ATOM     25  C   UNL     1      47.280   4.420  15.628  0.00  0.00    +0.000 A 
BRANCH  19  27
ATOM     26  N   UNL     1      48.768   4.841  18.774  0.00  0.00    +0.000 NA
ATOM     27  C   UNL     1      48.474   5.048  17.677  0.00  0.00    +0.000 C 
ENDBRANCH  19  27
ENDBRANCH  17  22
ENDBRANCH  16  17
ENDBRANCH   1  16
TORSDOF 7
ENDMDL
MODEL 5
REMARK VINA RESULT:    -6.736      3.360      7.096
REMARK INTER + INTRA:         -10.589
REMARK INTER:                  -9.728
REMARK INTRA:                  -0.861
REMARK UNBOUND:                -1.097
REMARK  Name = 
REMARK  7 active torsions:
REMARK  status: ('A' for Active; 'I' for Inactive)
REMARK    1  A    between atoms: C_2  and  C_3
REMARK    2  A    between atoms: C_6  and  N_7
REMARK    3  A    between atoms: N_7  and  C_8
REMARK    4  A    between atoms: C_8  and  C_9
REMARK    5  A    between atoms: C_9  and  C_12
REMARK    6  A    between atoms: C_16  and  O_17
REMARK    7  A    between atoms: O_17  and  C_18
REMARK                            x       y       z     vdW  Elec       q    Type
REMARK                         _______ _______ _______ _____ _____    ______ ____
ROOT
ATOM      1  C   UNL     1      43.854   5.772  11.348  0.00  0.00    +0.000 C 
ATOM      2  F   UNL     1      43.714   5.581  12.692  0.00  0.00    +0.000 F 
ATOM      3  F   UNL     1      42.640   6.227  10.913  0.00  0.00    +0.000 F 
ENDROOT
BRANCH   1   4
ATOM      4  C   UNL     1      44.294   4.510  10.627  0.00  0.00    +0.000 A 
ATOM      5  C   UNL     1      43.815   3.258  11.033  0.00  0.00    +0.000 A 
ATOM      6  C   UNL     1      44.060   2.130  10.249  0.00  0.00    +0.000 A 
ATOM      7  C   UNL     1      44.810   2.233   9.069  0.00  0.00    +0.000 A 
ATOM      8  C   UNL     1      45.360   3.460   8.698  0.00  0.00    +0.000 A 
ATOM      9  C   UNL     1      45.091   4.592   9.473  0.00  0.00    +0.000 A 
BRANCH   8  10
ATOM     10  O   UNL     1      46.121   3.699   7.577  0.00  0.00    +0.000 OA
BRANCH  10  11
ATOM     11  C   UNL     1      46.507   2.594   6.724  0.00  0.00    +0.000 C 
ATOM     12  C   UNL     1      47.830   1.861   7.021  0.00  0.00    +0.000 C 
ATOM     13  N   UNL     1      48.258   2.021   5.624  0.00  0.00    +0.000 NA
ATOM     14  C   UNL     1      47.167   2.973   5.371  0.00  0.00    +0.000 C 
ATOM     15  H   UNL     1      48.200   1.167   5.069  0.00  0.00    +0.000 HD
ENDBRANCH  10  11
ENDBRANCH   8  10
ENDBRANCH   1   4
BRANCH   1  16
ATOM     16  C   UNL     1      44.914   6.879  11.098  0.00  0.00    +0.000 C 
BRANCH  16  17
ATOM     17  N   UNL     1      45.501   7.437  12.329  0.00  0.00    +0.000 N 
ATOM     18  H   UNL     1      44.927   8.157  12.773  0.00  0.00    +0.000 HD
BRANCH  17  22
ATOM     19  C   UNL     1      49.657   8.180  12.169  0.00  0.00    +0.000 A 
ATOM     20  C   UNL     1      48.760   9.235  11.982  0.00  0.00    +0.000 A 
ATOM     21  C   UNL     1      47.379   9.010  12.069  0.00  0.00    +0.000 A 
ATOM     22  C   UNL     1      46.869   7.738  12.361  0.00  0.00    +0.000 A 
ATOM     23  C   UNL     1      47.798   6.700  12.549  0.00  0.00    +0.000 A 
ATOM     24  F   UNL     1      47.353   5.466  12.829  0.00  0.00    +0.000 F 
ATOM     25  C   UNL     1      49.173   6.907  12.463  0.00  0.00    +0.000 A 
BRANCH  19  27
ATOM     26  N   UNL     1      52.204   8.589  11.933  0.00  0.00    +0.000 NA
ATOM     27  C   UNL     1      51.069   8.405  12.035  0.00  0.00    +0.000 C 
ENDBRANCH  19  27
ENDBRANCH  17  22
ENDBRANCH  16  17
ENDBRANCH   1  16
TORSDOF 7
ENDMDL
MODEL 6
REMARK VINA RESULT:    -6.455      1.897      2.235
REMARK INTER + INTRA:         -10.194
REMARK INTER:                  -9.778
REMARK INTRA:                  -0.416
REMARK UNBOUND:                -1.097
REMARK  Name = 
REMARK  7 active torsions:
REMARK  status: ('A' for Active; 'I' for Inactive)
REMARK    1  A    between atoms: C_2  and  C_3
REMARK    2  A    between atoms: C_6  and  N_7
REMARK    3  A    between atoms: N_7  and  C_8
REMARK    4  A    between atoms: C_8  and  C_9
REMARK    5  A    between atoms: C_9  and  C_12
REMARK    6  A    between atoms: C_16  and  O_17
REMARK    7  A    between atoms: O_17  and  C_18
REMARK                            x       y       z     vdW  Elec       q    Type
REMARK                         _______ _______ _______ _____ _____    ______ ____
ROOT
ATOM      1  C   UNL     1      45.455   5.492  12.477  0.00  0.00    +0.000 C 
ATOM      2  F   UNL     1      44.449   5.230  13.361  0.00  0.00    +0.000 F 
ATOM      3  F   UNL     1      45.992   4.276  12.161  0.00  0.00    +0.000 F 
ENDROOT
BRANCH   1   4
ATOM      4  C   UNL     1      46.486   6.453  13.042  0.00  0.00    +0.000 A 
ATOM      5  C   UNL     1      46.325   7.837  12.888  0.00  0.00    +0.000 A 
ATOM      6  C   UNL     1      47.161   8.716  13.576  0.00  0.00    +0.000 A 
ATOM      7  C   UNL     1      48.185   8.228  14.400  0.00  0.00    +0.000 A 
ATOM      8  C   UNL     1      48.405   6.854  14.497  0.00  0.00    +0.000 A 
ATOM      9  C   UNL     1      47.550   5.975  13.826  0.00  0.00    +0.000 A 
BRANCH   8  10
ATOM     10  O   UNL     1      49.376   6.243  15.256  0.00  0.00    +0.000 OA
BRANCH  10  11
ATOM     11  C   UNL     1      49.215   6.158  16.692  0.00  0.00    +0.000 C 
ATOM     12  C   UNL     1      50.397   5.644  17.538  0.00  0.00    +0.000 C 
ATOM     13  N   UNL     1      49.524   4.666  18.203  0.00  0.00    +0.000 NA
ATOM     14  C   UNL     1      48.457   4.911  17.223  0.00  0.00    +0.000 C 
ATOM     15  H   UNL     1      49.273   4.915  19.161  0.00  0.00    +0.000 HD
ENDBRANCH  10  11
ENDBRANCH   8  10
ENDBRANCH   1   4
BRANCH   1  16
ATOM     16  C   UNL     1      44.851   6.116  11.189  0.00  0.00    +0.000 C 
BRANCH  16  17
ATOM     17  N   UNL     1      43.949   5.214  10.452  0.00  0.00    +0.000 N 
ATOM     18  H   UNL     1      43.125   4.925  10.984  0.00  0.00    +0.000 HD
BRANCH  17  22
ATOM     19  C   UNL     1      45.854   2.114   8.304  0.00  0.00    +0.000 A 
ATOM     20  C   UNL     1      44.799   1.808   9.168  0.00  0.00    +0.000 A 
ATOM     21  C   UNL     1      44.134   2.831   9.858  0.00  0.00    +0.000 A 
ATOM     22  C   UNL     1      44.494   4.174   9.688  0.00  0.00    +0.000 A 
ATOM     23  C   UNL     1      45.556   4.448   8.808  0.00  0.00    +0.000 A 
ATOM     24  F   UNL     1      45.934   5.720   8.616  0.00  0.00    +0.000 F 
ATOM     25  C   UNL     1      46.229   3.443   8.117  0.00  0.00    +0.000 A 
BRANCH  19  27
ATOM     26  N   UNL     1      47.138   0.219   7.091  0.00  0.00    +0.000 NA
ATOM     27  C   UNL     1      46.563   1.061   7.633  0.00  0.00    +0.000 C 
ENDBRANCH  19  27
ENDBRANCH  17  22
ENDBRANCH  16  17
ENDBRANCH   1  16
TORSDOF 7
ENDMDL
MODEL 7
REMARK VINA RESULT:    -6.438      3.155      7.680
REMARK INTER + INTRA:         -10.169
REMARK INTER:                  -9.443
REMARK INTRA:                  -0.726
REMARK UNBOUND:                -1.097
REMARK  Name = 
REMARK  7 active torsions:
REMARK  status: ('A' for Active; 'I' for Inactive)
REMARK    1  A    between atoms: C_2  and  C_3
REMARK    2  A    between atoms: C_6  and  N_7
REMARK    3  A    between atoms: N_7  and  C_8
REMARK    4  A    between atoms: C_8  and  C_9
REMARK    5  A    between atoms: C_9  and  C_12
REMARK    6  A    between atoms: C_16  and  O_17
REMARK    7  A    between atoms: O_17  and  C_18
REMARK                            x       y       z     vdW  Elec       q    Type
REMARK                         _______ _______ _______ _____ _____    ______ ____
ROOT
ATOM      1  C   UNL     1      44.654   5.861  11.279  0.00  0.00    +0.000 C 
ATOM      2  F   UNL     1      43.356   6.191  11.537  0.00  0.00    +0.000 F 
ATOM      3  F   UNL     1      45.179   6.931  10.610  0.00  0.00    +0.000 F 
ENDROOT
BRANCH   1   4
ATOM      4  C   UNL     1      44.777   4.567  10.494  0.00  0.00    +0.000 A 
ATOM      5  C   UNL     1      44.265   3.371  11.014  0.00  0.00    +0.000 A 
ATOM      6  C   UNL     1      44.200   2.233  10.210  0.00  0.00    +0.000 A 
ATOM      7  C   UNL     1      44.673   2.266   8.890  0.00  0.00    +0.000 A 
ATOM      8  C   UNL     1      45.258   3.428   8.389  0.00  0.00    +0.000 A 
ATOM      9  C   UNL     1      45.299   4.573   9.190  0.00  0.00    +0.000 A 
BRANCH   8  10
ATOM     10  O   UNL     1      45.770   3.594   7.123  0.00  0.00    +0.000 OA
BRANCH  10  11
ATOM     11  C   UNL     1      47.150   3.248   6.856  0.00  0.00    +0.000 C 
ATOM     12  C   UNL     1      47.563   2.925   5.407  0.00  0.00    +0.000 C 
ATOM     13  N   UNL     1      48.185   1.666   5.840  0.00  0.00    +0.000 NA
ATOM     14  C   UNL     1      47.559   1.781   7.165  0.00  0.00    +0.000 C 
ATOM     15  H   UNL     1      49.205   1.689   5.860  0.00  0.00    +0.000 HD
ENDBRANCH  10  11
ENDBRANCH   8  10
ENDBRANCH   1   4
BRANCH   1  16
ATOM     16  C   UNL     1      45.416   5.698  12.623  0.00  0.00    +0.000 C 
BRANCH  16  17
ATOM     17  N   UNL     1      46.851   5.403  12.467  0.00  0.00    +0.000 N 
ATOM     18  H   UNL     1      47.078   4.407  12.519  0.00  0.00    +0.000 HD
BRANCH  17  22
ATOM     19  C   UNL     1      49.505   8.070  14.389  0.00  0.00    +0.000 A 
ATOM     20  C   UNL     1      48.840   7.098  15.140  0.00  0.00    +0.000 A 
ATOM     21  C   UNL     1      47.985   6.183  14.511  0.00  0.00    +0.000 A 
ATOM     22  C   UNL     1      47.791   6.208  13.123  0.00  0.00    +0.000 A 
ATOM     23  C   UNL     1      48.479   7.195  12.395  0.00  0.00    +0.000 A 
ATOM     24  F   UNL     1      48.322   7.256  11.065  0.00  0.00    +0.000 F 
ATOM     25  C   UNL     1      49.330   8.113  13.007  0.00  0.00    +0.000 A 
BRANCH  19  27
ATOM     26  N   UNL     1      51.024   9.805  15.570  0.00  0.00    +0.000 NA
ATOM     27  C   UNL     1      50.345   9.035  15.042  0.00  0.00    +0.000 C 
ENDBRANCH  19  27
ENDBRANCH  17  22
ENDBRANCH  16  17
ENDBRANCH   1  16
TORSDOF 7
ENDMDL
MODEL 8
REMARK VINA RESULT:    -6.272      2.819      7.677
REMARK INTER + INTRA:          -9.935
REMARK INTER:                  -8.996
REMARK INTRA:                  -0.939
REMARK UNBOUND:                -1.097
REMARK  Name = 
REMARK  7 active torsions:
REMARK  status: ('A' for Active; 'I' for Inactive)
REMARK    1  A    between atoms: C_2  and  C_3
REMARK    2  A    between atoms: C_6  and  N_7
REMARK    3  A    between atoms: N_7  and  C_8
REMARK    4  A    between atoms: C_8  and  C_9
REMARK    5  A    between atoms: C_9  and  C_12
REMARK    6  A    between atoms: C_16  and  O_17
REMARK    7  A    between atoms: O_17  and  C_18
REMARK                            x       y       z     vdW  Elec       q    Type
REMARK                         _______ _______ _______ _____ _____    ______ ____
ROOT
ATOM      1  C   UNL     1      45.614   6.592  11.499  0.00  0.00    +0.000 C 
ATOM      2  F   UNL     1      44.746   7.558  11.078  0.00  0.00    +0.000 F 
ATOM      3  F   UNL     1      46.680   6.660  10.646  0.00  0.00    +0.000 F 
ENDROOT
BRANCH   1   4
ATOM      4  C   UNL     1      44.978   5.214  11.525  0.00  0.00    +0.000 A 
ATOM      5  C   UNL     1      44.131   4.844  12.578  0.00  0.00    +0.000 A 
ATOM      6  C   UNL     1      43.395   3.661  12.498  0.00  0.00    +0.000 A 
ATOM      7  C   UNL     1      43.518   2.821  11.382  0.00  0.00    +0.000 A 
ATOM      8  C   UNL     1      44.418   3.139  10.366  0.00  0.00    +0.000 A 
ATOM      9  C   UNL     1      45.135   4.337  10.439  0.00  0.00    +0.000 A 
BRANCH   8  10
ATOM     10  O   UNL     1      44.645   2.402   9.227  0.00  0.00    +0.000 OA
BRANCH  10  11
ATOM     11  C   UNL     1      45.945   2.445   8.592  0.00  0.00    +0.000 C 
ATOM     12  C   UNL     1      46.059   3.069   7.187  0.00  0.00    +0.000 C 
ATOM     13  N   UNL     1      46.764   1.879   6.691  0.00  0.00    +0.000 NA
ATOM     14  C   UNL     1      46.417   1.133   7.909  0.00  0.00    +0.000 C 
ATOM     15  H   UNL     1      47.767   2.012   6.558  0.00  0.00    +0.000 HD
ENDBRANCH  10  11
ENDBRANCH   8  10
ENDBRANCH   1   4
BRANCH   1  16
ATOM     16  C   UNL     1      46.105   6.937  12.932  0.00  0.00    +0.000 C 
BRANCH  16  17
ATOM     17  N   UNL     1      47.486   6.510  13.212  0.00  0.00    +0.000 N 
ATOM     18  H   UNL     1      47.962   6.091  12.409  0.00  0.00    +0.000 HD
BRANCH  17  22
ATOM     19  C   UNL     1      48.198   4.747  16.985  0.00  0.00    +0.000 A 
ATOM     20  C   UNL     1      47.342   4.116  16.079  0.00  0.00    +0.000 A 
ATOM     21  C   UNL     1      47.126   4.670  14.809  0.00  0.00    +0.000 A 
ATOM     22  C   UNL     1      47.770   5.849  14.414  0.00  0.00    +0.000 A 
ATOM     23  C   UNL     1      48.629   6.456  15.347  0.00  0.00    +0.000 A 
ATOM     24  F   UNL     1      49.266   7.588  15.011  0.00  0.00    +0.000 F 
ATOM     25  C   UNL     1      48.852   5.919  16.613  0.00  0.00    +0.000 A 
BRANCH  19  27
ATOM     26  N   UNL     1      48.527   3.767  19.360  0.00  0.00    +0.000 NA
ATOM     27  C   UNL     1      48.383   4.201  18.300  0.00  0.00    +0.000 C 
ENDBRANCH  19  27
ENDBRANCH  17  22
ENDBRANCH  16  17
ENDBRANCH   1  16
TORSDOF 7
ENDMDL
MODEL 9
REMARK VINA RESULT:    -6.238      2.112      2.443
REMARK INTER + INTRA:          -9.887
REMARK INTER:                  -9.250
REMARK INTRA:                  -0.637
REMARK UNBOUND:                -1.097
REMARK  Name = 
REMARK  7 active torsions:
REMARK  status: ('A' for Active; 'I' for Inactive)
REMARK    1  A    between atoms: C_2  and  C_3
REMARK    2  A    between atoms: C_6  and  N_7
REMARK    3  A    between atoms: N_7  and  C_8
REMARK    4  A    between atoms: C_8  and  C_9
REMARK    5  A    between atoms: C_9  and  C_12
REMARK    6  A    between atoms: C_16  and  O_17
REMARK    7  A    between atoms: O_17  and  C_18
REMARK                            x       y       z     vdW  Elec       q    Type
REMARK                         _______ _______ _______ _____ _____    ______ ____
ROOT
ATOM      1  C   UNL     1      44.094   5.364  12.485  0.00  0.00    +0.000 C 
ATOM      2  F   UNL     1      43.131   5.808  13.344  0.00  0.00    +0.000 F 
ATOM      3  F   UNL     1      44.539   4.183  13.011  0.00  0.00    +0.000 F 
ENDROOT
BRANCH   1   4
ATOM      4  C   UNL     1      45.212   6.374  12.297  0.00  0.00    +0.000 A 
ATOM      5  C   UNL     1      44.920   7.695  11.930  0.00  0.00    +0.000 A 
ATOM      6  C   UNL     1      45.924   8.663  11.955  0.00  0.00    +0.000 A 
ATOM      7  C   UNL     1      47.235   8.320  12.316  0.00  0.00    +0.000 A 
ATOM      8  C   UNL     1      47.554   6.993  12.604  0.00  0.00    +0.000 A 
ATOM      9  C   UNL     1      46.540   6.031  12.602  0.00  0.00    +0.000 A 
BRANCH   8  10
ATOM     10  O   UNL     1      48.795   6.519  12.960  0.00  0.00    +0.000 OA
BRANCH  10  11
ATOM     11  C   UNL     1      49.442   7.026  14.152  0.00  0.00    +0.000 C 
ATOM     12  C   UNL     1      48.572   7.341  15.384  0.00  0.00    +0.000 C 
ATOM     13  N   UNL     1      49.160   8.684  15.484  0.00  0.00    +0.000 NA
ATOM     14  C   UNL     1      49.776   8.542  14.156  0.00  0.00    +0.000 C 
ATOM     15  H   UNL     1      49.833   8.790  16.243  0.00  0.00    +0.000 HD
ENDBRANCH  10  11
ENDBRANCH   8  10
ENDBRANCH   1   4
BRANCH   1  16
ATOM     16  C   UNL     1      43.449   5.077  11.101  0.00  0.00    +0.000 C 
BRANCH  16  17
ATOM     17  N   UNL     1      43.680   3.710  10.604  0.00  0.00    +0.000 N 
ATOM     18  H   UNL     1      43.721   3.002  11.340  0.00  0.00    +0.000 HD
BRANCH  17  22
ATOM     19  C   UNL     1      46.310   3.004   7.373  0.00  0.00    +0.000 A 
ATOM     20  C   UNL     1      46.181   4.297   7.888  0.00  0.00    +0.000 A 
ATOM     21  C   UNL     1      45.341   4.539   8.984  0.00  0.00    +0.000 A 
ATOM     22  C   UNL     1      44.629   3.499   9.595  0.00  0.00    +0.000 A 
ATOM     23  C   UNL     1      44.785   2.209   9.057  0.00  0.00    +0.000 A 
ATOM     24  F   UNL     1      44.122   1.184   9.611  0.00  0.00    +0.000 F 
ATOM     25  C   UNL     1      45.614   1.953   7.967  0.00  0.00    +0.000 A 
BRANCH  19  27
ATOM     26  N   UNL     1      47.806   2.572   5.303  0.00  0.00    +0.000 NA
ATOM     27  C   UNL     1      47.137   2.767   6.223  0.00  0.00    +0.000 C 
ENDBRANCH  19  27
ENDBRANCH  17  22
ENDBRANCH  16  17
ENDBRANCH   1  16
TORSDOF 7
ENDMDL
