MODEL 1
REMARK VINA RESULT:    -7.587      0.000      0.000
REMARK INTER + INTRA:         -10.134
REMARK INTER:                  -9.361
REMARK INTRA:                  -0.773
REMARK UNBOUND:                -0.773
REMARK  Name = 
REMARK  6 active torsions:
REMARK  status: ('A' for Active; 'I' for Inactive)
REMARK    1  A    between atoms: C_1  and  C_2
REMARK    2  A    between atoms: C_4  and  C_5
REMARK    3  A    between atoms: C_10  and  N_11
REMARK    4  A    between atoms: N_11  and  C_12
REMARK    5  A    between atoms: C_12  and  C_13
REMARK    6  A    between atoms: C_12  and  C_14
REMARK                            x       y       z     vdW  Elec       q    Type
REMARK                         _______ _______ _______ _____ _____    ______ ____
ROOT
ATOM      1  C   UNL     1      44.124   2.298  10.344  0.00  0.00    +0.000 C 
ATOM      2  C   UNL     1      45.028   2.980   9.351  0.00  0.00    +0.000 A 
ATOM      3  C   UNL     1      45.819   2.157   8.532  0.00  0.00    +0.000 A 
ATOM      4  C   UNL     1      46.654   2.702   7.551  0.00  0.00    +0.000 A 
ATOM      5  C   UNL     1      46.657   4.080   7.465  0.00  0.00    +0.000 A 
ATOM      6  N   UNL     1      45.955   4.912   8.282  0.00  0.00    +0.000 NA
ATOM      7  C   UNL     1      45.150   4.371   9.229  0.00  0.00    +0.000 A 
ENDROOT
BRANCH   4   8
ATOM      8  C   UNL     1      47.439   1.789   6.698  0.00  0.00    +0.000 C 
ATOM      9  N   UNL     1      48.523   2.273   6.019  0.00  0.00    +0.000 N 
ATOM     10  O   UNL     1      47.127   0.606   6.587  0.00  0.00    +0.000 OA
ATOM     11  H   UNL     1      48.867   3.222   6.044  0.00  0.00    +0.000 HD
ATOM     12  H   UNL     1      49.026   1.606   5.443  0.00  0.00    +0.000 HD
ENDBRANCH   4   8
BRANCH   7  13
ATOM     13  N   UNL     1      44.422   5.238  10.064  0.00  0.00    +0.000 N 
ATOM     14  H   UNL     1      43.604   5.564   9.561  0.00  0.00    +0.000 HD
BRANCH  13  15
ATOM     15  C   UNL     1      45.182   6.337  10.693  0.00  0.00    +0.000 C 
ATOM     16  C   UNL     1      44.299   7.507  11.155  0.00  0.00    +0.000 C 
BRANCH  15  17
ATOM     17  C   UNL     1      45.985   5.846  11.904  0.00  0.00    +0.000 A 
ATOM     18  C   UNL     1      47.139   6.558  12.285  0.00  0.00    +0.000 A 
ATOM     19  C   UNL     1      47.834   6.239  13.456  0.00  0.00    +0.000 A 
ATOM     20  C   UNL     1      47.388   5.200  14.267  0.00  0.00    +0.000 A 
ATOM     21  C   UNL     1      46.267   4.463  13.894  0.00  0.00    +0.000 A 
ATOM     22  C   UNL     1      45.567   4.782  12.721  0.00  0.00    +0.000 A 
ENDBRANCH  15  17
ENDBRANCH  13  15
ENDBRANCH   7  13
TORSDOF 4
ENDMDL
MODEL 2
REMARK VINA RESULT:    -6.785      1.128      2.119
REMARK INTER + INTRA:          -9.144
REMARK INTER:                  -9.092
REMARK INTRA:                  -0.052
REMARK UNBOUND:                -0.773
REMARK  Name = 
REMARK  6 active torsions:
REMARK  status: ('A' for Active; 'I' for Inactive)
REMARK    1  A    between atoms: C_1  and  C_2
REMARK    2  A    between atoms: C_4  and  C_5
REMARK    3  A    between atoms: C_10  and  N_11
REMARK    4  A    between atoms: N_11  and  C_12
REMARK    5  A    between atoms: C_12  and  C_13
REMARK    6  A    between atoms: C_12  and  C_14
REMARK                            x       y       z     vdW  Elec       q    Type
REMARK                         _______ _______ _______ _____ _____    ______ ____
ROOT
ATOM      1  C   UNL     1      44.021   2.074   9.919  0.00  0.00    +0.000 C 
ATOM      2  C   UNL     1      44.969   2.925   9.114  0.00  0.00    +0.000 A 
ATOM      3  C   UNL     1      45.875   2.256   8.275  0.00  0.00    +0.000 A 
ATOM      4  C   UNL     1      46.761   2.966   7.457  0.00  0.00    +0.000 A 
ATOM      5  C   UNL     1      46.692   4.342   7.552  0.00  0.00    +0.000 A 
ATOM      6  N   UNL     1      45.875   5.023   8.400  0.00  0.00    +0.000 NA
ATOM      7  C   UNL     1      45.020   4.323   9.187  0.00  0.00    +0.000 A 
ENDROOT
BRANCH   4   8
ATOM      8  C   UNL     1      47.670   2.213   6.572  0.00  0.00    +0.000 C 
ATOM      9  N   UNL     1      48.117   2.796   5.418  0.00  0.00    +0.000 N 
ATOM     10  O   UNL     1      48.022   1.070   6.855  0.00  0.00    +0.000 OA
ATOM     11  H   UNL     1      47.894   3.727   5.096  0.00  0.00    +0.000 HD
ATOM     12  H   UNL     1      48.735   2.235   4.842  0.00  0.00    +0.000 HD
ENDBRANCH   4   8
BRANCH   7  13
ATOM     13  N   UNL     1      44.173   5.036  10.055  0.00  0.00    +0.000 N 
ATOM     14  H   UNL     1      43.908   5.907   9.609  0.00  0.00    +0.000 HD
BRANCH  13  15
ATOM     15  C   UNL     1      44.656   5.224  11.437  0.00  0.00    +0.000 C 
ATOM     16  C   UNL     1      45.579   4.096  11.923  0.00  0.00    +0.000 C 
BRANCH  15  17
ATOM     17  C   UNL     1      45.410   6.550  11.594  0.00  0.00    +0.000 A 
ATOM     18  C   UNL     1      44.669   7.742  11.717  0.00  0.00    +0.000 A 
ATOM     19  C   UNL     1      45.296   8.960  11.996  0.00  0.00    +0.000 A 
ATOM     20  C   UNL     1      46.677   9.010  12.156  0.00  0.00    +0.000 A 
ATOM     21  C   UNL     1      47.433   7.850  12.009  0.00  0.00    +0.000 A 
ATOM     22  C   UNL     1      46.806   6.627  11.732  0.00  0.00    +0.000 A 
ENDBRANCH  15  17
ENDBRANCH  13  15
ENDBRANCH   7  13
TORSDOF 4
ENDMDL
MODEL 3
REMARK VINA RESULT:    -6.741      3.251      6.266
REMARK INTER + INTRA:          -9.090
REMARK INTER:                  -8.692
REMARK INTRA:                  -0.398
REMARK UNBOUND:                -0.773
REMARK  Name = 
REMARK  6 active torsions:
REMARK  status: ('A' for Active; 'I' for Inactive)
REMARK    1  A    between atoms: C_1  and  C_2
REMARK    2  A    between atoms: C_4  and  C_5
REMARK    3  A    between atoms: C_10  and  N_11
REMARK    4  A    between atoms: N_11  and  C_12
REMARK    5  A    between atoms: C_12  and  C_13
REMARK    6  A    between atoms: C_12  and  C_14
REMARK                            x       y       z     vdW  Elec       q    Type
REMARK                         _______ _______ _______ _____ _____    ______ ____
ROOT
ATOM      1  C   UNL     1      43.361   4.118  13.116  0.00  0.00    +0.000 C 
ATOM      2  C   UNL     1      44.442   4.953  12.480  0.00  0.00    +0.000 A 
ATOM      3  C   UNL     1      44.566   6.282  12.917  0.00  0.00    +0.000 A 
ATOM      4  C   UNL     1      45.570   7.117  12.415  0.00  0.00    +0.000 A 
ATOM      5  C   UNL     1      46.397   6.554  11.463  0.00  0.00    +0.000 A 
ATOM      6  N   UNL     1      46.267   5.293  10.968  0.00  0.00    +0.000 NA
ATOM      7  C   UNL     1      45.290   4.494  11.463  0.00  0.00    +0.000 A 
ENDROOT
BRANCH   4   8
ATOM      8  C   UNL     1      45.673   8.495  12.933  0.00  0.00    +0.000 C 
ATOM      9  N   UNL     1      46.534   8.761  13.961  0.00  0.00    +0.000 N 
ATOM     10  O   UNL     1      44.992   9.400  12.456  0.00  0.00    +0.000 OA
ATOM     11  H   UNL     1      47.141   8.095  14.418  0.00  0.00    +0.000 HD
ATOM     12  H   UNL     1      46.565   9.722  14.283  0.00  0.00    +0.000 HD
ENDBRANCH   4   8
BRANCH   7  13
ATOM     13  N   UNL     1      45.168   3.189  10.952  0.00  0.00    +0.000 N 
ATOM     14  H   UNL     1      46.077   2.740  10.985  0.00  0.00    +0.000 HD
BRANCH  13  15
ATOM     15  C   UNL     1      44.514   3.059   9.634  0.00  0.00    +0.000 C 
ATOM     16  C   UNL     1      43.856   4.358   9.145  0.00  0.00    +0.000 C 
BRANCH  15  17
ATOM     17  C   UNL     1      45.503   2.597   8.557  0.00  0.00    +0.000 A 
ATOM     18  C   UNL     1      46.078   3.562   7.707  0.00  0.00    +0.000 A 
ATOM     19  C   UNL     1      47.084   3.220   6.798  0.00  0.00    +0.000 A 
ATOM     20  C   UNL     1      47.533   1.905   6.721  0.00  0.00    +0.000 A 
ATOM     21  C   UNL     1      46.958   0.929   7.530  0.00  0.00    +0.000 A 
ATOM     22  C   UNL     1      45.950   1.270   8.444  0.00  0.00    +0.000 A 
ENDBRANCH  15  17
ENDBRANCH  13  15
ENDBRANCH   7  13
TORSDOF 4
ENDMDL
MODEL 4
REMARK VINA RESULT:    -6.452      3.410      6.660
REMARK INTER + INTRA:          -8.733
REMARK INTER:                  -8.197
REMARK INTRA:                  -0.537
REMARK UNBOUND:                -0.773
REMARK  Name = 
REMARK  6 active torsions:
REMARK  status: ('A' for Active; 'I' for Inactive)
REMARK    1  A    between atoms: C_1  and  C_2
REMARK    2  A    between atoms: C_4  and  C_5
REMARK    3  A    between atoms: C_10  and  N_11
REMARK    4  A    between atoms: N_11  and  C_12
REMARK    5  A    between atoms: C_12  and  C_13
REMARK    6  A    between atoms: C_12  and  C_14
REMARK                            x       y       z     vdW  Elec       q    Type
REMARK                         _______ _______ _______ _____ _____    ______ ____
ROOT
ATOM      1  C   UNL     1      47.709   7.643  11.929  0.00  0.00    +0.000 C 
ATOM      2  C   UNL     1      47.284   6.492  12.804  0.00  0.00    +0.000 A 
ATOM      3  C   UNL     1      47.926   6.360  14.046  0.00  0.00    +0.000 A 
ATOM      4  C   UNL     1      47.563   5.348  14.943  0.00  0.00    +0.000 A 
ATOM      5  C   UNL     1      46.563   4.497  14.513  0.00  0.00    +0.000 A 
ATOM      6  N   UNL     1      45.965   4.554  13.293  0.00  0.00    +0.000 NA
ATOM      7  C   UNL     1      46.325   5.539  12.433  0.00  0.00    +0.000 A 
ENDROOT
BRANCH   4   8
ATOM      8  C   UNL     1      48.249   5.274  16.247  0.00  0.00    +0.000 C 
ATOM      9  N   UNL     1      47.506   5.164  17.389  0.00  0.00    +0.000 N 
ATOM     10  O   UNL     1      49.475   5.318  16.317  0.00  0.00    +0.000 OA
ATOM     11  H   UNL     1      46.498   5.115  17.442  0.00  0.00    +0.000 HD
ATOM     12  H   UNL     1      48.024   5.122  18.259  0.00  0.00    +0.000 HD
ENDBRANCH   4   8
BRANCH   7  13
ATOM     13  N   UNL     1      45.695   5.596  11.177  0.00  0.00    +0.000 N 
ATOM     14  H   UNL     1      45.244   6.499  11.079  0.00  0.00    +0.000 HD
BRANCH  13  15
ATOM     15  C   UNL     1      44.801   4.471  10.838  0.00  0.00    +0.000 C 
ATOM     16  C   UNL     1      43.339   4.893  10.623  0.00  0.00    +0.000 C 
BRANCH  15  17
ATOM     17  C   UNL     1      45.270   3.738   9.576  0.00  0.00    +0.000 A 
ATOM     18  C   UNL     1      45.837   4.489   8.527  0.00  0.00    +0.000 A 
ATOM     19  C   UNL     1      46.404   3.864   7.412  0.00  0.00    +0.000 A 
ATOM     20  C   UNL     1      46.411   2.476   7.322  0.00  0.00    +0.000 A 
ATOM     21  C   UNL     1      45.829   1.714   8.332  0.00  0.00    +0.000 A 
ATOM     22  C   UNL     1      45.263   2.338   9.453  0.00  0.00    +0.000 A 
ENDBRANCH  15  17
ENDBRANCH  13  15
ENDBRANCH   7  13
TORSDOF 4
ENDMDL
MODEL 5
REMARK VINA RESULT:    -6.426      3.505      6.687
REMARK INTER + INTRA:          -8.701
REMARK INTER:                  -8.140
REMARK INTRA:                  -0.561
REMARK UNBOUND:                -0.773
REMARK  Name = 
REMARK  6 active torsions:
REMARK  status: ('A' for Active; 'I' for Inactive)
REMARK    1  A    between atoms: C_1  and  C_2
REMARK    2  A    between atoms: C_4  and  C_5
REMARK    3  A    between atoms: C_10  and  N_11
REMARK    4  A    between atoms: N_11  and  C_12
REMARK    5  A    between atoms: C_12  and  C_13
REMARK    6  A    between atoms: C_12  and  C_14
REMARK                            x       y       z     vdW  Elec       q    Type
REMARK                         _______ _______ _______ _____ _____    ______ ____
ROOT
ATOM      1  C   UNL     1      44.141   8.860  11.314  0.00  0.00    +0.000 C 
ATOM      2  C   UNL     1      45.319   8.095  11.857  0.00  0.00    +0.000 A 
ATOM      3  C   UNL     1      46.145   8.759  12.779  0.00  0.00    +0.000 A 
ATOM      4  C   UNL     1      47.236   8.111  13.369  0.00  0.00    +0.000 A 
ATOM      5  C   UNL     1      47.445   6.805  12.970  0.00  0.00    +0.000 A 
ATOM      6  N   UNL     1      46.707   6.151  12.033  0.00  0.00    +0.000 NA
ATOM      7  C   UNL     1      45.652   6.790  11.468  0.00  0.00    +0.000 A 
ENDROOT
BRANCH   4   8
ATOM      8  C   UNL     1      48.052   8.846  14.355  0.00  0.00    +0.000 C 
ATOM      9  N   UNL     1      47.496   9.200  15.553  0.00  0.00    +0.000 N 
ATOM     10  O   UNL     1      49.217   9.149  14.108  0.00  0.00    +0.000 OA
ATOM     11  H   UNL     1      46.555   8.997  15.857  0.00  0.00    +0.000 HD
ATOM     12  H   UNL     1      48.097   9.708  16.193  0.00  0.00    +0.000 HD
ENDBRANCH   4   8
BRANCH   7  13
ATOM     13  N   UNL     1      44.889   6.104  10.506  0.00  0.00    +0.000 N 
ATOM     14  H   UNL     1      44.024   6.611  10.354  0.00  0.00    +0.000 HD
BRANCH  13  15
ATOM     15  C   UNL     1      44.672   4.663  10.746  0.00  0.00    +0.000 C 
ATOM     16  C   UNL     1      43.202   4.301  11.010  0.00  0.00    +0.000 C 
BRANCH  15  17
ATOM     17  C   UNL     1      45.160   3.815   9.566  0.00  0.00    +0.000 A 
ATOM     18  C   UNL     1      45.797   4.459   8.486  0.00  0.00    +0.000 A 
ATOM     19  C   UNL     1      46.381   3.727   7.448  0.00  0.00    +0.000 A 
ATOM     20  C   UNL     1      46.338   2.336   7.468  0.00  0.00    +0.000 A 
ATOM     21  C   UNL     1      45.688   1.679   8.510  0.00  0.00    +0.000 A 
ATOM     22  C   UNL     1      45.103   2.411   9.554  0.00  0.00    +0.000 A 
ENDBRANCH  15  17
ENDBRANCH  13  15
ENDBRANCH   7  13
TORSDOF 4
ENDMDL
MODEL 6
REMARK VINA RESULT:    -6.180      2.718      4.694
REMARK INTER + INTRA:          -8.397
REMARK INTER:                  -7.775
REMARK INTRA:                  -0.623
REMARK UNBOUND:                -0.773
REMARK  Name = 
REMARK  6 active torsions:
REMARK  status: ('A' for Active; 'I' for Inactive)
REMARK    1  A    between atoms: C_1  and  C_2
REMARK    2  A    between atoms: C_4  and  C_5
REMARK    3  A    between atoms: C_10  and  N_11
REMARK    4  A    between atoms: N_11  and  C_12
REMARK    5  A    between atoms: C_12  and  C_13
REMARK    6  A    between atoms: C_12  and  C_14
REMARK                            x       y       z     vdW  Elec       q    Type
REMARK                         _______ _______ _______ _____ _____    ______ ____
ROOT
ATOM      1  C   UNL     1      46.018   7.244  11.862  0.00  0.00    +0.000 C 
ATOM      2  C   UNL     1      45.705   5.770  11.893  0.00  0.00    +0.000 A 
ATOM      3  C   UNL     1      45.232   5.190  10.705  0.00  0.00    +0.000 A 
ATOM      4  C   UNL     1      44.959   3.819  10.629  0.00  0.00    +0.000 A 
ATOM      5  C   UNL     1      45.167   3.102  11.790  0.00  0.00    +0.000 A 
ATOM      6  N   UNL     1      45.561   3.639  12.976  0.00  0.00    +0.000 NA
ATOM      7  C   UNL     1      45.823   4.969  13.037  0.00  0.00    +0.000 A 
ENDROOT
BRANCH   4   8
ATOM      8  C   UNL     1      44.494   3.257   9.346  0.00  0.00    +0.000 C 
ATOM      9  N   UNL     1      44.121   4.105   8.340  0.00  0.00    +0.000 N 
ATOM     10  O   UNL     1      44.431   2.042   9.176  0.00  0.00    +0.000 OA
ATOM     11  H   UNL     1      44.140   5.114   8.373  0.00  0.00    +0.000 HD
ATOM     12  H   UNL     1      43.805   3.669   7.481  0.00  0.00    +0.000 HD
ENDBRANCH   4   8
BRANCH   7  13
ATOM     13  N   UNL     1      46.238   5.515  14.265  0.00  0.00    +0.000 N 
ATOM     14  H   UNL     1      45.923   6.478  14.316  0.00  0.00    +0.000 HD
BRANCH  13  15
ATOM     15  C   UNL     1      47.668   5.363  14.602  0.00  0.00    +0.000 C 
ATOM     16  C   UNL     1      48.459   6.678  14.523  0.00  0.00    +0.000 C 
BRANCH  15  17
ATOM     17  C   UNL     1      47.857   4.784  16.009  0.00  0.00    +0.000 A 
ATOM     18  C   UNL     1      47.385   3.483  16.275  0.00  0.00    +0.000 A 
ATOM     19  C   UNL     1      47.647   2.853  17.495  0.00  0.00    +0.000 A 
ATOM     20  C   UNL     1      48.384   3.513  18.474  0.00  0.00    +0.000 A 
ATOM     21  C   UNL     1      48.834   4.810  18.244  0.00  0.00    +0.000 A 
ATOM     22  C   UNL     1      48.575   5.443  17.020  0.00  0.00    +0.000 A 
ENDBRANCH  15  17
ENDBRANCH  13  15
ENDBRANCH   7  13
TORSDOF 4
ENDMDL
MODEL 7
REMARK VINA RESULT:    -5.926      3.598      5.870
REMARK INTER + INTRA:          -8.084
REMARK INTER:                  -7.610
REMARK INTRA:                  -0.475
REMARK UNBOUND:                -0.773
REMARK  Name = 
REMARK  6 active torsions:
REMARK  status: ('A' for Active; 'I' for Inactive)
REMARK    1  A    between atoms: C_1  and  C_2
REMARK    2  A    between atoms: C_4  and  C_5
REMARK    3  A    between atoms: C_10  and  N_11
REMARK    4  A    between atoms: N_11  and  C_12
REMARK    5  A    between atoms: C_12  and  C_13
REMARK    6  A    between atoms: C_12  and  C_14
REMARK                            x       y       z     vdW  Elec       q    Type
REMARK                         _______ _______ _______ _____ _____    ______ ____
ROOT
ATOM      1  C   UNL     1      46.581   3.277  13.353  0.00  0.00    +0.000 C 
ATOM      2  C   UNL     1      46.362   4.760  13.208  0.00  0.00    +0.000 A 
ATOM      3  C   UNL     1      47.499   5.583  13.246  0.00  0.00    +0.000 A 
ATOM      4  C   UNL     1      47.395   6.968  13.074  0.00  0.00    +0.000 A 
ATOM      5  C   UNL     1      46.116   7.454  12.889  0.00  0.00    +0.000 A 
ATOM      6  N   UNL     1      44.985   6.697  12.911  0.00  0.00    +0.000 NA
ATOM      7  C   UNL     1      45.100   5.356  13.079  0.00  0.00    +0.000 A 
ENDROOT
BRANCH   4   8
ATOM      8  C   UNL     1      48.626   7.781  13.092  0.00  0.00    +0.000 C 
ATOM      9  N   UNL     1      48.650   8.975  12.425  0.00  0.00    +0.000 N 
ATOM     10  O   UNL     1      49.628   7.395  13.690  0.00  0.00    +0.000 OA
ATOM     11  H   UNL     1      47.884   9.385  11.910  0.00  0.00    +0.000 HD
ATOM     12  H   UNL     1      49.521   9.493  12.464  0.00  0.00    +0.000 HD
ENDBRANCH   4   8
BRANCH   7  13
ATOM     13  N   UNL     1      43.927   4.580  13.093  0.00  0.00    +0.000 N 
ATOM     14  H   UNL     1      44.144   3.668  13.481  0.00  0.00    +0.000 HD
BRANCH  13  15
ATOM     15  C   UNL     1      43.179   4.496  11.822  0.00  0.00    +0.000 C 
ATOM     16  C   UNL     1      42.534   5.826  11.402  0.00  0.00    +0.000 C 
BRANCH  15  17
ATOM     17  C   UNL     1      44.075   4.023  10.671  0.00  0.00    +0.000 A 
ATOM     18  C   UNL     1      44.142   2.646  10.386  0.00  0.00    +0.000 A 
ATOM     19  C   UNL     1      44.834   2.169   9.268  0.00  0.00    +0.000 A 
ATOM     20  C   UNL     1      45.475   3.062   8.415  0.00  0.00    +0.000 A 
ATOM     21  C   UNL     1      45.448   4.426   8.694  0.00  0.00    +0.000 A 
ATOM     22  C   UNL     1      44.753   4.906   9.813  0.00  0.00    +0.000 A 
ENDBRANCH  15  17
ENDBRANCH  13  15
ENDBRANCH   7  13
TORSDOF 4
ENDMDL
MODEL 8
REMARK VINA RESULT:    -5.917      3.312      4.474
REMARK INTER + INTRA:          -8.073
REMARK INTER:                  -7.117
REMARK INTRA:                  -0.956
REMARK UNBOUND:                -0.773
REMARK  Name = 
REMARK  6 active torsions:
REMARK  status: ('A' for Active; 'I' for Inactive)
REMARK    1  A    between atoms: C_1  and  C_2
REMARK    2  A    between atoms: C_4  and  C_5
REMARK    3  A    between atoms: C_10  and  N_11
REMARK    4  A    between atoms: N_11  and  C_12
REMARK    5  A    between atoms: C_12  and  C_13
REMARK    6  A    between atoms: C_12  and  C_14
REMARK                            x       y       z     vdW  Elec       q    Type
REMARK                         _______ _______ _______ _____ _____    ______ ____
ROOT
ATOM      1  C   UNL     1      46.774   5.269  13.910  0.00  0.00    +0.000 C 
ATOM      2  C   UNL     1      45.607   5.267  12.957  0.00  0.00    +0.000 A 
ATOM      3  C   UNL     1      45.235   4.031  12.402  0.00  0.00    +0.000 A 
ATOM      4  C   UNL     1      44.135   3.927  11.543  0.00  0.00    +0.000 A 
ATOM      5  C   UNL     1      43.473   5.109  11.272  0.00  0.00    +0.000 A 
ATOM      6  N   UNL     1      43.843   6.332  11.738  0.00  0.00    +0.000 NA
ATOM      7  C   UNL     1      44.911   6.419  12.570  0.00  0.00    +0.000 A 
ENDROOT
BRANCH   4   8
ATOM      8  C   UNL     1      43.769   2.599  11.014  0.00  0.00    +0.000 C 
ATOM      9  N   UNL     1      44.418   2.115   9.912  0.00  0.00    +0.000 N 
ATOM     10  O   UNL     1      42.887   1.930  11.547  0.00  0.00    +0.000 OA
ATOM     11  H   UNL     1      45.157   2.579   9.404  0.00  0.00    +0.000 HD
ATOM     12  H   UNL     1      44.126   1.201   9.586  0.00  0.00    +0.000 HD
ENDBRANCH   4   8
BRANCH   7  13
ATOM     13  N   UNL     1      45.282   7.687  13.053  0.00  0.00    +0.000 N 
ATOM     14  H   UNL     1      44.453   8.160  13.398  0.00  0.00    +0.000 HD
BRANCH  13  15
ATOM     15  C   UNL     1      46.082   8.529  12.141  0.00  0.00    +0.000 C 
ATOM     16  C   UNL     1      45.694  10.016  12.181  0.00  0.00    +0.000 C 
BRANCH  15  17
ATOM     17  C   UNL     1      47.581   8.426  12.448  0.00  0.00    +0.000 A 
ATOM     18  C   UNL     1      48.049   8.874  13.699  0.00  0.00    +0.000 A 
ATOM     19  C   UNL     1      49.378   8.682  14.087  0.00  0.00    +0.000 A 
ATOM     20  C   UNL     1      50.267   8.042  13.229  0.00  0.00    +0.000 A 
ATOM     21  C   UNL     1      49.834   7.618  11.976  0.00  0.00    +0.000 A 
ATOM     22  C   UNL     1      48.500   7.806  11.586  0.00  0.00    +0.000 A 
ENDBRANCH  15  17
ENDBRANCH  13  15
ENDBRANCH   7  13
TORSDOF 4
ENDMDL
MODEL 9
REMARK VINA RESULT:    -5.627      4.568      7.551
REMARK INTER + INTRA:          -7.715
REMARK INTER:                  -7.133
REMARK INTRA:                  -0.583
REMARK UNBOUND:                -0.773
REMARK  Name = 
REMARK  6 active torsions:
REMARK  status: ('A' for Active; 'I' for Inactive)
REMARK    1  A    between atoms: C_1  and  C_2
REMARK    2  A    between atoms: C_4  and  C_5
REMARK    3  A    between atoms: C_10  and  N_11
REMARK    4  A    between atoms: N_11  and  C_12
REMARK    5  A    between atoms: C_12  and  C_13
REMARK    6  A    between atoms: C_12  and  C_14
REMARK                            x       y       z     vdW  Elec       q    Type
REMARK                         _______ _______ _______ _____ _____    ______ ____
ROOT
ATOM      1  C   UNL     1      48.905   7.434  14.630  0.00  0.00    +0.000 C 
ATOM      2  C   UNL     1      48.292   6.177  15.189  0.00  0.00    +0.000 A 
ATOM      3  C   UNL     1      48.614   5.841  16.515  0.00  0.00    +0.000 A 
ATOM      4  C   UNL     1      48.055   4.716  17.131  0.00  0.00    +0.000 A 
ATOM      5  C   UNL     1      47.199   3.967  16.347  0.00  0.00    +0.000 A 
ATOM      6  N   UNL     1      46.915   4.223  15.042  0.00  0.00    +0.000 NA
ATOM      7  C   UNL     1      47.463   5.317  14.456  0.00  0.00    +0.000 A 
ENDROOT
BRANCH   4   8
ATOM      8  C   UNL     1      48.404   4.428  18.536  0.00  0.00    +0.000 C 
ATOM      9  N   UNL     1      48.829   3.174  18.877  0.00  0.00    +0.000 N 
ATOM     10  O   UNL     1      48.310   5.298  19.399  0.00  0.00    +0.000 OA
ATOM     11  H   UNL     1      48.946   2.393  18.247  0.00  0.00    +0.000 HD
ATOM     12  H   UNL     1      49.051   3.026  19.855  0.00  0.00    +0.000 HD
ENDBRANCH   4   8
BRANCH   7  13
ATOM     13  N   UNL     1      47.158   5.579  13.108  0.00  0.00    +0.000 N 
ATOM     14  H   UNL     1      47.753   6.332  12.780  0.00  0.00    +0.000 HD
BRANCH  13  15
ATOM     15  C   UNL     1      45.733   5.796  12.788  0.00  0.00    +0.000 C 
ATOM     16  C   UNL     1      45.373   7.274  12.565  0.00  0.00    +0.000 C 
BRANCH  15  17
ATOM     17  C   UNL     1      45.311   5.016  11.537  0.00  0.00    +0.000 A 
ATOM     18  C   UNL     1      45.663   5.523  10.271  0.00  0.00    +0.000 A 
ATOM     19  C   UNL     1      45.425   4.790   9.104  0.00  0.00    +0.000 A 
ATOM     20  C   UNL     1      44.827   3.536   9.181  0.00  0.00    +0.000 A 
ATOM     21  C   UNL     1      44.443   3.028  10.419  0.00  0.00    +0.000 A 
ATOM     22  C   UNL     1      44.683   3.760  11.591  0.00  0.00    +0.000 A 
ENDBRANCH  15  17
ENDBRANCH  13  15
ENDBRANCH   7  13
TORSDOF 4
ENDMDL
