MODEL 1
REMARK VINA RESULT:    -7.583      0.000      0.000
REMARK INTER + INTRA:          -9.830
REMARK INTER:                  -9.356
REMARK INTRA:                  -0.474
REMARK UNBOUND:                -0.474
REMARK  Name = 
REMARK  4 active torsions:
REMARK  status: ('A' for Active; 'I' for Inactive)
REMARK    1  A    between atoms: C_2  and  C_4
REMARK    2  A    between atoms: C_7  and  O_8
REMARK    3  A    between atoms: O_8  and  C_9
REMARK    4  A    between atoms: C_9  and  C_10
REMARK                            x       y       z     vdW  Elec       q    Type
REMARK                         _______ _______ _______ _____ _____    ______ ____
ROOT
ATOM      1  C   UNL     1      46.475   2.615   7.524  0.00  0.00    +0.000 A 
ATOM      2  C   UNL     1      46.056   3.920   7.740  0.00  0.00    +0.000 A 
ATOM      3  C   UNL     1      45.071   4.143   8.702  0.00  0.00    +0.000 A 
ATOM      4  C   UNL     1      44.532   3.065   9.400  0.00  0.00    +0.000 A 
ATOM      5  C   UNL     1      45.058   1.801   9.148  0.00  0.00    +0.000 A 
ATOM      6  N   UNL     1      46.007   1.541   8.221  0.00  0.00    +0.000 NA
ENDROOT
BRANCH   1   8
ATOM      7  N   UNL     1      47.443   3.165   5.379  0.00  0.00    +0.000 N 
ATOM      8  C   UNL     1      47.469   2.309   6.448  0.00  0.00    +0.000 C 
ATOM      9  O   UNL     1      48.261   1.380   6.518  0.00  0.00    +0.000 OA
ATOM     10  H   UNL     1      48.105   3.053   4.626  0.00  0.00    +0.000 HD
ATOM     11  H   UNL     1      46.788   3.941   5.381  0.00  0.00    +0.000 HD
ENDBRANCH   1   8
BRANCH   4  12
ATOM     12  O   UNL     1      43.519   3.349  10.271  0.00  0.00    +0.000 OA
BRANCH  12  13
ATOM     13  C   UNL     1      43.743   2.904  11.617  0.00  0.00    +0.000 C 
BRANCH  13  14
ATOM     14  C   UNL     1      44.749   3.773  12.332  0.00  0.00    +0.000 A 
ATOM     15  C   UNL     1      44.625   5.160  12.363  0.00  0.00    +0.000 A 
ATOM     16  C   UNL     1      45.595   5.905  13.029  0.00  0.00    +0.000 A 
ATOM     17  C   UNL     1      46.664   5.253  13.631  0.00  0.00    +0.000 A 
ATOM     18  C   UNL     1      46.724   3.875  13.538  0.00  0.00    +0.000 A 
ATOM     19  N   UNL     1      45.800   3.128  12.901  0.00  0.00    +0.000 NA
ENDBRANCH  13  14
ENDBRANCH  12  13
ENDBRANCH   4  12
TORSDOF 4
ENDMDL
MODEL 2
REMARK VINA RESULT:    -7.520      2.003      5.981
REMARK INTER + INTRA:          -9.752
REMARK INTER:                  -9.331
REMARK INTRA:                  -0.421
REMARK UNBOUND:                -0.474
REMARK  Name = 
REMARK  4 active torsions:
REMARK  status: ('A' for Active; 'I' for Inactive)
REMARK    1  A    between atoms: C_2  and  C_4
REMARK    2  A    between atoms: C_7  and  O_8
REMARK    3  A    between atoms: O_8  and  C_9
REMARK    4  A    between atoms: C_9  and  C_10
REMARK                            x       y       z     vdW  Elec       q    Type
REMARK                         _______ _______ _______ _____ _____    ______ ____
ROOT
ATOM      1  C   UNL     1      46.311   4.745  13.206  0.00  0.00    +0.000 A 
ATOM      2  C   UNL     1      46.188   5.694  12.202  0.00  0.00    +0.000 A 
ATOM      3  C   UNL     1      45.457   5.355  11.063  0.00  0.00    +0.000 A 
ATOM      4  C   UNL     1      44.890   4.088  10.960  0.00  0.00    +0.000 A 
ATOM      5  C   UNL     1      45.024   3.226  12.046  0.00  0.00    +0.000 A 
ATOM      6  N   UNL     1      45.728   3.513  13.163  0.00  0.00    +0.000 NA
ENDROOT
BRANCH   1   8
ATOM      7  N   UNL     1      46.759   4.375  15.552  0.00  0.00    +0.000 N 
ATOM      8  C   UNL     1      47.151   5.026  14.413  0.00  0.00    +0.000 C 
ATOM      9  O   UNL     1      48.125   5.765  14.387  0.00  0.00    +0.000 OA
ATOM     10  H   UNL     1      47.293   4.480  16.402  0.00  0.00    +0.000 HD
ATOM     11  H   UNL     1      45.962   3.747  15.515  0.00  0.00    +0.000 HD
ENDBRANCH   1   8
BRANCH   4  12
ATOM     12  O   UNL     1      44.253   3.799   9.786  0.00  0.00    +0.000 OA
BRANCH  12  13
ATOM     13  C   UNL     1      44.434   2.454   9.322  0.00  0.00    +0.000 C 
BRANCH  13  14
ATOM     14  C   UNL     1      45.537   2.360   8.295  0.00  0.00    +0.000 A 
ATOM     15  C   UNL     1      45.796   3.399   7.405  0.00  0.00    +0.000 A 
ATOM     16  C   UNL     1      46.818   3.244   6.472  0.00  0.00    +0.000 A 
ATOM     17  C   UNL     1      47.542   2.058   6.442  0.00  0.00    +0.000 A 
ATOM     18  C   UNL     1      47.209   1.067   7.347  0.00  0.00    +0.000 A 
ATOM     19  N   UNL     1      46.225   1.190   8.261  0.00  0.00    +0.000 NA
ENDBRANCH  13  14
ENDBRANCH  12  13
ENDBRANCH   4  12
TORSDOF 4
ENDMDL
MODEL 3
REMARK VINA RESULT:    -6.771      2.472      6.182
REMARK INTER + INTRA:          -8.828
REMARK INTER:                  -8.441
REMARK INTRA:                  -0.387
REMARK UNBOUND:                -0.474
REMARK  Name = 
REMARK  4 active torsions:
REMARK  status: ('A' for Active; 'I' for Inactive)
REMARK    1  A    between atoms: C_2  and  C_4
REMARK    2  A    between atoms: C_7  and  O_8
REMARK    3  A    between atoms: O_8  and  C_9
REMARK    4  A    between atoms: C_9  and  C_10
REMARK                            x       y       z     vdW  Elec       q    Type
REMARK                         _______ _______ _______ _____ _____    ______ ____
ROOT
ATOM      1  C   UNL     1      45.493   6.876  12.449  0.00  0.00    +0.000 A 
ATOM      2  C   UNL     1      44.813   6.673  11.256  0.00  0.00    +0.000 A 
ATOM      3  C   UNL     1      44.644   5.363  10.812  0.00  0.00    +0.000 A 
ATOM      4  C   UNL     1      45.164   4.308  11.558  0.00  0.00    +0.000 A 
ATOM      5  C   UNL     1      45.782   4.613  12.768  0.00  0.00    +0.000 A 
ATOM      6  N   UNL     1      45.973   5.868  13.231  0.00  0.00    +0.000 NA
ENDROOT
BRANCH   1   8
ATOM      7  N   UNL     1      46.780   8.360  13.856  0.00  0.00    +0.000 N 
ATOM      8  C   UNL     1      45.775   8.265  12.932  0.00  0.00    +0.000 C 
ATOM      9  O   UNL     1      45.171   9.246  12.523  0.00  0.00    +0.000 OA
ATOM     10  H   UNL     1      47.059   9.265  14.206  0.00  0.00    +0.000 HD
ATOM     11  H   UNL     1      47.274   7.521  14.141  0.00  0.00    +0.000 HD
ENDBRANCH   1   8
BRANCH   4  12
ATOM     12  O   UNL     1      45.026   3.058  11.024  0.00  0.00    +0.000 OA
BRANCH  12  13
ATOM     13  C   UNL     1      44.436   3.027   9.717  0.00  0.00    +0.000 C 
BRANCH  13  14
ATOM     14  C   UNL     1      45.442   2.645   8.658  0.00  0.00    +0.000 A 
ATOM     15  C   UNL     1      45.899   3.566   7.719  0.00  0.00    +0.000 A 
ATOM     16  C   UNL     1      46.817   3.146   6.759  0.00  0.00    +0.000 A 
ATOM     17  C   UNL     1      47.243   1.823   6.754  0.00  0.00    +0.000 A 
ATOM     18  C   UNL     1      46.726   0.967   7.708  0.00  0.00    +0.000 A 
ATOM     19  N   UNL     1      45.838   1.345   8.649  0.00  0.00    +0.000 NA
ENDBRANCH  13  14
ENDBRANCH  12  13
ENDBRANCH   4  12
TORSDOF 4
ENDMDL
MODEL 4
REMARK VINA RESULT:    -6.732      1.425      1.875
REMARK INTER + INTRA:          -8.780
REMARK INTER:                  -8.307
REMARK INTRA:                  -0.473
REMARK UNBOUND:                -0.474
REMARK  Name = 
REMARK  4 active torsions:
REMARK  status: ('A' for Active; 'I' for Inactive)
REMARK    1  A    between atoms: C_2  and  C_4
REMARK    2  A    between atoms: C_7  and  O_8
REMARK    3  A    between atoms: O_8  and  C_9
REMARK    4  A    between atoms: C_9  and  C_10
REMARK                            x       y       z     vdW  Elec       q    Type
REMARK                         _______ _______ _______ _____ _____    ______ ____
ROOT
ATOM      1  C   UNL     1      46.153   2.265   8.074  0.00  0.00    +0.000 A 
ATOM      2  C   UNL     1      45.224   1.758   8.971  0.00  0.00    +0.000 A 
ATOM      3  C   UNL     1      44.328   2.649   9.562  0.00  0.00    +0.000 A 
ATOM      4  C   UNL     1      44.397   4.005   9.251  0.00  0.00    +0.000 A 
ATOM      5  C   UNL     1      45.330   4.405   8.298  0.00  0.00    +0.000 A 
ATOM      6  N   UNL     1      46.219   3.576   7.708  0.00  0.00    +0.000 NA
ENDROOT
BRANCH   1   8
ATOM      7  N   UNL     1      48.247   2.017   6.893  0.00  0.00    +0.000 N 
ATOM      8  C   UNL     1      47.190   1.368   7.473  0.00  0.00    +0.000 C 
ATOM      9  O   UNL     1      47.115   0.148   7.510  0.00  0.00    +0.000 OA
ATOM     10  H   UNL     1      49.008   1.486   6.497  0.00  0.00    +0.000 HD
ATOM     11  H   UNL     1      48.279   3.031   6.916  0.00  0.00    +0.000 HD
ENDBRANCH   1   8
BRANCH   4  12
ATOM     12  O   UNL     1      43.539   4.829   9.924  0.00  0.00    +0.000 OA
BRANCH  12  13
ATOM     13  C   UNL     1      43.602   4.719  11.353  0.00  0.00    +0.000 C 
BRANCH  13  14
ATOM     14  C   UNL     1      44.721   5.552  11.929  0.00  0.00    +0.000 A 
ATOM     15  C   UNL     1      44.764   6.934  11.762  0.00  0.00    +0.000 A 
ATOM     16  C   UNL     1      45.832   7.643  12.307  0.00  0.00    +0.000 A 
ATOM     17  C   UNL     1      46.830   6.957  12.988  0.00  0.00    +0.000 A 
ATOM     18  C   UNL     1      46.724   5.584  13.093  0.00  0.00    +0.000 A 
ATOM     19  N   UNL     1      45.702   4.871  12.577  0.00  0.00    +0.000 NA
ENDBRANCH  13  14
ENDBRANCH  12  13
ENDBRANCH   4  12
TORSDOF 4
ENDMDL
MODEL 5
REMARK VINA RESULT:    -6.100      1.975      2.571
REMARK INTER + INTRA:          -8.000
REMARK INTER:                  -7.650
REMARK INTRA:                  -0.350
REMARK UNBOUND:                -0.474
REMARK  Name = 
REMARK  4 active torsions:
REMARK  status: ('A' for Active; 'I' for Inactive)
REMARK    1  A    between atoms: C_2  and  C_4
REMARK    2  A    between atoms: C_7  and  O_8
REMARK    3  A    between atoms: O_8  and  C_9
REMARK    4  A    between atoms: C_9  and  C_10
REMARK                            x       y       z     vdW  Elec       q    Type
REMARK                         _______ _______ _______ _____ _____    ______ ____
ROOT
ATOM      1  C   UNL     1      46.607   2.634   7.630  0.00  0.00    +0.000 A 
ATOM      2  C   UNL     1      46.603   4.020   7.554  0.00  0.00    +0.000 A 
ATOM      3  C   UNL     1      45.886   4.729   8.517  0.00  0.00    +0.000 A 
ATOM      4  C   UNL     1      45.193   4.038   9.508  0.00  0.00    +0.000 A 
ATOM      5  C   UNL     1      45.304   2.651   9.531  0.00  0.00    +0.000 A 
ATOM      6  N   UNL     1      45.982   1.926   8.613  0.00  0.00    +0.000 NA
ENDROOT
BRANCH   1   8
ATOM      7  N   UNL     1      48.051   2.543   5.695  0.00  0.00    +0.000 N 
ATOM      8  C   UNL     1      47.291   1.821   6.576  0.00  0.00    +0.000 C 
ATOM      9  O   UNL     1      47.199   0.604   6.511  0.00  0.00    +0.000 OA
ATOM     10  H   UNL     1      48.576   2.069   4.976  0.00  0.00    +0.000 HD
ATOM     11  H   UNL     1      48.121   3.549   5.810  0.00  0.00    +0.000 HD
ENDBRANCH   1   8
BRANCH   4  12
ATOM     12  O   UNL     1      44.452   4.794  10.372  0.00  0.00    +0.000 OA
BRANCH  12  13
ATOM     13  C   UNL     1      45.088   5.064  11.629  0.00  0.00    +0.000 C 
BRANCH  13  14
ATOM     14  C   UNL     1      45.212   6.546  11.887  0.00  0.00    +0.000 A 
ATOM     15  C   UNL     1      46.074   7.050  12.857  0.00  0.00    +0.000 A 
ATOM     16  C   UNL     1      46.131   8.427  13.055  0.00  0.00    +0.000 A 
ATOM     17  C   UNL     1      45.321   9.260  12.293  0.00  0.00    +0.000 A 
ATOM     18  C   UNL     1      44.478   8.680  11.364  0.00  0.00    +0.000 A 
ATOM     19  N   UNL     1      44.402   7.351  11.150  0.00  0.00    +0.000 NA
ENDBRANCH  13  14
ENDBRANCH  12  13
ENDBRANCH   4  12
TORSDOF 4
ENDMDL
MODEL 6
REMARK VINA RESULT:    -5.777      3.213      6.306
REMARK INTER + INTRA:          -7.602
REMARK INTER:                  -7.234
REMARK INTRA:                  -0.367
REMARK UNBOUND:                -0.474
REMARK  Name = 
REMARK  4 active torsions:
REMARK  status: ('A' for Active; 'I' for Inactive)
REMARK    1  A    between atoms: C_2  and  C_4
REMARK    2  A    between atoms: C_7  and  O_8
REMARK    3  A    between atoms: O_8  and  C_9
REMARK    4  A    between atoms: C_9  and  C_10
REMARK                            x       y       z     vdW  Elec       q    Type
REMARK                         _______ _______ _______ _____ _____    ______ ____
ROOT
ATOM      1  C   UNL     1      44.292   7.768  11.312  0.00  0.00    +0.000 A 
ATOM      2  C   UNL     1      43.210   6.909  11.182  0.00  0.00    +0.000 A 
ATOM      3  C   UNL     1      43.466   5.540  11.098  0.00  0.00    +0.000 A 
ATOM      4  C   UNL     1      44.780   5.080  11.133  0.00  0.00    +0.000 A 
ATOM      5  C   UNL     1      45.791   6.019  11.320  0.00  0.00    +0.000 A 
ATOM      6  N   UNL     1      45.587   7.353  11.399  0.00  0.00    +0.000 NA
ENDROOT
BRANCH   1   8
ATOM      7  N   UNL     1      42.776   9.647  11.210  0.00  0.00    +0.000 N 
ATOM      8  C   UNL     1      44.082   9.250  11.324  0.00  0.00    +0.000 C 
ATOM      9  O   UNL     1      44.998  10.051  11.446  0.00  0.00    +0.000 OA
ATOM     10  H   UNL     1      42.543  10.629  11.247  0.00  0.00    +0.000 HD
ATOM     11  H   UNL     1      42.048   8.944  11.143  0.00  0.00    +0.000 HD
ENDBRANCH   1   8
BRANCH   4  12
ATOM     12  O   UNL     1      44.959   3.735  10.969  0.00  0.00    +0.000 OA
BRANCH  12  13
ATOM     13  C   UNL     1      44.329   3.185   9.804  0.00  0.00    +0.000 C 
BRANCH  13  14
ATOM     14  C   UNL     1      45.326   2.918   8.703  0.00  0.00    +0.000 A 
ATOM     15  C   UNL     1      45.914   1.666   8.537  0.00  0.00    +0.000 A 
ATOM     16  C   UNL     1      46.838   1.490   7.510  0.00  0.00    +0.000 A 
ATOM     17  C   UNL     1      47.159   2.563   6.688  0.00  0.00    +0.000 A 
ATOM     18  C   UNL     1      46.545   3.778   6.930  0.00  0.00    +0.000 A 
ATOM     19  N   UNL     1      45.648   3.978   7.916  0.00  0.00    +0.000 NA
ENDBRANCH  13  14
ENDBRANCH  12  13
ENDBRANCH   4  12
TORSDOF 4
ENDMDL
MODEL 7
REMARK VINA RESULT:    -5.678      4.352      6.177
REMARK INTER + INTRA:          -7.479
REMARK INTER:                  -7.159
REMARK INTRA:                  -0.320
REMARK UNBOUND:                -0.474
REMARK  Name = 
REMARK  4 active torsions:
REMARK  status: ('A' for Active; 'I' for Inactive)
REMARK    1  A    between atoms: C_2  and  C_4
REMARK    2  A    between atoms: C_7  and  O_8
REMARK    3  A    between atoms: O_8  and  C_9
REMARK    4  A    between atoms: C_9  and  C_10
REMARK                            x       y       z     vdW  Elec       q    Type
REMARK                         _______ _______ _______ _____ _____    ______ ____
ROOT
ATOM      1  C   UNL     1      45.280   5.655  12.186  0.00  0.00    +0.000 A 
ATOM      2  C   UNL     1      46.344   6.156  12.922  0.00  0.00    +0.000 A 
ATOM      3  C   UNL     1      47.096   5.260  13.682  0.00  0.00    +0.000 A 
ATOM      4  C   UNL     1      46.756   3.909  13.692  0.00  0.00    +0.000 A 
ATOM      5  C   UNL     1      45.704   3.499  12.878  0.00  0.00    +0.000 A 
ATOM      6  N   UNL     1      44.947   4.334  12.132  0.00  0.00    +0.000 NA
ENDROOT
BRANCH   1   8
ATOM      7  N   UNL     1      43.389   5.969  10.714  0.00  0.00    +0.000 N 
ATOM      8  C   UNL     1      44.391   6.582  11.418  0.00  0.00    +0.000 C 
ATOM      9  O   UNL     1      44.529   7.797  11.427  0.00  0.00    +0.000 OA
ATOM     10  H   UNL     1      42.722   6.524  10.198  0.00  0.00    +0.000 HD
ATOM     11  H   UNL     1      43.295   4.959  10.762  0.00  0.00    +0.000 HD
ENDBRANCH   1   8
BRANCH   4  12
ATOM     12  O   UNL     1      47.488   3.103  14.518  0.00  0.00    +0.000 OA
BRANCH  12  13
ATOM     13  C   UNL     1      47.469   3.486  15.900  0.00  0.00    +0.000 C 
BRANCH  13  14
ATOM     14  C   UNL     1      48.794   3.219  16.573  0.00  0.00    +0.000 A 
ATOM     15  C   UNL     1      49.400   4.166  17.394  0.00  0.00    +0.000 A 
ATOM     16  C   UNL     1      50.629   3.863  17.973  0.00  0.00    +0.000 A 
ATOM     17  C   UNL     1      51.225   2.636  17.710  0.00  0.00    +0.000 A 
ATOM     18  C   UNL     1      50.567   1.759  16.868  0.00  0.00    +0.000 A 
ATOM     19  N   UNL     1      49.377   2.025  16.293  0.00  0.00    +0.000 NA
ENDBRANCH  13  14
ENDBRANCH  12  13
ENDBRANCH   4  12
TORSDOF 4
ENDMDL
MODEL 8
REMARK VINA RESULT:    -5.582      3.701      5.822
REMARK INTER + INTRA:          -7.361
REMARK INTER:                  -7.049
REMARK INTRA:                  -0.312
REMARK UNBOUND:                -0.474
REMARK  Name = 
REMARK  4 active torsions:
REMARK  status: ('A' for Active; 'I' for Inactive)
REMARK    1  A    between atoms: C_2  and  C_4
REMARK    2  A    between atoms: C_7  and  O_8
REMARK    3  A    between atoms: O_8  and  C_9
REMARK    4  A    between atoms: C_9  and  C_10
REMARK                            x       y       z     vdW  Elec       q    Type
REMARK                         _______ _______ _______ _____ _____    ______ ____
ROOT
ATOM      1  C   UNL     1      45.236   4.204  11.759  0.00  0.00    +0.000 A 
ATOM      2  C   UNL     1      45.657   5.517  11.918  0.00  0.00    +0.000 A 
ATOM      3  C   UNL     1      46.508   5.810  12.983  0.00  0.00    +0.000 A 
ATOM      4  C   UNL     1      46.897   4.794  13.854  0.00  0.00    +0.000 A 
ATOM      5  C   UNL     1      46.464   3.501  13.577  0.00  0.00    +0.000 A 
ATOM      6  N   UNL     1      45.634   3.176  12.561  0.00  0.00    +0.000 NA
ENDROOT
BRANCH   1   8
ATOM      7  N   UNL     1      44.225   2.522  10.350  0.00  0.00    +0.000 N 
ATOM      8  C   UNL     1      44.258   3.850  10.683  0.00  0.00    +0.000 C 
ATOM      9  O   UNL     1      43.528   4.673  10.149  0.00  0.00    +0.000 OA
ATOM     10  H   UNL     1      43.567   2.192   9.659  0.00  0.00    +0.000 HD
ATOM     11  H   UNL     1      44.828   1.872  10.843  0.00  0.00    +0.000 HD
ENDBRANCH   1   8
BRANCH   4  12
ATOM     12  O   UNL     1      47.669   5.167  14.918  0.00  0.00    +0.000 OA
BRANCH  12  13
ATOM     13  C   UNL     1      47.474   4.384  16.104  0.00  0.00    +0.000 C 
BRANCH  13  14
ATOM     14  C   UNL     1      48.779   3.855  16.646  0.00  0.00    +0.000 A 
ATOM     15  C   UNL     1      49.006   2.490  16.802  0.00  0.00    +0.000 A 
ATOM     16  C   UNL     1      50.227   2.067  17.321  0.00  0.00    +0.000 A 
ATOM     17  C   UNL     1      51.180   3.012  17.681  0.00  0.00    +0.000 A 
ATOM     18  C   UNL     1      50.870   4.349  17.514  0.00  0.00    +0.000 A 
ATOM     19  N   UNL     1      49.697   4.787  17.013  0.00  0.00    +0.000 NA
ENDBRANCH  13  14
ENDBRANCH  12  13
ENDBRANCH   4  12
TORSDOF 4
ENDMDL
MODEL 9
REMARK VINA RESULT:    -5.490      4.510      6.178
REMARK INTER + INTRA:          -7.248
REMARK INTER:                  -6.895
REMARK INTRA:                  -0.353
REMARK UNBOUND:                -0.474
REMARK  Name = 
REMARK  4 active torsions:
REMARK  status: ('A' for Active; 'I' for Inactive)
REMARK    1  A    between atoms: C_2  and  C_4
REMARK    2  A    between atoms: C_7  and  O_8
REMARK    3  A    between atoms: O_8  and  C_9
REMARK    4  A    between atoms: C_9  and  C_10
REMARK                            x       y       z     vdW  Elec       q    Type
REMARK                         _______ _______ _______ _____ _____    ______ ____
ROOT
ATOM      1  C   UNL     1      44.483   5.478  12.233  0.00  0.00    +0.000 A 
ATOM      2  C   UNL     1      45.079   4.317  12.704  0.00  0.00    +0.000 A 
ATOM      3  C   UNL     1      46.318   4.423  13.336  0.00  0.00    +0.000 A 
ATOM      4  C   UNL     1      46.921   5.672  13.464  0.00  0.00    +0.000 A 
ATOM      5  C   UNL     1      46.218   6.783  13.007  0.00  0.00    +0.000 A 
ATOM      6  N   UNL     1      45.020   6.722  12.383  0.00  0.00    +0.000 NA
ENDROOT
BRANCH   1   8
ATOM      7  N   UNL     1      42.624   6.627  11.202  0.00  0.00    +0.000 N 
ATOM      8  C   UNL     1      43.194   5.412  11.475  0.00  0.00    +0.000 C 
ATOM      9  O   UNL     1      42.692   4.359  11.108  0.00  0.00    +0.000 OA
ATOM     10  H   UNL     1      41.772   6.674  10.663  0.00  0.00    +0.000 HD
ATOM     11  H   UNL     1      43.095   7.474  11.500  0.00  0.00    +0.000 HD
ENDBRANCH   1   8
BRANCH   4  12
ATOM     12  O   UNL     1      48.167   5.692  14.026  0.00  0.00    +0.000 OA
BRANCH  12  13
ATOM     13  C   UNL     1      48.206   6.164  15.379  0.00  0.00    +0.000 C 
BRANCH  13  14
ATOM     14  C   UNL     1      48.368   5.031  16.363  0.00  0.00    +0.000 A 
ATOM     15  C   UNL     1      47.286   4.252  16.765  0.00  0.00    +0.000 A 
ATOM     16  C   UNL     1      47.500   3.231  17.687  0.00  0.00    +0.000 A 
ATOM     17  C   UNL     1      48.778   3.022  18.190  0.00  0.00    +0.000 A 
ATOM     18  C   UNL     1      49.795   3.851  17.755  0.00  0.00    +0.000 A 
ATOM     19  N   UNL     1      49.617   4.847  16.864  0.00  0.00    +0.000 NA
ENDBRANCH  13  14
ENDBRANCH  12  13
ENDBRANCH   4  12
TORSDOF 4
ENDMDL
