MODEL 1
REMARK VINA RESULT:    -8.232      0.000      0.000
REMARK INTER + INTRA:         -11.240
REMARK INTER:                 -10.157
REMARK INTRA:                  -1.083
REMARK UNBOUND:                -1.083
REMARK  Name = 
REMARK  4 active torsions:
REMARK  status: ('A' for Active; 'I' for Inactive)
REMARK    1  A    between atoms: C_2  and  C_3
REMARK    2  A    between atoms: N_7  and  C_8
REMARK    3  A    between atoms: C_8  and  C_9
REMARK    4  A    between atoms: C_13  and  C_14
REMARK                            x       y       z     vdW  Elec       q    Type
REMARK                         _______ _______ _______ _____ _____    ______ ____
ROOT
ATOM      1  C   UNL     1      43.880   4.928  11.288  0.00  0.00    +0.000 C 
ATOM      2  C   UNL     1      42.466   5.084  11.868  0.00  0.00    +0.000 C 
ATOM      3  C   UNL     1      43.022   6.143  10.982  0.00  0.00    +0.000 C 
ENDROOT
BRANCH   1   8
ATOM      4  C   UNL     1      46.659   2.615   7.463  0.00  0.00    +0.000 A 
ATOM      5  C   UNL     1      46.477   3.977   7.691  0.00  0.00    +0.000 A 
ATOM      6  C   UNL     1      45.639   4.405   8.728  0.00  0.00    +0.000 A 
ATOM      7  C   UNL     1      44.985   3.457   9.499  0.00  0.00    +0.000 A 
ATOM      8  N   UNL     1      44.014   3.739  10.455  0.00  0.00    +0.000 N 
ATOM      9  N   UNL     1      45.168   2.130   9.296  0.00  0.00    +0.000 NA
ATOM     10  C   UNL     1      45.994   1.740   8.305  0.00  0.00    +0.000 A 
ATOM     11  H   UNL     1      43.750   2.852  10.865  0.00  0.00    +0.000 HD
BRANCH   4  13
ATOM     12  N   UNL     1      48.140   1.721   5.537  0.00  0.00    +0.000 NA
ATOM     13  C   UNL     1      47.466   2.122   6.397  0.00  0.00    +0.000 C 
ENDBRANCH   4  13
ENDBRANCH   1   8
BRANCH   1  14
ATOM     14  C   UNL     1      45.001   5.130  12.307  0.00  0.00    +0.000 A 
ATOM     15  C   UNL     1      45.550   4.051  13.016  0.00  0.00    +0.000 A 
ATOM     16  C   UNL     1      46.790   4.162  13.642  0.00  0.00    +0.000 A 
ATOM     17  C   UNL     1      47.480   5.370  13.602  0.00  0.00    +0.000 A 
ATOM     18  C   UNL     1      46.907   6.501  13.008  0.00  0.00    +0.000 A 
ATOM     19  C   UNL     1      45.653   6.373  12.397  0.00  0.00    +0.000 A 
BRANCH  18  20
ATOM     20  C   UNL     1      47.657   7.814  12.895  0.00  0.00    +0.000 C 
ATOM     21  C   UNL     1      46.686   8.963  12.580  0.00  0.00    +0.000 C 
ATOM     22  C   UNL     1      47.439  10.259  12.326  0.00  0.00    +0.000 C 
ATOM     23  O   UNL     1      48.424  10.081  11.309  0.00  0.00    +0.000 OA
ATOM     24  C   UNL     1      49.417   9.128  11.683  0.00  0.00    +0.000 C 
ATOM     25  C   UNL     1      48.796   7.753  11.869  0.00  0.00    +0.000 C 
ENDBRANCH  18  20
ENDBRANCH   1  14
TORSDOF 4
ENDMDL
MODEL 2
REMARK VINA RESULT:    -8.087      2.180      3.446
REMARK INTER + INTRA:         -11.061
REMARK INTER:                 -10.423
REMARK INTRA:                  -0.638
REMARK UNBOUND:                -1.083
REMARK  Name = 
REMARK  4 active torsions:
REMARK  status: ('A' for Active; 'I' for Inactive)
REMARK    1  A    between atoms: C_2  and  C_3
REMARK    2  A    between atoms: N_7  and  C_8
REMARK    3  A    between atoms: C_8  and  C_9
REMARK    4  A    between atoms: C_13  and  C_14
REMARK                            x       y       z     vdW  Elec       q    Type
REMARK                         _______ _______ _______ _____ _____    ______ ____
ROOT
ATOM      1  C   UNL     1      44.025   4.870  11.245  0.00  0.00    +0.000 C 
ATOM      2  C   UNL     1      42.865   4.778  12.248  0.00  0.00    +0.000 C 
ATOM      3  C   UNL     1      42.867   5.852  11.218  0.00  0.00    +0.000 C 
ENDROOT
BRANCH   1   8
ATOM      4  C   UNL     1      46.709   2.549   7.356  0.00  0.00    +0.000 A 
ATOM      5  C   UNL     1      46.508   3.911   7.570  0.00  0.00    +0.000 A 
ATOM      6  C   UNL     1      45.699   4.340   8.630  0.00  0.00    +0.000 A 
ATOM      7  C   UNL     1      45.094   3.392   9.440  0.00  0.00    +0.000 A 
ATOM      8  N   UNL     1      44.153   3.670  10.426  0.00  0.00    +0.000 N 
ATOM      9  N   UNL     1      45.296   2.066   9.252  0.00  0.00    +0.000 NA
ATOM     10  C   UNL     1      46.093   1.675   8.236  0.00  0.00    +0.000 A 
ATOM     11  H   UNL     1      43.922   2.785  10.860  0.00  0.00    +0.000 HD
BRANCH   4  13
ATOM     12  N   UNL     1      48.134   1.663   5.385  0.00  0.00    +0.000 NA
ATOM     13  C   UNL     1      47.486   2.055   6.269  0.00  0.00    +0.000 C 
ENDBRANCH   4  13
ENDBRANCH   1   8
BRANCH   1  14
ATOM     14  C   UNL     1      45.334   5.383  11.844  0.00  0.00    +0.000 A 
ATOM     15  C   UNL     1      45.935   6.566  11.388  0.00  0.00    +0.000 A 
ATOM     16  C   UNL     1      46.889   7.228  12.159  0.00  0.00    +0.000 A 
ATOM     17  C   UNL     1      47.287   6.691  13.380  0.00  0.00    +0.000 A 
ATOM     18  C   UNL     1      46.797   5.450  13.808  0.00  0.00    +0.000 A 
ATOM     19  C   UNL     1      45.850   4.793  13.012  0.00  0.00    +0.000 A 
BRANCH  18  20
ATOM     20  C   UNL     1      47.164   4.867  15.159  0.00  0.00    +0.000 C 
ATOM     21  C   UNL     1      48.295   5.682  15.808  0.00  0.00    +0.000 C 
ATOM     22  C   UNL     1      48.768   5.028  17.096  0.00  0.00    +0.000 C 
ATOM     23  O   UNL     1      49.136   3.668  16.868  0.00  0.00    +0.000 OA
ATOM     24  C   UNL     1      48.033   2.881  16.421  0.00  0.00    +0.000 C 
ATOM     25  C   UNL     1      47.529   3.380  15.077  0.00  0.00    +0.000 C 
ENDBRANCH  18  20
ENDBRANCH   1  14
TORSDOF 4
ENDMDL
MODEL 3
REMARK VINA RESULT:    -6.752      3.300      6.689
REMARK INTER + INTRA:          -9.414
REMARK INTER:                  -8.360
REMARK INTRA:                  -1.053
REMARK UNBOUND:                -1.083
REMARK  Name = 
REMARK  4 active torsions:
REMARK  status: ('A' for Active; 'I' for Inactive)
REMARK    1  A    between atoms: C_2  and  C_3
REMARK    2  A    between atoms: N_7  and  C_8
REMARK    3  A    between atoms: C_8  and  C_9
REMARK    4  A    between atoms: C_13  and  C_14
REMARK                            x       y       z     vdW  Elec       q    Type
REMARK                         _______ _______ _______ _____ _____    ______ ____
ROOT
ATOM      1  C   UNL     1      46.429   5.102  13.678  0.00  0.00    +0.000 C 
ATOM      2  C   UNL     1      46.399   4.259  14.962  0.00  0.00    +0.000 C 
ATOM      3  C   UNL     1      47.378   3.934  13.888  0.00  0.00    +0.000 C 
ENDROOT
BRANCH   1   8
ATOM      4  C   UNL     1      48.611   9.494  11.764  0.00  0.00    +0.000 A 
ATOM      5  C   UNL     1      48.941   8.172  11.473  0.00  0.00    +0.000 A 
ATOM      6  C   UNL     1      48.289   7.126  12.141  0.00  0.00    +0.000 A 
ATOM      7  C   UNL     1      47.336   7.432  13.099  0.00  0.00    +0.000 A 
ATOM      8  N   UNL     1      46.725   6.506  13.938  0.00  0.00    +0.000 N 
ATOM      9  N   UNL     1      46.996   8.714  13.377  0.00  0.00    +0.000 NA
ATOM     10  C   UNL     1      47.622   9.704  12.710  0.00  0.00    +0.000 A 
ATOM     11  H   UNL     1      46.061   7.024  14.501  0.00  0.00    +0.000 HD
BRANCH   4  13
ATOM     12  N   UNL     1      49.804  11.491  10.628  0.00  0.00    +0.000 NA
ATOM     13  C   UNL     1      49.271  10.596  11.148  0.00  0.00    +0.000 C 
ENDBRANCH   4  13
ENDBRANCH   1   8
BRANCH   1  14
ATOM     14  C   UNL     1      45.250   4.856  12.737  0.00  0.00    +0.000 A 
ATOM     15  C   UNL     1      44.025   5.517  12.910  0.00  0.00    +0.000 A 
ATOM     16  C   UNL     1      43.099   5.592  11.871  0.00  0.00    +0.000 A 
ATOM     17  C   UNL     1      43.369   4.968  10.656  0.00  0.00    +0.000 A 
ATOM     18  C   UNL     1      44.528   4.198  10.491  0.00  0.00    +0.000 A 
ATOM     19  C   UNL     1      45.439   4.122  11.552  0.00  0.00    +0.000 A 
BRANCH  18  20
ATOM     20  C   UNL     1      44.880   3.557   9.162  0.00  0.00    +0.000 C 
ATOM     21  C   UNL     1      45.381   2.120   9.375  0.00  0.00    +0.000 C 
ATOM     22  C   UNL     1      45.870   1.514   8.069  0.00  0.00    +0.000 C 
ATOM     23  O   UNL     1      46.852   2.350   7.459  0.00  0.00    +0.000 OA
ATOM     24  C   UNL     1      46.327   3.632   7.115  0.00  0.00    +0.000 C 
ATOM     25  C   UNL     1      45.893   4.385   8.362  0.00  0.00    +0.000 C 
ENDBRANCH  18  20
ENDBRANCH   1  14
TORSDOF 4
ENDMDL
MODEL 4
REMARK VINA RESULT:    -6.113      4.433      8.177
REMARK INTER + INTRA:          -8.626
REMARK INTER:                  -7.763
REMARK INTRA:                  -0.863
REMARK UNBOUND:                -1.083
REMARK  Name = 
REMARK  4 active torsions:
REMARK  status: ('A' for Active; 'I' for Inactive)
REMARK    1  A    between atoms: C_2  and  C_3
REMARK    2  A    between atoms: N_7  and  C_8
REMARK    3  A    between atoms: C_8  and  C_9
REMARK    4  A    between atoms: C_13  and  C_14
REMARK                            x       y       z     vdW  Elec       q    Type
REMARK                         _______ _______ _______ _____ _____    ______ ____
ROOT
ATOM      1  C   UNL     1      48.891   7.839  12.817  0.00  0.00    +0.000 C 
ATOM      2  C   UNL     1      49.704   7.791  11.514  0.00  0.00    +0.000 C 
ATOM      3  C   UNL     1      49.471   9.096  12.191  0.00  0.00    +0.000 C 
ENDROOT
BRANCH   1   8
ATOM      4  C   UNL     1      48.992   6.922  18.000  0.00  0.00    +0.000 A 
ATOM      5  C   UNL     1      48.659   8.103  17.341  0.00  0.00    +0.000 A 
ATOM      6  C   UNL     1      48.759   8.177  15.946  0.00  0.00    +0.000 A 
ATOM      7  C   UNL     1      49.210   7.070  15.245  0.00  0.00    +0.000 A 
ATOM      8  N   UNL     1      49.499   7.052  13.884  0.00  0.00    +0.000 N 
ATOM      9  N   UNL     1      49.520   5.911  15.873  0.00  0.00    +0.000 NA
ATOM     10  C   UNL     1      49.400   5.856  17.215  0.00  0.00    +0.000 A 
ATOM     11  H   UNL     1      49.775   6.104  13.662  0.00  0.00    +0.000 HD
BRANCH   4  13
ATOM     12  N   UNL     1      48.900   6.698  20.577  0.00  0.00    +0.000 NA
ATOM     13  C   UNL     1      48.951   6.803  19.419  0.00  0.00    +0.000 C 
ENDBRANCH   4  13
ENDBRANCH   1   8
BRANCH   1  14
ATOM     14  C   UNL     1      47.391   7.619  12.630  0.00  0.00    +0.000 A 
ATOM     15  C   UNL     1      46.529   8.680  12.313  0.00  0.00    +0.000 A 
ATOM     16  C   UNL     1      45.265   8.440  11.777  0.00  0.00    +0.000 A 
ATOM     17  C   UNL     1      44.828   7.132  11.592  0.00  0.00    +0.000 A 
ATOM     18  C   UNL     1      45.614   6.050  12.010  0.00  0.00    +0.000 A 
ATOM     19  C   UNL     1      46.876   6.312  12.560  0.00  0.00    +0.000 A 
BRANCH  18  20
ATOM     20  C   UNL     1      45.194   4.613  11.767  0.00  0.00    +0.000 C 
ATOM     21  C   UNL     1      44.821   4.404  10.292  0.00  0.00    +0.000 C 
ATOM     22  C   UNL     1      44.266   3.008  10.062  0.00  0.00    +0.000 C 
ATOM     23  O   UNL     1      43.175   2.746  10.944  0.00  0.00    +0.000 OA
ATOM     24  C   UNL     1      43.571   2.781  12.315  0.00  0.00    +0.000 C 
ATOM     25  C   UNL     1      44.057   4.170  12.696  0.00  0.00    +0.000 C 
ENDBRANCH  18  20
ENDBRANCH   1  14
TORSDOF 4
ENDMDL
MODEL 5
REMARK VINA RESULT:    -5.951      1.420      2.249
REMARK INTER + INTRA:          -8.426
REMARK INTER:                  -8.759
REMARK INTRA:                   0.334
REMARK UNBOUND:                -1.083
REMARK  Name = 
REMARK  4 active torsions:
REMARK  status: ('A' for Active; 'I' for Inactive)
REMARK    1  A    between atoms: C_2  and  C_3
REMARK    2  A    between atoms: N_7  and  C_8
REMARK    3  A    between atoms: C_8  and  C_9
REMARK    4  A    between atoms: C_13  and  C_14
REMARK                            x       y       z     vdW  Elec       q    Type
REMARK                         _______ _______ _______ _____ _____    ______ ____
ROOT
ATOM      1  C   UNL     1      43.963   4.753  11.940  0.00  0.00    +0.000 C 
ATOM      2  C   UNL     1      44.254   4.094  13.297  0.00  0.00    +0.000 C 
ATOM      3  C   UNL     1      42.979   4.836  13.095  0.00  0.00    +0.000 C 
ENDROOT
BRANCH   1   8
ATOM      4  C   UNL     1      46.218   3.227   7.435  0.00  0.00    +0.000 A 
ATOM      5  C   UNL     1      46.176   4.506   7.986  0.00  0.00    +0.000 A 
ATOM      6  C   UNL     1      45.462   4.733   9.170  0.00  0.00    +0.000 A 
ATOM      7  C   UNL     1      44.790   3.676   9.762  0.00  0.00    +0.000 A 
ATOM      8  N   UNL     1      43.925   3.789  10.847  0.00  0.00    +0.000 N 
ATOM      9  N   UNL     1      44.838   2.425   9.244  0.00  0.00    +0.000 NA
ATOM     10  C   UNL     1      45.546   2.225   8.114  0.00  0.00    +0.000 A 
ATOM     11  H   UNL     1      43.617   2.850  11.067  0.00  0.00    +0.000 HD
BRANCH   4  13
ATOM     12  N   UNL     1      47.446   2.701   5.218  0.00  0.00    +0.000 NA
ATOM     13  C   UNL     1      46.892   2.947   6.211  0.00  0.00    +0.000 C 
ENDBRANCH   4  13
ENDBRANCH   1   8
BRANCH   1  14
ATOM     14  C   UNL     1      44.788   6.009  11.662  0.00  0.00    +0.000 A 
ATOM     15  C   UNL     1      44.176   7.242  11.391  0.00  0.00    +0.000 A 
ATOM     16  C   UNL     1      44.886   8.436  11.514  0.00  0.00    +0.000 A 
ATOM     17  C   UNL     1      46.231   8.409  11.868  0.00  0.00    +0.000 A 
ATOM     18  C   UNL     1      46.904   7.190  12.027  0.00  0.00    +0.000 A 
ATOM     19  C   UNL     1      46.177   6.001  11.885  0.00  0.00    +0.000 A 
BRANCH  18  20
ATOM     20  C   UNL     1      48.352   7.126  12.472  0.00  0.00    +0.000 C 
ATOM     21  C   UNL     1      48.451   7.241  14.001  0.00  0.00    +0.000 C 
ATOM     22  C   UNL     1      49.901   7.320  14.449  0.00  0.00    +0.000 C 
ATOM     23  O   UNL     1      50.583   8.377  13.776  0.00  0.00    +0.000 OA
ATOM     24  C   UNL     1      50.628   8.175  12.364  0.00  0.00    +0.000 C 
ATOM     25  C   UNL     1      49.226   8.178  11.778  0.00  0.00    +0.000 C 
ENDBRANCH  18  20
ENDBRANCH   1  14
TORSDOF 4
ENDMDL
MODEL 6
REMARK VINA RESULT:    -5.707      5.743      8.200
REMARK INTER + INTRA:          -8.125
REMARK INTER:                  -7.354
REMARK INTRA:                  -0.771
REMARK UNBOUND:                -1.083
REMARK  Name = 
REMARK  4 active torsions:
REMARK  status: ('A' for Active; 'I' for Inactive)
REMARK    1  A    between atoms: C_2  and  C_3
REMARK    2  A    between atoms: N_7  and  C_8
REMARK    3  A    between atoms: C_8  and  C_9
REMARK    4  A    between atoms: C_13  and  C_14
REMARK                            x       y       z     vdW  Elec       q    Type
REMARK                         _______ _______ _______ _____ _____    ______ ____
ROOT
ATOM      1  C   UNL     1      48.305   4.576  17.203  0.00  0.00    +0.000 C 
ATOM      2  C   UNL     1      47.168   4.738  18.224  0.00  0.00    +0.000 C 
ATOM      3  C   UNL     1      47.213   3.531  17.353  0.00  0.00    +0.000 C 
ENDROOT
BRANCH   1   8
ATOM      4  C   UNL     1      52.793   1.870  17.698  0.00  0.00    +0.000 A 
ATOM      5  C   UNL     1      51.520   1.381  17.416  0.00  0.00    +0.000 A 
ATOM      6  C   UNL     1      50.425   2.255  17.392  0.00  0.00    +0.000 A 
ATOM      7  C   UNL     1      50.630   3.596  17.672  0.00  0.00    +0.000 A 
ATOM      8  N   UNL     1      49.620   4.540  17.832  0.00  0.00    +0.000 N 
ATOM      9  N   UNL     1      51.866   4.086  17.931  0.00  0.00    +0.000 NA
ATOM     10  C   UNL     1      52.909   3.230  17.931  0.00  0.00    +0.000 A 
ATOM     11  H   UNL     1      50.080   5.427  17.997  0.00  0.00    +0.000 HD
BRANCH   4  13
ATOM     12  N   UNL     1      54.857   0.315  17.849  0.00  0.00    +0.000 NA
ATOM     13  C   UNL     1      53.935   1.022  17.778  0.00  0.00    +0.000 C 
ENDBRANCH   4  13
ENDBRANCH   1   8
BRANCH   1  14
ATOM     14  C   UNL     1      48.196   5.500  15.990  0.00  0.00    +0.000 A 
ATOM     15  C   UNL     1      49.092   6.562  15.796  0.00  0.00    +0.000 A 
ATOM     16  C   UNL     1      49.238   7.154  14.543  0.00  0.00    +0.000 A 
ATOM     17  C   UNL     1      48.458   6.720  13.475  0.00  0.00    +0.000 A 
ATOM     18  C   UNL     1      47.469   5.746  13.664  0.00  0.00    +0.000 A 
ATOM     19  C   UNL     1      47.327   5.173  14.934  0.00  0.00    +0.000 A 
BRANCH  18  20
ATOM     20  C   UNL     1      46.644   5.208  12.510  0.00  0.00    +0.000 C 
ATOM     21  C   UNL     1      46.411   6.303  11.458  0.00  0.00    +0.000 C 
ATOM     22  C   UNL     1      45.471   5.820  10.367  0.00  0.00    +0.000 C 
ATOM     23  O   UNL     1      44.252   5.333  10.927  0.00  0.00    +0.000 OA
ATOM     24  C   UNL     1      44.464   4.207  11.777  0.00  0.00    +0.000 C 
ATOM     25  C   UNL     1      45.318   4.593  12.974  0.00  0.00    +0.000 C 
ENDBRANCH  18  20
ENDBRANCH   1  14
TORSDOF 4
ENDMDL
MODEL 7
REMARK VINA RESULT:    -5.649      3.984      6.628
REMARK INTER + INTRA:          -8.052
REMARK INTER:                  -7.098
REMARK INTRA:                  -0.954
REMARK UNBOUND:                -1.083
REMARK  Name = 
REMARK  4 active torsions:
REMARK  status: ('A' for Active; 'I' for Inactive)
REMARK    1  A    between atoms: C_2  and  C_3
REMARK    2  A    between atoms: N_7  and  C_8
REMARK    3  A    between atoms: C_8  and  C_9
REMARK    4  A    between atoms: C_13  and  C_14
REMARK                            x       y       z     vdW  Elec       q    Type
REMARK                         _______ _______ _______ _____ _____    ______ ____
ROOT
ATOM      1  C   UNL     1      48.650   8.341  13.430  0.00  0.00    +0.000 C 
ATOM      2  C   UNL     1      49.242   9.627  12.833  0.00  0.00    +0.000 C 
ATOM      3  C   UNL     1      49.937   8.327  12.621  0.00  0.00    +0.000 C 
ENDROOT
BRANCH   1   8
ATOM      4  C   UNL     1      44.956   4.640  12.826  0.00  0.00    +0.000 A 
ATOM      5  C   UNL     1      46.338   4.473  12.898  0.00  0.00    +0.000 A 
ATOM      6  C   UNL     1      47.172   5.595  12.991  0.00  0.00    +0.000 A 
ATOM      7  C   UNL     1      46.603   6.858  12.989  0.00  0.00    +0.000 A 
ATOM      8  N   UNL     1      47.314   8.052  12.923  0.00  0.00    +0.000 N 
ATOM      9  N   UNL     1      45.260   7.031  12.936  0.00  0.00    +0.000 NA
ATOM     10  C   UNL     1      44.474   5.937  12.866  0.00  0.00    +0.000 A 
ATOM     11  H   UNL     1      46.629   8.796  12.969  0.00  0.00    +0.000 HD
BRANCH   4  13
ATOM     12  N   UNL     1      43.346   2.628  12.582  0.00  0.00    +0.000 NA
ATOM     13  C   UNL     1      44.063   3.539  12.688  0.00  0.00    +0.000 C 
ENDBRANCH   4  13
ENDBRANCH   1   8
BRANCH   1  14
ATOM     14  C   UNL     1      48.803   8.226  14.946  0.00  0.00    +0.000 A 
ATOM     15  C   UNL     1      48.373   9.248  15.805  0.00  0.00    +0.000 A 
ATOM     16  C   UNL     1      48.160   9.003  17.160  0.00  0.00    +0.000 A 
ATOM     17  C   UNL     1      48.415   7.739  17.684  0.00  0.00    +0.000 A 
ATOM     18  C   UNL     1      48.959   6.729  16.880  0.00  0.00    +0.000 A 
ATOM     19  C   UNL     1      49.181   7.000  15.523  0.00  0.00    +0.000 A 
BRANCH  18  20
ATOM     20  C   UNL     1      49.192   5.325  17.404  0.00  0.00    +0.000 C 
ATOM     21  C   UNL     1      50.676   4.945  17.286  0.00  0.00    +0.000 C 
ATOM     22  C   UNL     1      50.900   3.494  17.676  0.00  0.00    +0.000 C 
ATOM     23  O   UNL     1      50.053   2.629  16.920  0.00  0.00    +0.000 OA
ATOM     24  C   UNL     1      48.671   2.883  17.164  0.00  0.00    +0.000 C 
ATOM     25  C   UNL     1      48.297   4.286  16.716  0.00  0.00    +0.000 C 
ENDBRANCH  18  20
ENDBRANCH   1  14
TORSDOF 4
ENDMDL
