MODEL 1
REMARK VINA RESULT:    -7.813      0.000      0.000
REMARK INTER + INTRA:         -11.785
REMARK INTER:                 -10.554
REMARK INTRA:                  -1.231
REMARK UNBOUND:                -1.231
REMARK  Name = 
REMARK  7 active torsions:
REMARK  status: ('A' for Active; 'I' for Inactive)
REMARK    1  A    between atoms: C_1  and  N_2
REMARK    2  A    between atoms: N_2  and  C_3
REMARK    3  A    between atoms: C_3  and  C_4
REMARK    4  A    between atoms: C_7  and  C_8
REMARK    5  A    between atoms: C_8  and  N_9
REMARK    6  A    between atoms: C_10  and  C_12
REMARK    7  A    between atoms: C_19  and  C_21
REMARK                            x       y       z     vdW  Elec       q    Type
REMARK                         _______ _______ _______ _____ _____    ______ ____
ROOT
ATOM      1  C   UNL     1      47.396   5.839  13.695  0.00  0.00    +0.000 A 
ATOM      2  C   UNL     1      48.299   6.626  14.425  0.00  0.00    +0.000 A 
ATOM      3  C   UNL     1      48.642   6.282  15.733  0.00  0.00    +0.000 A 
ATOM      4  C   UNL     1      48.102   5.139  16.330  0.00  0.00    +0.000 A 
ATOM      5  C   UNL     1      47.167   4.381  15.610  0.00  0.00    +0.000 A 
ATOM      6  C   UNL     1      46.817   4.722  14.307  0.00  0.00    +0.000 A 
ENDROOT
BRANCH   1   7
ATOM      7  C   UNL     1      46.992   6.226  12.298  0.00  0.00    +0.000 C 
BRANCH   7   9
ATOM      8  C   UNL     1      46.052   8.573  12.218  0.00  0.00    +0.000 C 
ATOM      9  N   UNL     1      45.856   7.132  12.107  0.00  0.00    +0.000 N 
ATOM     10  C   UNL     1      44.622   6.704  11.578  0.00  0.00    +0.000 C 
ATOM     11  O   UNL     1      43.755   7.506  11.244  0.00  0.00    +0.000 OA
BRANCH  10  12
ATOM     12  C   UNL     1      44.357   5.260  11.465  0.00  0.00    +0.000 A 
ATOM     13  C   UNL     1      43.592   4.532  12.365  0.00  0.00    +0.000 A 
ATOM     14  S   UNL     1      43.443   2.881  11.971  0.00  0.00    +0.000 S 
ATOM     15  C   UNL     1      44.251   3.117  10.496  0.00  0.00    +0.000 A 
ATOM     16  N   UNL     1      44.370   2.092   9.607  0.00  0.00    +0.000 NA
ATOM     17  C   UNL     1      44.954   2.428   8.503  0.00  0.00    +0.000 A 
ATOM     18  N   UNL     1      45.452   3.674   8.223  0.00  0.00    +0.000 N 
ATOM     19  C   UNL     1      45.471   4.699   9.145  0.00  0.00    +0.000 A 
ATOM     20  O   UNL     1      46.136   5.710   8.947  0.00  0.00    +0.000 OA
ATOM     21  C   UNL     1      44.721   4.411  10.356  0.00  0.00    +0.000 A 
ATOM     22  H   UNL     1      45.959   3.844   7.368  0.00  0.00    +0.000 HD
ENDBRANCH  10  12
ENDBRANCH   7   9
ENDBRANCH   1   7
BRANCH   4  23
ATOM     23  C   UNL     1      48.556   4.679  17.689  0.00  0.00    +0.000 C 
BRANCH  23  24
ATOM     24  N   UNL     1      49.449   3.555  17.666  0.00  0.00    +0.000 N 
ATOM     25  C   UNL     1      50.811   3.766  17.721  0.00  0.00    +0.000 C 
ATOM     26  O   UNL     1      51.314   4.883  17.758  0.00  0.00    +0.000 OA
ATOM     27  H   UNL     1      49.119   2.594  17.651  0.00  0.00    +0.000 HD
BRANCH  25  28
ATOM     28  C   UNL     1      51.608   2.540  17.734  0.00  0.00    +0.000 A 
ATOM     29  C   UNL     1      51.169   1.283  17.377  0.00  0.00    +0.000 A 
ATOM     30  N   UNL     1      52.246   0.456  17.539  0.00  0.00    +0.000 N 
ATOM     31  C   UNL     1      53.285   1.227  17.982  0.00  0.00    +0.000 A 
ATOM     32  N   UNL     1      52.941   2.487  18.112  0.00  0.00    +0.000 NA
ATOM     33  H   UNL     1      52.272  -0.538  17.362  0.00  0.00    +0.000 HD
ENDBRANCH  25  28
ENDBRANCH  23  24
ENDBRANCH   4  23
TORSDOF 6
ENDMDL
MODEL 2
REMARK VINA RESULT:    -7.470      3.433      8.558
REMARK INTER + INTRA:         -11.321
REMARK INTER:                 -10.175
REMARK INTRA:                  -1.146
REMARK UNBOUND:                -1.231
REMARK  Name = 
REMARK  7 active torsions:
REMARK  status: ('A' for Active; 'I' for Inactive)
REMARK    1  A    between atoms: C_1  and  N_2
REMARK    2  A    between atoms: N_2  and  C_3
REMARK    3  A    between atoms: C_3  and  C_4
REMARK    4  A    between atoms: C_7  and  C_8
REMARK    5  A    between atoms: C_8  and  N_9
REMARK    6  A    between atoms: C_10  and  C_12
REMARK    7  A    between atoms: C_19  and  C_21
REMARK                            x       y       z     vdW  Elec       q    Type
REMARK                         _______ _______ _______ _____ _____    ______ ____
ROOT
ATOM      1  C   UNL     1      46.652   6.677  13.060  0.00  0.00    +0.000 A 
ATOM      2  C   UNL     1      46.493   5.352  13.489  0.00  0.00    +0.000 A 
ATOM      3  C   UNL     1      45.657   4.476  12.793  0.00  0.00    +0.000 A 
ATOM      4  C   UNL     1      44.979   4.905  11.649  0.00  0.00    +0.000 A 
ATOM      5  C   UNL     1      45.109   6.244  11.250  0.00  0.00    +0.000 A 
ATOM      6  C   UNL     1      45.937   7.122  11.943  0.00  0.00    +0.000 A 
ENDROOT
BRANCH   1   7
ATOM      7  C   UNL     1      47.521   7.635  13.829  0.00  0.00    +0.000 C 
BRANCH   7   9
ATOM      8  C   UNL     1      49.635   7.161  12.523  0.00  0.00    +0.000 C 
ATOM      9  N   UNL     1      48.977   7.471  13.788  0.00  0.00    +0.000 N 
ATOM     10  C   UNL     1      49.816   7.836  14.860  0.00  0.00    +0.000 C 
ATOM     11  O   UNL     1      51.036   7.875  14.735  0.00  0.00    +0.000 OA
BRANCH  10  12
ATOM     12  C   UNL     1      49.210   8.135  16.169  0.00  0.00    +0.000 A 
ATOM     13  C   UNL     1      48.934   9.414  16.629  0.00  0.00    +0.000 A 
ATOM     14  S   UNL     1      48.216   9.454  18.174  0.00  0.00    +0.000 S 
ATOM     15  C   UNL     1      48.093   7.760  18.206  0.00  0.00    +0.000 A 
ATOM     16  N   UNL     1      47.458   7.138  19.238  0.00  0.00    +0.000 NA
ATOM     17  C   UNL     1      47.386   5.854  19.104  0.00  0.00    +0.000 A 
ATOM     18  N   UNL     1      47.914   5.140  18.060  0.00  0.00    +0.000 N 
ATOM     19  C   UNL     1      48.678   5.717  17.067  0.00  0.00    +0.000 A 
ATOM     20  O   UNL     1      49.330   5.025  16.294  0.00  0.00    +0.000 OA
ATOM     21  C   UNL     1      48.688   7.170  17.106  0.00  0.00    +0.000 A 
ATOM     22  H   UNL     1      47.882   4.132  18.057  0.00  0.00    +0.000 HD
ENDBRANCH  10  12
ENDBRANCH   7   9
ENDBRANCH   1   7
BRANCH   4  23
ATOM     23  C   UNL     1      44.177   3.946  10.811  0.00  0.00    +0.000 C 
BRANCH  23  24
ATOM     24  N   UNL     1      44.969   3.030  10.039  0.00  0.00    +0.000 N 
ATOM     25  C   UNL     1      45.310   3.350   8.742  0.00  0.00    +0.000 C 
ATOM     26  O   UNL     1      44.944   4.381   8.189  0.00  0.00    +0.000 OA
ATOM     27  H   UNL     1      45.329   2.160  10.422  0.00  0.00    +0.000 HD
BRANCH  25  28
ATOM     28  C   UNL     1      46.153   2.356   8.080  0.00  0.00    +0.000 A 
ATOM     29  C   UNL     1      47.170   2.619   7.187  0.00  0.00    +0.000 A 
ATOM     30  N   UNL     1      47.678   1.399   6.836  0.00  0.00    +0.000 N 
ATOM     31  C   UNL     1      46.965   0.452   7.517  0.00  0.00    +0.000 A 
ATOM     32  N   UNL     1      46.038   0.988   8.277  0.00  0.00    +0.000 NA
ATOM     33  H   UNL     1      48.441   1.227   6.196  0.00  0.00    +0.000 HD
ENDBRANCH  25  28
ENDBRANCH  23  24
ENDBRANCH   4  23
TORSDOF 6
ENDMDL
MODEL 3
REMARK VINA RESULT:    -7.021      3.597      8.675
REMARK INTER + INTRA:         -10.716
REMARK INTER:                  -9.466
REMARK INTRA:                  -1.250
REMARK UNBOUND:                -1.231
REMARK  Name = 
REMARK  7 active torsions:
REMARK  status: ('A' for Active; 'I' for Inactive)
REMARK    1  A    between atoms: C_1  and  N_2
REMARK    2  A    between atoms: N_2  and  C_3
REMARK    3  A    between atoms: C_3  and  C_4
REMARK    4  A    between atoms: C_7  and  C_8
REMARK    5  A    between atoms: C_8  and  N_9
REMARK    6  A    between atoms: C_10  and  C_12
REMARK    7  A    between atoms: C_19  and  C_21
REMARK                            x       y       z     vdW  Elec       q    Type
REMARK                         _______ _______ _______ _____ _____    ______ ____
ROOT
ATOM      1  C   UNL     1      46.830   6.764  13.222  0.00  0.00    +0.000 A 
ATOM      2  C   UNL     1      46.093   7.117  12.082  0.00  0.00    +0.000 A 
ATOM      3  C   UNL     1      45.355   6.155  11.389  0.00  0.00    +0.000 A 
ATOM      4  C   UNL     1      45.328   4.829  11.832  0.00  0.00    +0.000 A 
ATOM      5  C   UNL     1      46.101   4.475  12.947  0.00  0.00    +0.000 A 
ATOM      6  C   UNL     1      46.842   5.429  13.639  0.00  0.00    +0.000 A 
ENDROOT
BRANCH   1   7
ATOM      7  C   UNL     1      47.658   7.788  13.950  0.00  0.00    +0.000 C 
BRANCH   7   9
ATOM      8  C   UNL     1      49.902   8.087  12.820  0.00  0.00    +0.000 C 
ATOM      9  N   UNL     1      49.117   7.646  13.968  0.00  0.00    +0.000 N 
ATOM     10  C   UNL     1      49.837   7.329  15.138  0.00  0.00    +0.000 C 
ATOM     11  O   UNL     1      51.061   7.407  15.178  0.00  0.00    +0.000 OA
BRANCH  10  12
ATOM     12  C   UNL     1      49.100   6.853  16.321  0.00  0.00    +0.000 A 
ATOM     13  C   UNL     1      48.912   5.516  16.640  0.00  0.00    +0.000 A 
ATOM     14  S   UNL     1      48.034   5.264  18.079  0.00  0.00    +0.000 S 
ATOM     15  C   UNL     1      48.024   6.929  18.412  0.00  0.00    +0.000 A 
ATOM     16  N   UNL     1      47.505   7.391  19.584  0.00  0.00    +0.000 NA
ATOM     17  C   UNL     1      47.616   8.671  19.733  0.00  0.00    +0.000 A 
ATOM     18  N   UNL     1      48.165   9.525  18.812  0.00  0.00    +0.000 N 
ATOM     19  C   UNL     1      48.578   9.117  17.562  0.00  0.00    +0.000 A 
ATOM     20  O   UNL     1      48.832   9.935  16.686  0.00  0.00    +0.000 OA
ATOM     21  C   UNL     1      48.585   7.674  17.391  0.00  0.00    +0.000 A 
ATOM     22  H   UNL     1      48.154  10.522  18.966  0.00  0.00    +0.000 HD
ENDBRANCH  10  12
ENDBRANCH   7   9
ENDBRANCH   1   7
BRANCH   4  23
ATOM     23  C   UNL     1      44.438   3.807  11.179  0.00  0.00    +0.000 C 
BRANCH  23  24
ATOM     24  N   UNL     1      45.125   2.897  10.304  0.00  0.00    +0.000 N 
ATOM     25  C   UNL     1      45.237   3.196   8.963  0.00  0.00    +0.000 C 
ATOM     26  O   UNL     1      44.749   4.200   8.458  0.00  0.00    +0.000 OA
ATOM     27  H   UNL     1      45.573   2.049  10.640  0.00  0.00    +0.000 HD
BRANCH  25  28
ATOM     28  C   UNL     1      45.995   2.212   8.191  0.00  0.00    +0.000 A 
ATOM     29  C   UNL     1      46.889   2.488   7.179  0.00  0.00    +0.000 A 
ATOM     30  N   UNL     1      47.355   1.275   6.755  0.00  0.00    +0.000 N 
ATOM     31  C   UNL     1      46.737   0.318   7.512  0.00  0.00    +0.000 A 
ATOM     32  N   UNL     1      45.912   0.842   8.387  0.00  0.00    +0.000 NA
ATOM     33  H   UNL     1      48.031   1.113   6.023  0.00  0.00    +0.000 HD
ENDBRANCH  25  28
ENDBRANCH  23  24
ENDBRANCH   4  23
TORSDOF 6
ENDMDL
MODEL 4
REMARK VINA RESULT:    -6.811      3.309      8.917
REMARK INTER + INTRA:         -10.432
REMARK INTER:                  -9.231
REMARK INTRA:                  -1.201
REMARK UNBOUND:                -1.231
REMARK  Name = 
REMARK  7 active torsions:
REMARK  status: ('A' for Active; 'I' for Inactive)
REMARK    1  A    between atoms: C_1  and  N_2
REMARK    2  A    between atoms: N_2  and  C_3
REMARK    3  A    between atoms: C_3  and  C_4
REMARK    4  A    between atoms: C_7  and  C_8
REMARK    5  A    between atoms: C_8  and  N_9
REMARK    6  A    between atoms: C_10  and  C_12
REMARK    7  A    between atoms: C_19  and  C_21
REMARK                            x       y       z     vdW  Elec       q    Type
REMARK                         _______ _______ _______ _____ _____    ______ ____
ROOT
ATOM      1  C   UNL     1      47.596   7.735  13.949  0.00  0.00    +0.000 A 
ATOM      2  C   UNL     1      47.546   6.388  13.564  0.00  0.00    +0.000 A 
ATOM      3  C   UNL     1      46.608   5.953  12.625  0.00  0.00    +0.000 A 
ATOM      4  C   UNL     1      45.715   6.858  12.045  0.00  0.00    +0.000 A 
ATOM      5  C   UNL     1      45.743   8.196  12.466  0.00  0.00    +0.000 A 
ATOM      6  C   UNL     1      46.673   8.633  13.405  0.00  0.00    +0.000 A 
ENDROOT
BRANCH   1   7
ATOM      7  C   UNL     1      48.579   8.202  14.989  0.00  0.00    +0.000 C 
BRANCH   7   9
ATOM      8  C   UNL     1      50.991   8.044  14.241  0.00  0.00    +0.000 C 
ATOM      9  N   UNL     1      49.894   7.558  15.071  0.00  0.00    +0.000 N 
ATOM     10  C   UNL     1      50.231   6.643  16.088  0.00  0.00    +0.000 C 
ATOM     11  O   UNL     1      51.388   6.268  16.254  0.00  0.00    +0.000 OA
BRANCH  10  12
ATOM     12  C   UNL     1      49.161   6.098  16.940  0.00  0.00    +0.000 A 
ATOM     13  C   UNL     1      48.522   4.888  16.715  0.00  0.00    +0.000 A 
ATOM     14  S   UNL     1      47.335   4.505  17.877  0.00  0.00    +0.000 S 
ATOM     15  C   UNL     1      47.755   5.859  18.812  0.00  0.00    +0.000 A 
ATOM     16  N   UNL     1      47.170   6.062  20.026  0.00  0.00    +0.000 NA
ATOM     17  C   UNL     1      47.626   7.096  20.654  0.00  0.00    +0.000 A 
ATOM     18  N   UNL     1      48.580   7.953  20.172  0.00  0.00    +0.000 N 
ATOM     19  C   UNL     1      49.098   7.859  18.897  0.00  0.00    +0.000 A 
ATOM     20  O   UNL     1      49.758   8.775  18.419  0.00  0.00    +0.000 OA
ATOM     21  C   UNL     1      48.709   6.648  18.196  0.00  0.00    +0.000 A 
ATOM     22  H   UNL     1      48.836   8.781  20.689  0.00  0.00    +0.000 HD
ENDBRANCH  10  12
ENDBRANCH   7   9
ENDBRANCH   1   7
BRANCH   4  23
ATOM     23  C   UNL     1      44.786   6.437  10.939  0.00  0.00    +0.000 C 
BRANCH  23  24
ATOM     24  N   UNL     1      45.374   5.547   9.978  0.00  0.00    +0.000 N 
ATOM     25  C   UNL     1      44.758   4.345   9.697  0.00  0.00    +0.000 C 
ATOM     26  O   UNL     1      43.732   3.973  10.255  0.00  0.00    +0.000 OA
ATOM     27  H   UNL     1      46.214   5.781   9.457  0.00  0.00    +0.000 HD
BRANCH  25  28
ATOM     28  C   UNL     1      45.432   3.551   8.671  0.00  0.00    +0.000 A 
ATOM     29  C   UNL     1      45.622   2.186   8.696  0.00  0.00    +0.000 A 
ATOM     30  N   UNL     1      46.286   1.884   7.540  0.00  0.00    +0.000 N 
ATOM     31  C   UNL     1      46.474   3.057   6.863  0.00  0.00    +0.000 A 
ATOM     32  N   UNL     1      45.974   4.083   7.511  0.00  0.00    +0.000 NA
ATOM     33  H   UNL     1      46.581   0.966   7.238  0.00  0.00    +0.000 HD
ENDBRANCH  25  28
ENDBRANCH  23  24
ENDBRANCH   4  23
TORSDOF 6
ENDMDL
MODEL 5
REMARK VINA RESULT:    -6.720      2.175      8.477
REMARK INTER + INTRA:         -10.309
REMARK INTER:                  -9.228
REMARK INTRA:                  -1.081
REMARK UNBOUND:                -1.231
REMARK  Name = 
REMARK  7 active torsions:
REMARK  status: ('A' for Active; 'I' for Inactive)
REMARK    1  A    between atoms: C_1  and  N_2
REMARK    2  A    between atoms: N_2  and  C_3
REMARK    3  A    between atoms: C_3  and  C_4
REMARK    4  A    between atoms: C_7  and  C_8
REMARK    5  A    between atoms: C_8  and  N_9
REMARK    6  A    between atoms: C_10  and  C_12
REMARK    7  A    between atoms: C_19  and  C_21
REMARK                            x       y       z     vdW  Elec       q    Type
REMARK                         _______ _______ _______ _____ _____    ______ ____
ROOT
ATOM      1  C   UNL     1      48.235   7.180  14.597  0.00  0.00    +0.000 A 
ATOM      2  C   UNL     1      47.718   8.341  14.005  0.00  0.00    +0.000 A 
ATOM      3  C   UNL     1      46.799   8.254  12.958  0.00  0.00    +0.000 A 
ATOM      4  C   UNL     1      46.370   7.007  12.494  0.00  0.00    +0.000 A 
ATOM      5  C   UNL     1      46.923   5.850  13.062  0.00  0.00    +0.000 A 
ATOM      6  C   UNL     1      47.843   5.931  14.104  0.00  0.00    +0.000 A 
ENDROOT
BRANCH   1   7
ATOM      7  C   UNL     1      49.255   7.267  15.701  0.00  0.00    +0.000 C 
BRANCH   7   9
ATOM      8  C   UNL     1      48.709   9.094  17.364  0.00  0.00    +0.000 C 
ATOM      9  N   UNL     1      48.825   7.676  17.041  0.00  0.00    +0.000 N 
ATOM     10  C   UNL     1      48.278   6.772  17.974  0.00  0.00    +0.000 C 
ATOM     11  O   UNL     1      47.747   7.162  19.009  0.00  0.00    +0.000 OA
BRANCH  10  12
ATOM     12  C   UNL     1      48.389   5.327  17.715  0.00  0.00    +0.000 A 
ATOM     13  C   UNL     1      47.342   4.527  17.281  0.00  0.00    +0.000 A 
ATOM     14  S   UNL     1      47.768   2.893  17.049  0.00  0.00    +0.000 S 
ATOM     15  C   UNL     1      49.404   3.233  17.356  0.00  0.00    +0.000 A 
ATOM     16  N   UNL     1      50.345   2.259  17.214  0.00  0.00    +0.000 NA
ATOM     17  C   UNL     1      51.553   2.671  17.421  0.00  0.00    +0.000 A 
ATOM     18  N   UNL     1      51.898   3.947  17.785  0.00  0.00    +0.000 N 
ATOM     19  C   UNL     1      50.968   4.925  18.068  0.00  0.00    +0.000 A 
ATOM     20  O   UNL     1      51.301   5.968  18.620  0.00  0.00    +0.000 OA
ATOM     21  C   UNL     1      49.605   4.548  17.735  0.00  0.00    +0.000 A 
ATOM     22  H   UNL     1      52.857   4.179  17.999  0.00  0.00    +0.000 HD
ENDBRANCH  10  12
ENDBRANCH   7   9
ENDBRANCH   1   7
BRANCH   4  23
ATOM     23  C   UNL     1      45.286   6.891  11.457  0.00  0.00    +0.000 C 
BRANCH  23  24
ATOM     24  N   UNL     1      45.569   5.952  10.407  0.00  0.00    +0.000 N 
ATOM     25  C   UNL     1      44.837   4.787  10.321  0.00  0.00    +0.000 C 
ATOM     26  O   UNL     1      43.960   4.486  11.124  0.00  0.00    +0.000 OA
ATOM     27  H   UNL     1      46.267   6.127   9.690  0.00  0.00    +0.000 HD
BRANCH  25  28
ATOM     28  C   UNL     1      45.192   3.938   9.185  0.00  0.00    +0.000 A 
ATOM     29  C   UNL     1      45.109   2.562   9.142  0.00  0.00    +0.000 A 
ATOM     30  N   UNL     1      45.535   2.205   7.893  0.00  0.00    +0.000 N 
ATOM     31  C   UNL     1      45.858   3.357   7.231  0.00  0.00    +0.000 A 
ATOM     32  N   UNL     1      45.665   4.421   7.975  0.00  0.00    +0.000 NA
ATOM     33  H   UNL     1      45.597   1.267   7.525  0.00  0.00    +0.000 HD
ENDBRANCH  25  28
ENDBRANCH  23  24
ENDBRANCH   4  23
TORSDOF 6
ENDMDL
MODEL 6
REMARK VINA RESULT:    -6.508      3.023      8.250
REMARK INTER + INTRA:         -10.022
REMARK INTER:                  -8.496
REMARK INTRA:                  -1.526
REMARK UNBOUND:                -1.231
REMARK  Name = 
REMARK  7 active torsions:
REMARK  status: ('A' for Active; 'I' for Inactive)
REMARK    1  A    between atoms: C_1  and  N_2
REMARK    2  A    between atoms: N_2  and  C_3
REMARK    3  A    between atoms: C_3  and  C_4
REMARK    4  A    between atoms: C_7  and  C_8
REMARK    5  A    between atoms: C_8  and  N_9
REMARK    6  A    between atoms: C_10  and  C_12
REMARK    7  A    between atoms: C_19  and  C_21
REMARK                            x       y       z     vdW  Elec       q    Type
REMARK                         _______ _______ _______ _____ _____    ______ ____
ROOT
ATOM      1  C   UNL     1      49.649   7.816  16.625  0.00  0.00    +0.000 A 
ATOM      2  C   UNL     1      48.802   8.924  16.470  0.00  0.00    +0.000 A 
ATOM      3  C   UNL     1      47.938   9.008  15.376  0.00  0.00    +0.000 A 
ATOM      4  C   UNL     1      47.894   7.981  14.428  0.00  0.00    +0.000 A 
ATOM      5  C   UNL     1      48.774   6.898  14.566  0.00  0.00    +0.000 A 
ATOM      6  C   UNL     1      49.640   6.811  15.652  0.00  0.00    +0.000 A 
ENDROOT
BRANCH   1   7
ATOM      7  C   UNL     1      50.610   7.739  17.780  0.00  0.00    +0.000 C 
BRANCH   7   9
ATOM      8  C   UNL     1      49.560   8.543  19.937  0.00  0.00    +0.000 C 
ATOM      9  N   UNL     1      50.093   7.456  19.123  0.00  0.00    +0.000 N 
ATOM     10  C   UNL     1      49.855   6.147  19.587  0.00  0.00    +0.000 C 
ATOM     11  O   UNL     1      49.244   5.938  20.630  0.00  0.00    +0.000 OA
BRANCH  10  12
ATOM     12  C   UNL     1      50.392   5.010  18.821  0.00  0.00    +0.000 A 
ATOM     13  C   UNL     1      51.698   4.552  18.912  0.00  0.00    +0.000 A 
ATOM     14  S   UNL     1      52.032   3.208  17.919  0.00  0.00    +0.000 S 
ATOM     15  C   UNL     1      50.400   3.087  17.463  0.00  0.00    +0.000 A 
ATOM     16  N   UNL     1      49.980   2.052  16.684  0.00  0.00    +0.000 NA
ATOM     17  C   UNL     1      48.706   2.052  16.464  0.00  0.00    +0.000 A 
ATOM     18  N   UNL     1      47.828   3.000  16.921  0.00  0.00    +0.000 N 
ATOM     19  C   UNL     1      48.231   4.132  17.598  0.00  0.00    +0.000 A 
ATOM     20  O   UNL     1      47.458   5.067  17.775  0.00  0.00    +0.000 OA
ATOM     21  C   UNL     1      49.634   4.120  17.974  0.00  0.00    +0.000 A 
ATOM     22  H   UNL     1      46.856   2.975  16.650  0.00  0.00    +0.000 HD
ENDBRANCH  10  12
ENDBRANCH   7   9
ENDBRANCH   1   7
BRANCH   4  23
ATOM     23  C   UNL     1      46.881   7.990  13.316  0.00  0.00    +0.000 C 
BRANCH  23  24
ATOM     24  N   UNL     1      46.027   6.835  13.283  0.00  0.00    +0.000 N 
ATOM     25  C   UNL     1      45.991   6.047  12.152  0.00  0.00    +0.000 C 
ATOM     26  O   UNL     1      46.637   6.298  11.140  0.00  0.00    +0.000 OA
ATOM     27  H   UNL     1      45.470   6.543  14.081  0.00  0.00    +0.000 HD
BRANCH  25  28
ATOM     28  C   UNL     1      45.118   4.880  12.262  0.00  0.00    +0.000 A 
ATOM     29  C   UNL     1      45.527   3.572  12.414  0.00  0.00    +0.000 A 
ATOM     30  N   UNL     1      44.379   2.831  12.477  0.00  0.00    +0.000 N 
ATOM     31  C   UNL     1      43.330   3.700  12.362  0.00  0.00    +0.000 A 
ATOM     32  N   UNL     1      43.733   4.942  12.232  0.00  0.00    +0.000 NA
ATOM     33  H   UNL     1      44.316   1.830  12.590  0.00  0.00    +0.000 HD
ENDBRANCH  25  28
ENDBRANCH  23  24
ENDBRANCH   4  23
TORSDOF 6
ENDMDL
MODEL 7
REMARK VINA RESULT:    -6.457      4.370      5.441
REMARK INTER + INTRA:          -9.954
REMARK INTER:                  -8.900
REMARK INTRA:                  -1.054
REMARK UNBOUND:                -1.231
REMARK  Name = 
REMARK  7 active torsions:
REMARK  status: ('A' for Active; 'I' for Inactive)
REMARK    1  A    between atoms: C_1  and  N_2
REMARK    2  A    between atoms: N_2  and  C_3
REMARK    3  A    between atoms: C_3  and  C_4
REMARK    4  A    between atoms: C_7  and  C_8
REMARK    5  A    between atoms: C_8  and  N_9
REMARK    6  A    between atoms: C_10  and  C_12
REMARK    7  A    between atoms: C_19  and  C_21
REMARK                            x       y       z     vdW  Elec       q    Type
REMARK                         _______ _______ _______ _____ _____    ______ ____
ROOT
ATOM      1  C   UNL     1      47.799   6.909  12.759  0.00  0.00    +0.000 A 
ATOM      2  C   UNL     1      48.342   7.243  11.510  0.00  0.00    +0.000 A 
ATOM      3  C   UNL     1      49.614   7.812  11.419  0.00  0.00    +0.000 A 
ATOM      4  C   UNL     1      50.370   8.044  12.572  0.00  0.00    +0.000 A 
ATOM      5  C   UNL     1      49.804   7.747  13.820  0.00  0.00    +0.000 A 
ATOM      6  C   UNL     1      48.535   7.183  13.917  0.00  0.00    +0.000 A 
ENDROOT
BRANCH   1   7
ATOM      7  C   UNL     1      46.414   6.331  12.866  0.00  0.00    +0.000 C 
BRANCH   7   9
ATOM      8  C   UNL     1      45.297   8.586  12.606  0.00  0.00    +0.000 C 
ATOM      9  N   UNL     1      45.267   7.137  12.437  0.00  0.00    +0.000 N 
ATOM     10  C   UNL     1      44.227   6.618  11.641  0.00  0.00    +0.000 C 
ATOM     11  O   UNL     1      43.383   7.350  11.131  0.00  0.00    +0.000 OA
BRANCH  10  12
ATOM     12  C   UNL     1      44.130   5.160  11.456  0.00  0.00    +0.000 A 
ATOM     13  C   UNL     1      43.365   4.320  12.251  0.00  0.00    +0.000 A 
ATOM     14  S   UNL     1      43.432   2.680  11.791  0.00  0.00    +0.000 S 
ATOM     15  C   UNL     1      44.348   3.062  10.412  0.00  0.00    +0.000 A 
ATOM     16  N   UNL     1      44.661   2.094   9.506  0.00  0.00    +0.000 NA
ATOM     17  C   UNL     1      45.308   2.535   8.478  0.00  0.00    +0.000 A 
ATOM     18  N   UNL     1      45.694   3.837   8.289  0.00  0.00    +0.000 N 
ATOM     19  C   UNL     1      45.515   4.818   9.242  0.00  0.00    +0.000 A 
ATOM     20  O   UNL     1      46.083   5.900   9.144  0.00  0.00    +0.000 OA
ATOM     21  C   UNL     1      44.687   4.402  10.361  0.00  0.00    +0.000 A 
ATOM     22  H   UNL     1      46.259   4.096   7.495  0.00  0.00    +0.000 HD
ENDBRANCH  10  12
ENDBRANCH   7   9
ENDBRANCH   1   7
BRANCH   4  23
ATOM     23  C   UNL     1      51.790   8.534  12.488  0.00  0.00    +0.000 C 
BRANCH  23  24
ATOM     24  N   UNL     1      52.660   7.699  11.709  0.00  0.00    +0.000 N 
ATOM     25  C   UNL     1      53.025   8.093  10.439  0.00  0.00    +0.000 C 
ATOM     26  O   UNL     1      52.617   9.123   9.914  0.00  0.00    +0.000 OA
ATOM     27  H   UNL     1      53.059   6.836  12.070  0.00  0.00    +0.000 HD
BRANCH  25  28
ATOM     28  C   UNL     1      53.948   7.178   9.769  0.00  0.00    +0.000 A 
ATOM     29  C   UNL     1      55.156   7.517   9.196  0.00  0.00    +0.000 A 
ATOM     30  N   UNL     1      55.670   6.352   8.700  0.00  0.00    +0.000 N 
ATOM     31  C   UNL     1      54.771   5.360   8.982  0.00  0.00    +0.000 A 
ATOM     32  N   UNL     1      53.722   5.817   9.625  0.00  0.00    +0.000 NA
ATOM     33  H   UNL     1      56.550   6.241   8.217  0.00  0.00    +0.000 HD
ENDBRANCH  25  28
ENDBRANCH  23  24
ENDBRANCH   4  23
TORSDOF 6
ENDMDL
MODEL 8
REMARK VINA RESULT:    -6.221      4.120      8.638
REMARK INTER + INTRA:          -9.635
REMARK INTER:                  -8.539
REMARK INTRA:                  -1.096
REMARK UNBOUND:                -1.231
REMARK  Name = 
REMARK  7 active torsions:
REMARK  status: ('A' for Active; 'I' for Inactive)
REMARK    1  A    between atoms: C_1  and  N_2
REMARK    2  A    between atoms: N_2  and  C_3
REMARK    3  A    between atoms: C_3  and  C_4
REMARK    4  A    between atoms: C_7  and  C_8
REMARK    5  A    between atoms: C_8  and  N_9
REMARK    6  A    between atoms: C_10  and  C_12
REMARK    7  A    between atoms: C_19  and  C_21
REMARK                            x       y       z     vdW  Elec       q    Type
REMARK                         _______ _______ _______ _____ _____    ______ ____
ROOT
ATOM      1  C   UNL     1      46.138   6.576  12.742  0.00  0.00    +0.000 A 
ATOM      2  C   UNL     1      45.015   5.785  13.025  0.00  0.00    +0.000 A 
ATOM      3  C   UNL     1      44.344   5.114  12.002  0.00  0.00    +0.000 A 
ATOM      4  C   UNL     1      44.791   5.208  10.681  0.00  0.00    +0.000 A 
ATOM      5  C   UNL     1      45.889   6.035  10.398  0.00  0.00    +0.000 A 
ATOM      6  C   UNL     1      46.559   6.710  11.415  0.00  0.00    +0.000 A 
ENDROOT
BRANCH   1   7
ATOM      7  C   UNL     1      46.843   7.332  13.836  0.00  0.00    +0.000 C 
BRANCH   7   9
ATOM      8  C   UNL     1      47.773   5.258  14.945  0.00  0.00    +0.000 C 
ATOM      9  N   UNL     1      47.906   6.668  14.595  0.00  0.00    +0.000 N 
ATOM     10  C   UNL     1      49.173   7.250  14.800  0.00  0.00    +0.000 C 
ATOM     11  O   UNL     1      50.108   6.604  15.264  0.00  0.00    +0.000 OA
BRANCH  10  12
ATOM     12  C   UNL     1      49.360   8.677  14.490  0.00  0.00    +0.000 A 
ATOM     13  C   UNL     1      49.203   9.705  15.408  0.00  0.00    +0.000 A 
ATOM     14  S   UNL     1      49.503  11.256  14.768  0.00  0.00    +0.000 S 
ATOM     15  C   UNL     1      50.017  10.594  13.291  0.00  0.00    +0.000 A 
ATOM     16  N   UNL     1      50.519  11.400  12.315  0.00  0.00    +0.000 NA
ATOM     17  C   UNL     1      50.927  10.758  11.270  0.00  0.00    +0.000 A 
ATOM     18  N   UNL     1      50.849   9.400  11.100  0.00  0.00    +0.000 N 
ATOM     19  C   UNL     1      50.228   8.565  12.005  0.00  0.00    +0.000 A 
ATOM     20  O   UNL     1      49.964   7.405  11.710  0.00  0.00    +0.000 OA
ATOM     21  C   UNL     1      49.861   9.220  13.249  0.00  0.00    +0.000 A 
ATOM     22  H   UNL     1      51.123   8.974  10.228  0.00  0.00    +0.000 HD
ENDBRANCH  10  12
ENDBRANCH   7   9
ENDBRANCH   1   7
BRANCH   4  23
ATOM     23  C   UNL     1      44.163   4.392   9.584  0.00  0.00    +0.000 C 
BRANCH  23  24
ATOM     24  N   UNL     1      45.048   4.080   8.497  0.00  0.00    +0.000 N 
ATOM     25  C   UNL     1      45.644   2.838   8.441  0.00  0.00    +0.000 C 
ATOM     26  O   UNL     1      45.482   1.978   9.299  0.00  0.00    +0.000 OA
ATOM     27  H   UNL     1      45.227   4.726   7.734  0.00  0.00    +0.000 HD
BRANCH  25  28
ATOM     28  C   UNL     1      46.487   2.630   7.264  0.00  0.00    +0.000 A 
ATOM     29  C   UNL     1      46.486   3.398   6.119  0.00  0.00    +0.000 A 
ATOM     30  N   UNL     1      47.428   2.842   5.300  0.00  0.00    +0.000 N 
ATOM     31  C   UNL     1      47.960   1.771   5.963  0.00  0.00    +0.000 A 
ATOM     32  N   UNL     1      47.420   1.611   7.149  0.00  0.00    +0.000 NA
ATOM     33  H   UNL     1      47.687   3.162   4.378  0.00  0.00    +0.000 HD
ENDBRANCH  25  28
ENDBRANCH  23  24
ENDBRANCH   4  23
TORSDOF 6
ENDMDL
MODEL 9
REMARK VINA RESULT:    -6.063      3.329      3.813
REMARK INTER + INTRA:          -9.421
REMARK INTER:                  -8.461
REMARK INTRA:                  -0.961
REMARK UNBOUND:                -1.231
REMARK  Name = 
REMARK  7 active torsions:
REMARK  status: ('A' for Active; 'I' for Inactive)
REMARK    1  A    between atoms: C_1  and  N_2
REMARK    2  A    between atoms: N_2  and  C_3
REMARK    3  A    between atoms: C_3  and  C_4
REMARK    4  A    between atoms: C_7  and  C_8
REMARK    5  A    between atoms: C_8  and  N_9
REMARK    6  A    between atoms: C_10  and  C_12
REMARK    7  A    between atoms: C_19  and  C_21
REMARK                            x       y       z     vdW  Elec       q    Type
REMARK                         _______ _______ _______ _____ _____    ______ ____
ROOT
ATOM      1  C   UNL     1      47.836   6.861  12.757  0.00  0.00    +0.000 A 
ATOM      2  C   UNL     1      48.438   6.993  14.017  0.00  0.00    +0.000 A 
ATOM      3  C   UNL     1      49.706   7.564  14.140  0.00  0.00    +0.000 A 
ATOM      4  C   UNL     1      50.388   8.027  13.010  0.00  0.00    +0.000 A 
ATOM      5  C   UNL     1      49.798   7.852  11.749  0.00  0.00    +0.000 A 
ATOM      6  C   UNL     1      48.536   7.279  11.621  0.00  0.00    +0.000 A 
ENDROOT
BRANCH   1   7
ATOM      7  C   UNL     1      46.486   6.211  12.615  0.00  0.00    +0.000 C 
BRANCH   7   9
ATOM      8  C   UNL     1      45.389   8.486  12.468  0.00  0.00    +0.000 C 
ATOM      9  N   UNL     1      45.325   7.040  12.280  0.00  0.00    +0.000 N 
ATOM     10  C   UNL     1      44.222   6.549  11.554  0.00  0.00    +0.000 C 
ATOM     11  O   UNL     1      43.356   7.301  11.117  0.00  0.00    +0.000 OA
BRANCH  10  12
ATOM     12  C   UNL     1      44.089   5.096  11.355  0.00  0.00    +0.000 A 
ATOM     13  C   UNL     1      43.293   4.269  12.134  0.00  0.00    +0.000 A 
ATOM     14  S   UNL     1      43.323   2.632  11.660  0.00  0.00    +0.000 S 
ATOM     15  C   UNL     1      44.265   3.001  10.296  0.00  0.00    +0.000 A 
ATOM     16  N   UNL     1      44.564   2.033   9.386  0.00  0.00    +0.000 NA
ATOM     17  C   UNL     1      45.235   2.465   8.369  0.00  0.00    +0.000 A 
ATOM     18  N   UNL     1      45.658   3.758   8.197  0.00  0.00    +0.000 N 
ATOM     19  C   UNL     1      45.492   4.736   9.155  0.00  0.00    +0.000 A 
ATOM     20  O   UNL     1      46.090   5.803   9.074  0.00  0.00    +0.000 OA
ATOM     21  C   UNL     1      44.640   4.332  10.261  0.00  0.00    +0.000 A 
ATOM     22  H   UNL     1      46.240   4.008   7.412  0.00  0.00    +0.000 HD
ENDBRANCH  10  12
ENDBRANCH   7   9
ENDBRANCH   1   7
BRANCH   4  23
ATOM     23  C   UNL     1      51.695   8.761  13.133  0.00  0.00    +0.000 C 
BRANCH  23  24
ATOM     24  N   UNL     1      52.757   7.987  13.714  0.00  0.00    +0.000 N 
ATOM     25  C   UNL     1      53.194   8.280  14.988  0.00  0.00    +0.000 C 
ATOM     26  O   UNL     1      52.739   9.201  15.657  0.00  0.00    +0.000 OA
ATOM     27  H   UNL     1      53.181   7.196  13.238  0.00  0.00    +0.000 HD
BRANCH  25  28
ATOM     28  C   UNL     1      54.247   7.392  15.480  0.00  0.00    +0.000 A 
ATOM     29  C   UNL     1      54.872   7.475  16.706  0.00  0.00    +0.000 A 
ATOM     30  N   UNL     1      55.774   6.448  16.731  0.00  0.00    +0.000 N 
ATOM     31  C   UNL     1      55.668   5.787  15.539  0.00  0.00    +0.000 A 
ATOM     32  N   UNL     1      54.760   6.325  14.758  0.00  0.00    +0.000 NA
ATOM     33  H   UNL     1      56.399   6.216  17.489  0.00  0.00    +0.000 HD
ENDBRANCH  25  28
ENDBRANCH  23  24
ENDBRANCH   4  23
TORSDOF 6
ENDMDL
