MODEL 1
REMARK VINA RESULT:    -7.473      0.000      0.000
REMARK INTER + INTRA:         -13.297
REMARK INTER:                 -12.061
REMARK INTRA:                  -1.237
REMARK UNBOUND:                -1.237
REMARK  Name = 
REMARK  11 active torsions:
REMARK  status: ('A' for Active; 'I' for Inactive)
REMARK    1  A    between atoms: N_1  and  C_2
REMARK    2  A    between atoms: C_2  and  C_3
REMARK    3  A    between atoms: C_3  and  N_4
REMARK    4  A    between atoms: N_4  and  C_5
REMARK    5  A    between atoms: C_5  and  C_6
REMARK    6  A    between atoms: C_5  and  C_20
REMARK    7  A    between atoms: C_6  and  C_7
REMARK    8  A    between atoms: C_10  and  C_11
REMARK    9  A    between atoms: C_11  and  N_12
REMARK   10  A    between atoms: N_12  and  C_13
REMARK   11  A    between atoms: C_20  and  C_22
REMARK                            x       y       z     vdW  Elec       q    Type
REMARK                         _______ _______ _______ _____ _____    ______ ____
ROOT
ATOM      1  C   UNL     1      48.257   5.548  15.933  0.00  0.00    +0.000 C 
ENDROOT
BRANCH   1   2
ATOM      2  N   UNL     1      49.407   6.215  15.269  0.00  0.00    +0.000 NA
ATOM      3  H   UNL     1      50.278   5.805  15.611  0.00  0.00    +0.000 HD
BRANCH   2   4
ATOM      4  C   UNL     1      49.475   7.674  15.338  0.00  0.00    +0.000 C 
BRANCH   4   5
ATOM      5  C   UNL     1      48.452   8.455  16.195  0.00  0.00    +0.000 C 
BRANCH   5   6
ATOM      6  N   UNL     1      47.488   9.125  15.315  0.00  0.00    +0.000 NA
ATOM      7  H   UNL     1      46.731   9.535  15.860  0.00  0.00    +0.000 HD
ATOM      8  H   UNL     1      47.056   8.436  14.698  0.00  0.00    +0.000 HD
ENDBRANCH   5   6
ENDBRANCH   4   5
ENDBRANCH   2   4
ENDBRANCH   1   2
BRANCH   1   9
ATOM      9  C   UNL     1      48.720   4.971  17.299  0.00  0.00    +0.000 C 
ATOM     10  O   UNL     1      47.888   4.750  18.189  0.00  0.00    +0.000 OA
BRANCH   9  11
ATOM     11  C   UNL     1      50.125   4.536  17.531  0.00  0.00    +0.000 A 
ATOM     12  C   UNL     1      51.040   5.456  18.038  0.00  0.00    +0.000 A 
ATOM     13  S   UNL     1      52.553   4.783  18.441  0.00  0.00    +0.000 S 
ATOM     14  C   UNL     1      52.050   3.238  17.948  0.00  0.00    +0.000 A 
ATOM     15  N   UNL     1      52.859   2.158  18.123  0.00  0.00    +0.000 NA
ATOM     16  C   UNL     1      52.325   1.036  17.781  0.00  0.00    +0.000 A 
ATOM     17  N   UNL     1      51.087   0.892  17.237  0.00  0.00    +0.000 N 
ATOM     18  C   UNL     1      50.335   1.977  16.852  0.00  0.00    +0.000 A 
ATOM     19  O   UNL     1      49.414   1.814  16.066  0.00  0.00    +0.000 OA
ATOM     20  C   UNL     1      50.779   3.249  17.392  0.00  0.00    +0.000 A 
ATOM     21  H   UNL     1      50.773   0.004  16.879  0.00  0.00    +0.000 HD
ENDBRANCH   9  11
ENDBRANCH   1   9
BRANCH   1  22
ATOM     22  C   UNL     1      47.454   4.493  15.118  0.00  0.00    +0.000 C 
BRANCH  22  23
ATOM     23  C   UNL     1      46.693   4.830  13.852  0.00  0.00    +0.000 A 
ATOM     24  C   UNL     1      45.895   3.830  13.263  0.00  0.00    +0.000 A 
ATOM     25  C   UNL     1      45.273   4.029  12.030  0.00  0.00    +0.000 A 
ATOM     26  C   UNL     1      45.361   5.267  11.389  0.00  0.00    +0.000 A 
ATOM     27  C   UNL     1      46.013   6.316  12.057  0.00  0.00    +0.000 A 
ATOM     28  C   UNL     1      46.688   6.095  13.268  0.00  0.00    +0.000 A 
BRANCH  26  29
ATOM     29  C   UNL     1      44.786   5.458  10.001  0.00  0.00    +0.000 C 
BRANCH  29  30
ATOM     30  N   UNL     1      45.636   4.829   9.003  0.00  0.00    +0.000 NA
ATOM     31  H   UNL     1      46.353   4.286   9.470  0.00  0.00    +0.000 HD
BRANCH  30  32
ATOM     32  C   UNL     1      44.953   4.031   8.009  0.00  0.00    +0.000 C 
ATOM     33  C   UNL     1      45.971   3.284   7.148  0.00  0.00    +0.000 C 
ATOM     34  C   UNL     1      46.421   2.130   8.037  0.00  0.00    +0.000 C 
ATOM     35  C   UNL     1      45.245   1.902   8.979  0.00  0.00    +0.000 C 
ATOM     36  N   UNL     1      44.259   2.918   8.623  0.00  0.00    +0.000 NA
ATOM     37  H   UNL     1      43.683   3.198   9.407  0.00  0.00    +0.000 HD
ENDBRANCH  30  32
ENDBRANCH  29  30
ENDBRANCH  26  29
ENDBRANCH  22  23
ENDBRANCH   1  22
TORSDOF 11
ENDMDL
MODEL 2
REMARK VINA RESULT:    -7.232      2.738      3.577
REMARK INTER + INTRA:         -12.907
REMARK INTER:                 -11.056
REMARK INTRA:                  -1.851
REMARK UNBOUND:                -1.237
REMARK  Name = 
REMARK  11 active torsions:
REMARK  status: ('A' for Active; 'I' for Inactive)
REMARK    1  A    between atoms: N_1  and  C_2
REMARK    2  A    between atoms: C_2  and  C_3
REMARK    3  A    between atoms: C_3  and  N_4
REMARK    4  A    between atoms: N_4  and  C_5
REMARK    5  A    between atoms: C_5  and  C_6
REMARK    6  A    between atoms: C_5  and  C_20
REMARK    7  A    between atoms: C_6  and  C_7
REMARK    8  A    between atoms: C_10  and  C_11
REMARK    9  A    between atoms: C_11  and  N_12
REMARK   10  A    between atoms: N_12  and  C_13
REMARK   11  A    between atoms: C_20  and  C_22
REMARK                            x       y       z     vdW  Elec       q    Type
REMARK                         _______ _______ _______ _____ _____    ______ ____
ROOT
ATOM      1  C   UNL     1      47.637   8.111  13.390  0.00  0.00    +0.000 C 
ENDROOT
BRANCH   1   2
ATOM      2  N   UNL     1      48.452   8.760  12.331  0.00  0.00    +0.000 NA
ATOM      3  H   UNL     1      48.525   8.132  11.528  0.00  0.00    +0.000 HD
BRANCH   2   4
ATOM      4  C   UNL     1      49.776   9.256  12.705  0.00  0.00    +0.000 C 
BRANCH   4   5
ATOM      5  C   UNL     1      50.962   9.110  11.724  0.00  0.00    +0.000 C 
BRANCH   5   6
ATOM      6  N   UNL     1      51.786   7.962  12.120  0.00  0.00    +0.000 NA
ATOM      7  H   UNL     1      51.648   7.747  13.106  0.00  0.00    +0.000 HD
ATOM      8  H   UNL     1      52.772   8.201  12.015  0.00  0.00    +0.000 HD
ENDBRANCH   5   6
ENDBRANCH   4   5
ENDBRANCH   2   4
ENDBRANCH   1   2
BRANCH   1   9
ATOM      9  C   UNL     1      48.293   6.759  13.783  0.00  0.00    +0.000 C 
ATOM     10  O   UNL     1      48.743   6.012  12.905  0.00  0.00    +0.000 OA
BRANCH   9  11
ATOM     11  C   UNL     1      48.531   6.387  15.206  0.00  0.00    +0.000 A 
ATOM     12  C   UNL     1      49.200   7.287  16.034  0.00  0.00    +0.000 A 
ATOM     13  S   UNL     1      49.233   6.828  17.675  0.00  0.00    +0.000 S 
ATOM     14  C   UNL     1      48.363   5.409  17.345  0.00  0.00    +0.000 A 
ATOM     15  N   UNL     1      47.964   4.590  18.357  0.00  0.00    +0.000 NA
ATOM     16  C   UNL     1      47.243   3.591  17.976  0.00  0.00    +0.000 A 
ATOM     17  N   UNL     1      46.925   3.302  16.686  0.00  0.00    +0.000 N 
ATOM     18  C   UNL     1      47.488   3.982  15.632  0.00  0.00    +0.000 A 
ATOM     19  O   UNL     1      47.460   3.483  14.517  0.00  0.00    +0.000 OA
ATOM     20  C   UNL     1      48.133   5.233  15.988  0.00  0.00    +0.000 A 
ATOM     21  H   UNL     1      46.462   2.442  16.442  0.00  0.00    +0.000 HD
ENDBRANCH   9  11
ENDBRANCH   1   9
BRANCH   1  22
ATOM     22  C   UNL     1      46.110   7.944  13.139  0.00  0.00    +0.000 C 
BRANCH  22  23
ATOM     23  C   UNL     1      45.509   6.722  12.476  0.00  0.00    +0.000 A 
ATOM     24  C   UNL     1      44.939   5.728  13.295  0.00  0.00    +0.000 A 
ATOM     25  C   UNL     1      44.486   4.519  12.763  0.00  0.00    +0.000 A 
ATOM     26  C   UNL     1      44.513   4.304  11.383  0.00  0.00    +0.000 A 
ATOM     27  C   UNL     1      44.923   5.360  10.554  0.00  0.00    +0.000 A 
ATOM     28  C   UNL     1      45.434   6.550  11.096  0.00  0.00    +0.000 A 
BRANCH  26  29
ATOM     29  C   UNL     1      44.131   2.957  10.807  0.00  0.00    +0.000 C 
BRANCH  29  30
ATOM     30  N   UNL     1      45.235   2.391  10.049  0.00  0.00    +0.000 NA
ATOM     31  H   UNL     1      45.681   1.667  10.600  0.00  0.00    +0.000 HD
BRANCH  30  32
ATOM     32  C   UNL     1      44.904   1.901   8.729  0.00  0.00    +0.000 C 
ATOM     33  C   UNL     1      44.879   3.059   7.733  0.00  0.00    +0.000 C 
ATOM     34  C   UNL     1      46.354   3.340   7.464  0.00  0.00    +0.000 C 
ATOM     35  C   UNL     1      47.045   2.011   7.747  0.00  0.00    +0.000 C 
ATOM     36  N   UNL     1      45.986   1.107   8.183  0.00  0.00    +0.000 NA
ATOM     37  H   UNL     1      46.316   0.397   8.825  0.00  0.00    +0.000 HD
ENDBRANCH  30  32
ENDBRANCH  29  30
ENDBRANCH  26  29
ENDBRANCH  22  23
ENDBRANCH   1  22
TORSDOF 11
ENDMDL
MODEL 3
REMARK VINA RESULT:    -7.185      1.751      2.235
REMARK INTER + INTRA:         -12.832
REMARK INTER:                 -11.572
REMARK INTRA:                  -1.260
REMARK UNBOUND:                -1.237
REMARK  Name = 
REMARK  11 active torsions:
REMARK  status: ('A' for Active; 'I' for Inactive)
REMARK    1  A    between atoms: N_1  and  C_2
REMARK    2  A    between atoms: C_2  and  C_3
REMARK    3  A    between atoms: C_3  and  N_4
REMARK    4  A    between atoms: N_4  and  C_5
REMARK    5  A    between atoms: C_5  and  C_6
REMARK    6  A    between atoms: C_5  and  C_20
REMARK    7  A    between atoms: C_6  and  C_7
REMARK    8  A    between atoms: C_10  and  C_11
REMARK    9  A    between atoms: C_11  and  N_12
REMARK   10  A    between atoms: N_12  and  C_13
REMARK   11  A    between atoms: C_20  and  C_22
REMARK                            x       y       z     vdW  Elec       q    Type
REMARK                         _______ _______ _______ _____ _____    ______ ____
ROOT
ATOM      1  C   UNL     1      48.216   6.051  17.214  0.00  0.00    +0.000 C 
ENDROOT
BRANCH   1   2
ATOM      2  N   UNL     1      48.553   7.178  18.122  0.00  0.00    +0.000 NA
ATOM      3  H   UNL     1      49.486   7.031  18.509  0.00  0.00    +0.000 HD
BRANCH   2   4
ATOM      4  C   UNL     1      47.606   7.491  19.191  0.00  0.00    +0.000 C 
BRANCH   4   5
ATOM      5  C   UNL     1      47.815   6.903  20.605  0.00  0.00    +0.000 C 
BRANCH   5   6
ATOM      6  N   UNL     1      47.023   5.676  20.747  0.00  0.00    +0.000 NA
ATOM      7  H   UNL     1      47.064   5.332  21.704  0.00  0.00    +0.000 HD
ATOM      8  H   UNL     1      47.426   4.943  20.163  0.00  0.00    +0.000 HD
ENDBRANCH   5   6
ENDBRANCH   4   5
ENDBRANCH   2   4
ENDBRANCH   1   2
BRANCH   1   9
ATOM      9  C   UNL     1      48.695   4.719  17.853  0.00  0.00    +0.000 C 
ATOM     10  O   UNL     1      47.867   3.864  18.194  0.00  0.00    +0.000 OA
BRANCH   9  11
ATOM     11  C   UNL     1      50.140   4.367  17.943  0.00  0.00    +0.000 A 
ATOM     12  C   UNL     1      51.021   5.282  18.516  0.00  0.00    +0.000 A 
ATOM     13  S   UNL     1      52.600   4.681  18.736  0.00  0.00    +0.000 S 
ATOM     14  C   UNL     1      52.173   3.179  18.071  0.00  0.00    +0.000 A 
ATOM     15  N   UNL     1      53.065   2.151  18.052  0.00  0.00    +0.000 NA
ATOM     16  C   UNL     1      52.587   1.045  17.594  0.00  0.00    +0.000 A 
ATOM     17  N   UNL     1      51.328   0.877  17.108  0.00  0.00    +0.000 N 
ATOM     18  C   UNL     1      50.479   1.941  16.916  0.00  0.00    +0.000 A 
ATOM     19  O   UNL     1      49.520   1.811  16.170  0.00  0.00    +0.000 OA
ATOM     20  C   UNL     1      50.870   3.163  17.595  0.00  0.00    +0.000 A 
ATOM     21  H   UNL     1      51.053   0.022  16.653  0.00  0.00    +0.000 HD
ENDBRANCH   9  11
ENDBRANCH   1   9
BRANCH   1  22
ATOM     22  C   UNL     1      48.659   6.153  15.726  0.00  0.00    +0.000 C 
BRANCH  22  23
ATOM     23  C   UNL     1      47.789   5.701  14.571  0.00  0.00    +0.000 A 
ATOM     24  C   UNL     1      47.722   6.516  13.423  0.00  0.00    +0.000 A 
ATOM     25  C   UNL     1      46.842   6.228  12.378  0.00  0.00    +0.000 A 
ATOM     26  C   UNL     1      46.064   5.069  12.413  0.00  0.00    +0.000 A 
ATOM     27  C   UNL     1      46.256   4.171  13.475  0.00  0.00    +0.000 A 
ATOM     28  C   UNL     1      47.096   4.493  14.552  0.00  0.00    +0.000 A 
BRANCH  26  29
ATOM     29  C   UNL     1      45.027   4.807  11.340  0.00  0.00    +0.000 C 
BRANCH  29  30
ATOM     30  N   UNL     1      45.091   3.424  10.893  0.00  0.00    +0.000 NA
ATOM     31  H   UNL     1      44.915   2.811  11.681  0.00  0.00    +0.000 HD
BRANCH  30  32
ATOM     32  C   UNL     1      44.236   3.085   9.777  0.00  0.00    +0.000 C 
ATOM     33  C   UNL     1      44.588   3.949   8.568  0.00  0.00    +0.000 C 
ATOM     34  C   UNL     1      45.864   3.313   8.025  0.00  0.00    +0.000 C 
ATOM     35  C   UNL     1      45.782   1.861   8.485  0.00  0.00    +0.000 C 
ATOM     36  N   UNL     1      44.550   1.768   9.262  0.00  0.00    +0.000 NA
ATOM     37  H   UNL     1      44.596   1.063   9.987  0.00  0.00    +0.000 HD
ENDBRANCH  30  32
ENDBRANCH  29  30
ENDBRANCH  26  29
ENDBRANCH  22  23
ENDBRANCH   1  22
TORSDOF 11
ENDMDL
MODEL 4
REMARK VINA RESULT:    -7.020      2.667      4.049
REMARK INTER + INTRA:         -12.566
REMARK INTER:                 -11.418
REMARK INTRA:                  -1.147
REMARK UNBOUND:                -1.237
REMARK  Name = 
REMARK  11 active torsions:
REMARK  status: ('A' for Active; 'I' for Inactive)
REMARK    1  A    between atoms: N_1  and  C_2
REMARK    2  A    between atoms: C_2  and  C_3
REMARK    3  A    between atoms: C_3  and  N_4
REMARK    4  A    between atoms: N_4  and  C_5
REMARK    5  A    between atoms: C_5  and  C_6
REMARK    6  A    between atoms: C_5  and  C_20
REMARK    7  A    between atoms: C_6  and  C_7
REMARK    8  A    between atoms: C_10  and  C_11
REMARK    9  A    between atoms: C_11  and  N_12
REMARK   10  A    between atoms: N_12  and  C_13
REMARK   11  A    between atoms: C_20  and  C_22
REMARK                            x       y       z     vdW  Elec       q    Type
REMARK                         _______ _______ _______ _____ _____    ______ ____
ROOT
ATOM      1  C   UNL     1      46.342   7.298  13.310  0.00  0.00    +0.000 C 
ENDROOT
BRANCH   1   2
ATOM      2  N   UNL     1      46.370   8.394  12.307  0.00  0.00    +0.000 NA
ATOM      3  H   UNL     1      47.272   8.872  12.355  0.00  0.00    +0.000 HD
BRANCH   2   4
ATOM      4  C   UNL     1      45.281   9.369  12.340  0.00  0.00    +0.000 C 
BRANCH   4   5
ATOM      5  C   UNL     1      44.403   9.590  11.086  0.00  0.00    +0.000 C 
BRANCH   5   6
ATOM      6  N   UNL     1      43.352   8.567  11.039  0.00  0.00    +0.000 NA
ATOM      7  H   UNL     1      43.577   7.794  11.663  0.00  0.00    +0.000 HD
ATOM      8  H   UNL     1      43.306   8.172  10.099  0.00  0.00    +0.000 HD
ENDBRANCH   5   6
ENDBRANCH   4   5
ENDBRANCH   2   4
ENDBRANCH   1   2
BRANCH   1   9
ATOM      9  C   UNL     1      47.779   6.739  13.498  0.00  0.00    +0.000 C 
ATOM     10  O   UNL     1      48.556   6.697  12.535  0.00  0.00    +0.000 OA
BRANCH   9  11
ATOM     11  C   UNL     1      48.311   6.380  14.842  0.00  0.00    +0.000 A 
ATOM     12  C   UNL     1      49.124   7.293  15.510  0.00  0.00    +0.000 A 
ATOM     13  S   UNL     1      49.502   6.846  17.111  0.00  0.00    +0.000 S 
ATOM     14  C   UNL     1      48.602   5.413  16.973  0.00  0.00    +0.000 A 
ATOM     15  N   UNL     1      48.433   4.596  18.048  0.00  0.00    +0.000 NA
ATOM     16  C   UNL     1      47.663   3.585  17.829  0.00  0.00    +0.000 A 
ATOM     17  N   UNL     1      47.089   3.284  16.633  0.00  0.00    +0.000 N 
ATOM     18  C   UNL     1      47.412   3.965  15.483  0.00  0.00    +0.000 A 
ATOM     19  O   UNL     1      47.161   3.457  14.400  0.00  0.00    +0.000 OA
ATOM     20  C   UNL     1      48.099   5.225  15.694  0.00  0.00    +0.000 A 
ATOM     21  H   UNL     1      46.597   2.416  16.494  0.00  0.00    +0.000 HD
ENDBRANCH   9  11
ENDBRANCH   1   9
BRANCH   1  22
ATOM     22  C   UNL     1      45.312   6.148  13.107  0.00  0.00    +0.000 C 
BRANCH  22  23
ATOM     23  C   UNL     1      45.214   5.342  11.828  0.00  0.00    +0.000 A 
ATOM     24  C   UNL     1      45.710   5.911  10.638  0.00  0.00    +0.000 A 
ATOM     25  C   UNL     1      45.535   5.281   9.404  0.00  0.00    +0.000 A 
ATOM     26  C   UNL     1      44.933   4.022   9.335  0.00  0.00    +0.000 A 
ATOM     27  C   UNL     1      44.594   3.382  10.538  0.00  0.00    +0.000 A 
ATOM     28  C   UNL     1      44.716   4.043  11.771  0.00  0.00    +0.000 A 
BRANCH  26  29
ATOM     29  C   UNL     1      44.638   3.383   7.995  0.00  0.00    +0.000 C 
BRANCH  29  30
ATOM     30  N   UNL     1      45.757   3.564   7.083  0.00  0.00    +0.000 NA
ATOM     31  H   UNL     1      45.840   4.546   6.850  0.00  0.00    +0.000 HD
BRANCH  30  32
ATOM     32  C   UNL     1      47.024   3.033   7.533  0.00  0.00    +0.000 C 
ATOM     33  C   UNL     1      46.951   1.510   7.624  0.00  0.00    +0.000 C 
ATOM     34  C   UNL     1      47.061   1.053   6.173  0.00  0.00    +0.000 C 
ATOM     35  C   UNL     1      47.817   2.182   5.482  0.00  0.00    +0.000 C 
ATOM     36  N   UNL     1      48.044   3.188   6.515  0.00  0.00    +0.000 NA
ATOM     37  H   UNL     1      48.089   4.129   6.144  0.00  0.00    +0.000 HD
ENDBRANCH  30  32
ENDBRANCH  29  30
ENDBRANCH  26  29
ENDBRANCH  22  23
ENDBRANCH   1  22
TORSDOF 11
ENDMDL
MODEL 5
REMARK VINA RESULT:    -6.714      3.524      6.120
REMARK INTER + INTRA:         -12.072
REMARK INTER:                 -10.963
REMARK INTRA:                  -1.108
REMARK UNBOUND:                -1.237
REMARK  Name = 
REMARK  11 active torsions:
REMARK  status: ('A' for Active; 'I' for Inactive)
REMARK    1  A    between atoms: N_1  and  C_2
REMARK    2  A    between atoms: C_2  and  C_3
REMARK    3  A    between atoms: C_3  and  N_4
REMARK    4  A    between atoms: N_4  and  C_5
REMARK    5  A    between atoms: C_5  and  C_6
REMARK    6  A    between atoms: C_5  and  C_20
REMARK    7  A    between atoms: C_6  and  C_7
REMARK    8  A    between atoms: C_10  and  C_11
REMARK    9  A    between atoms: C_11  and  N_12
REMARK   10  A    between atoms: N_12  and  C_13
REMARK   11  A    between atoms: C_20  and  C_22
REMARK                            x       y       z     vdW  Elec       q    Type
REMARK                         _______ _______ _______ _____ _____    ______ ____
ROOT
ATOM      1  C   UNL     1      47.657   5.800  14.101  0.00  0.00    +0.000 C 
ENDROOT
BRANCH   1   2
ATOM      2  N   UNL     1      48.250   5.039  15.232  0.00  0.00    +0.000 NA
ATOM      3  H   UNL     1      48.876   4.321  14.863  0.00  0.00    +0.000 HD
BRANCH   2   4
ATOM      4  C   UNL     1      47.332   4.455  16.209  0.00  0.00    +0.000 C 
BRANCH   4   5
ATOM      5  C   UNL     1      47.729   3.169  16.970  0.00  0.00    +0.000 C 
BRANCH   5   6
ATOM      6  N   UNL     1      46.596   2.711  17.781  0.00  0.00    +0.000 NA
ATOM      7  H   UNL     1      45.974   3.488  17.997  0.00  0.00    +0.000 HD
ATOM      8  H   UNL     1      46.939   2.362  18.677  0.00  0.00    +0.000 HD
ENDBRANCH   5   6
ENDBRANCH   4   5
ENDBRANCH   2   4
ENDBRANCH   1   2
BRANCH   1   9
ATOM      9  C   UNL     1      47.872   7.320  14.340  0.00  0.00    +0.000 C 
ATOM     10  O   UNL     1      48.440   7.709  15.368  0.00  0.00    +0.000 OA
BRANCH   9  11
ATOM     11  C   UNL     1      47.542   8.332  13.297  0.00  0.00    +0.000 A 
ATOM     12  C   UNL     1      46.236   8.812  13.215  0.00  0.00    +0.000 A 
ATOM     13  S   UNL     1      46.039  10.101  12.118  0.00  0.00    +0.000 S 
ATOM     14  C   UNL     1      47.685  10.066  11.706  0.00  0.00    +0.000 A 
ATOM     15  N   UNL     1      48.208  10.999  10.864  0.00  0.00    +0.000 NA
ATOM     16  C   UNL     1      49.484  10.907  10.700  0.00  0.00    +0.000 A 
ATOM     17  N   UNL     1      50.276   9.948  11.248  0.00  0.00    +0.000 N 
ATOM     18  C   UNL     1      49.750   8.872  11.924  0.00  0.00    +0.000 A 
ATOM     19  O   UNL     1      50.439   7.877  12.088  0.00  0.00    +0.000 OA
ATOM     20  C   UNL     1      48.362   9.022  12.320  0.00  0.00    +0.000 A 
ATOM     21  H   UNL     1      51.244   9.857  10.985  0.00  0.00    +0.000 HD
ENDBRANCH   9  11
ENDBRANCH   1   9
BRANCH   1  22
ATOM     22  C   UNL     1      46.182   5.494  13.708  0.00  0.00    +0.000 C 
BRANCH  22  23
ATOM     23  C   UNL     1      45.778   5.004  12.333  0.00  0.00    +0.000 A 
ATOM     24  C   UNL     1      46.035   5.832  11.223  0.00  0.00    +0.000 A 
ATOM     25  C   UNL     1      45.574   5.503   9.947  0.00  0.00    +0.000 A 
ATOM     26  C   UNL     1      44.914   4.291   9.729  0.00  0.00    +0.000 A 
ATOM     27  C   UNL     1      44.809   3.390  10.800  0.00  0.00    +0.000 A 
ATOM     28  C   UNL     1      45.220   3.750  12.093  0.00  0.00    +0.000 A 
BRANCH  26  29
ATOM     29  C   UNL     1      44.312   3.976   8.376  0.00  0.00    +0.000 C 
BRANCH  29  30
ATOM     30  N   UNL     1      45.157   3.048   7.642  0.00  0.00    +0.000 NA
ATOM     31  H   UNL     1      44.784   2.923   6.709  0.00  0.00    +0.000 HD
BRANCH  30  32
ATOM     32  C   UNL     1      46.563   3.383   7.593  0.00  0.00    +0.000 C 
ATOM     33  C   UNL     1      47.400   2.113   7.451  0.00  0.00    +0.000 C 
ATOM     34  C   UNL     1      47.245   1.737   5.981  0.00  0.00    +0.000 C 
ATOM     35  C   UNL     1      46.939   3.060   5.287  0.00  0.00    +0.000 C 
ATOM     36  N   UNL     1      46.893   4.057   6.353  0.00  0.00    +0.000 NA
ATOM     37  H   UNL     1      46.268   4.826   6.145  0.00  0.00    +0.000 HD
ENDBRANCH  30  32
ENDBRANCH  29  30
ENDBRANCH  26  29
ENDBRANCH  22  23
ENDBRANCH   1  22
TORSDOF 11
ENDMDL
MODEL 6
REMARK VINA RESULT:    -6.514      2.379      4.581
REMARK INTER + INTRA:         -11.748
REMARK INTER:                 -10.635
REMARK INTRA:                  -1.114
REMARK UNBOUND:                -1.237
REMARK  Name = 
REMARK  11 active torsions:
REMARK  status: ('A' for Active; 'I' for Inactive)
REMARK    1  A    between atoms: N_1  and  C_2
REMARK    2  A    between atoms: C_2  and  C_3
REMARK    3  A    between atoms: C_3  and  N_4
REMARK    4  A    between atoms: N_4  and  C_5
REMARK    5  A    between atoms: C_5  and  C_6
REMARK    6  A    between atoms: C_5  and  C_20
REMARK    7  A    between atoms: C_6  and  C_7
REMARK    8  A    between atoms: C_10  and  C_11
REMARK    9  A    between atoms: C_11  and  N_12
REMARK   10  A    between atoms: N_12  and  C_13
REMARK   11  A    between atoms: C_20  and  C_22
REMARK                            x       y       z     vdW  Elec       q    Type
REMARK                         _______ _______ _______ _____ _____    ______ ____
ROOT
ATOM      1  C   UNL     1      48.572   5.681  15.785  0.00  0.00    +0.000 C 
ENDROOT
BRANCH   1   2
ATOM      2  N   UNL     1      47.507   5.302  16.749  0.00  0.00    +0.000 NA
ATOM      3  H   UNL     1      47.690   5.751  17.648  0.00  0.00    +0.000 HD
BRANCH   2   4
ATOM      4  C   UNL     1      47.245   3.876  16.942  0.00  0.00    +0.000 C 
BRANCH   4   5
ATOM      5  C   UNL     1      48.422   2.894  17.143  0.00  0.00    +0.000 C 
BRANCH   5   6
ATOM      6  N   UNL     1      48.744   2.248  15.865  0.00  0.00    +0.000 NA
ATOM      7  H   UNL     1      49.349   1.443  16.014  0.00  0.00    +0.000 HD
ATOM      8  H   UNL     1      49.272   2.898  15.281  0.00  0.00    +0.000 HD
ENDBRANCH   5   6
ENDBRANCH   4   5
ENDBRANCH   2   4
ENDBRANCH   1   2
BRANCH   1   9
ATOM      9  C   UNL     1      49.798   6.228  16.567  0.00  0.00    +0.000 C 
ATOM     10  O   UNL     1      50.803   5.520  16.714  0.00  0.00    +0.000 OA
BRANCH   9  11
ATOM     11  C   UNL     1      49.865   7.642  17.030  0.00  0.00    +0.000 A 
ATOM     12  C   UNL     1      50.856   8.473  16.511  0.00  0.00    +0.000 A 
ATOM     13  S   UNL     1      50.702  10.108  16.971  0.00  0.00    +0.000 S 
ATOM     14  C   UNL     1      49.312   9.769  17.884  0.00  0.00    +0.000 A 
ATOM     15  N   UNL     1      48.611  10.774  18.477  0.00  0.00    +0.000 NA
ATOM     16  C   UNL     1      47.533  10.389  19.071  0.00  0.00    +0.000 A 
ATOM     17  N   UNL     1      47.115   9.100  19.176  0.00  0.00    +0.000 N 
ATOM     18  C   UNL     1      47.906   8.048  18.777  0.00  0.00    +0.000 A 
ATOM     19  O   UNL     1      47.664   6.927  19.198  0.00  0.00    +0.000 OA
ATOM     20  C   UNL     1      49.021   8.413  17.922  0.00  0.00    +0.000 A 
ATOM     21  H   UNL     1      46.330   8.850  19.755  0.00  0.00    +0.000 HD
ENDBRANCH   9  11
ENDBRANCH   1   9
BRANCH   1  22
ATOM     22  C   UNL     1      48.190   6.621  14.606  0.00  0.00    +0.000 C 
BRANCH  22  23
ATOM     23  C   UNL     1      47.188   6.240  13.535  0.00  0.00    +0.000 A 
ATOM     24  C   UNL     1      46.437   5.061  13.709  0.00  0.00    +0.000 A 
ATOM     25  C   UNL     1      45.593   4.582  12.706  0.00  0.00    +0.000 A 
ATOM     26  C   UNL     1      45.411   5.315  11.530  0.00  0.00    +0.000 A 
ATOM     27  C   UNL     1      46.027   6.572  11.430  0.00  0.00    +0.000 A 
ATOM     28  C   UNL     1      46.921   7.022  12.414  0.00  0.00    +0.000 A 
BRANCH  26  29
ATOM     29  C   UNL     1      44.588   4.750  10.392  0.00  0.00    +0.000 C 
BRANCH  29  30
ATOM     30  N   UNL     1      45.380   4.675   9.174  0.00  0.00    +0.000 NA
ATOM     31  H   UNL     1      46.304   4.327   9.400  0.00  0.00    +0.000 HD
BRANCH  30  32
ATOM     32  C   UNL     1      44.795   3.917   8.091  0.00  0.00    +0.000 C 
ATOM     33  C   UNL     1      45.890   3.426   7.145  0.00  0.00    +0.000 C 
ATOM     34  C   UNL     1      46.509   2.246   7.887  0.00  0.00    +0.000 C 
ATOM     35  C   UNL     1      45.390   1.747   8.795  0.00  0.00    +0.000 C 
ATOM     36  N   UNL     1      44.269   2.653   8.565  0.00  0.00    +0.000 NA
ATOM     37  H   UNL     1      43.674   2.755   9.377  0.00  0.00    +0.000 HD
ENDBRANCH  30  32
ENDBRANCH  29  30
ENDBRANCH  26  29
ENDBRANCH  22  23
ENDBRANCH   1  22
TORSDOF 11
ENDMDL
MODEL 7
REMARK VINA RESULT:    -6.268      2.678      3.807
REMARK INTER + INTRA:         -11.352
REMARK INTER:                  -9.476
REMARK INTRA:                  -1.876
REMARK UNBOUND:                -1.237
REMARK  Name = 
REMARK  11 active torsions:
REMARK  status: ('A' for Active; 'I' for Inactive)
REMARK    1  A    between atoms: N_1  and  C_2
REMARK    2  A    between atoms: C_2  and  C_3
REMARK    3  A    between atoms: C_3  and  N_4
REMARK    4  A    between atoms: N_4  and  C_5
REMARK    5  A    between atoms: C_5  and  C_6
REMARK    6  A    between atoms: C_5  and  C_20
REMARK    7  A    between atoms: C_6  and  C_7
REMARK    8  A    between atoms: C_10  and  C_11
REMARK    9  A    between atoms: C_11  and  N_12
REMARK   10  A    between atoms: N_12  and  C_13
REMARK   11  A    between atoms: C_20  and  C_22
REMARK                            x       y       z     vdW  Elec       q    Type
REMARK                         _______ _______ _______ _____ _____    ______ ____
ROOT
ATOM      1  C   UNL     1      48.631   8.868  14.636  0.00  0.00    +0.000 C 
ENDROOT
BRANCH   1   2
ATOM      2  N   UNL     1      48.811  10.156  13.916  0.00  0.00    +0.000 NA
ATOM      3  H   UNL     1      48.752  10.927  14.584  0.00  0.00    +0.000 HD
BRANCH   2   4
ATOM      4  C   UNL     1      47.945  10.415  12.768  0.00  0.00    +0.000 C 
BRANCH   4   5
ATOM      5  C   UNL     1      48.533  10.402  11.337  0.00  0.00    +0.000 C 
BRANCH   5   6
ATOM      6  N   UNL     1      49.938   9.983  11.390  0.00  0.00    +0.000 NA
ATOM      7  H   UNL     1      50.554  10.791  11.324  0.00  0.00    +0.000 HD
ATOM      8  H   UNL     1      50.147   9.397  10.582  0.00  0.00    +0.000 HD
ENDBRANCH   5   6
ENDBRANCH   4   5
ENDBRANCH   2   4
ENDBRANCH   1   2
BRANCH   1   9
ATOM      9  C   UNL     1      49.363   8.941  16.004  0.00  0.00    +0.000 C 
ATOM     10  O   UNL     1      50.306   9.728  16.159  0.00  0.00    +0.000 OA
BRANCH   9  11
ATOM     11  C   UNL     1      48.876   8.190  17.196  0.00  0.00    +0.000 A 
ATOM     12  C   UNL     1      48.076   8.851  18.126  0.00  0.00    +0.000 A 
ATOM     13  S   UNL     1      47.427   7.834  19.330  0.00  0.00    +0.000 S 
ATOM     14  C   UNL     1      48.193   6.475  18.661  0.00  0.00    +0.000 A 
ATOM     15  N   UNL     1      47.968   5.233  19.171  0.00  0.00    +0.000 NA
ATOM     16  C   UNL     1      48.547   4.281  18.521  0.00  0.00    +0.000 A 
ATOM     17  N   UNL     1      49.365   4.451  17.449  0.00  0.00    +0.000 N 
ATOM     18  C   UNL     1      49.781   5.698  17.045  0.00  0.00    +0.000 A 
ATOM     19  O   UNL     1      50.765   5.795  16.328  0.00  0.00    +0.000 OA
ATOM     20  C   UNL     1      49.013   6.802  17.592  0.00  0.00    +0.000 A 
ATOM     21  H   UNL     1      49.883   3.680  17.059  0.00  0.00    +0.000 HD
ENDBRANCH   9  11
ENDBRANCH   1   9
BRANCH   1  22
ATOM     22  C   UNL     1      48.979   7.553  13.880  0.00  0.00    +0.000 C 
BRANCH  22  23
ATOM     23  C   UNL     1      47.931   6.554  13.435  0.00  0.00    +0.000 A 
ATOM     24  C   UNL     1      47.383   6.687  12.144  0.00  0.00    +0.000 A 
ATOM     25  C   UNL     1      46.324   5.883  11.718  0.00  0.00    +0.000 A 
ATOM     26  C   UNL     1      45.837   4.865  12.542  0.00  0.00    +0.000 A 
ATOM     27  C   UNL     1      46.496   4.623  13.758  0.00  0.00    +0.000 A 
ATOM     28  C   UNL     1      47.520   5.470  14.208  0.00  0.00    +0.000 A 
BRANCH  26  29
ATOM     29  C   UNL     1      44.618   4.064  12.135  0.00  0.00    +0.000 C 
BRANCH  29  30
ATOM     30  N   UNL     1      44.994   2.973  11.250  0.00  0.00    +0.000 NA
ATOM     31  H   UNL     1      45.054   2.115  11.786  0.00  0.00    +0.000 HD
BRANCH  30  32
ATOM     32  C   UNL     1      44.156   2.793  10.085  0.00  0.00    +0.000 C 
ATOM     33  C   UNL     1      44.285   3.999   9.156  0.00  0.00    +0.000 C 
ATOM     34  C   UNL     1      45.624   3.779   8.459  0.00  0.00    +0.000 C 
ATOM     35  C   UNL     1      45.826   2.269   8.505  0.00  0.00    +0.000 C 
ATOM     36  N   UNL     1      44.672   1.744   9.230  0.00  0.00    +0.000 NA
ATOM     37  H   UNL     1      44.880   0.892   9.735  0.00  0.00    +0.000 HD
ENDBRANCH  30  32
ENDBRANCH  29  30
ENDBRANCH  26  29
ENDBRANCH  22  23
ENDBRANCH   1  22
TORSDOF 11
ENDMDL
MODEL 8
REMARK VINA RESULT:    -6.264      2.798      4.575
REMARK INTER + INTRA:         -11.345
REMARK INTER:                 -10.419
REMARK INTRA:                  -0.926
REMARK UNBOUND:                -1.237
REMARK  Name = 
REMARK  11 active torsions:
REMARK  status: ('A' for Active; 'I' for Inactive)
REMARK    1  A    between atoms: N_1  and  C_2
REMARK    2  A    between atoms: C_2  and  C_3
REMARK    3  A    between atoms: C_3  and  N_4
REMARK    4  A    between atoms: N_4  and  C_5
REMARK    5  A    between atoms: C_5  and  C_6
REMARK    6  A    between atoms: C_5  and  C_20
REMARK    7  A    between atoms: C_6  and  C_7
REMARK    8  A    between atoms: C_10  and  C_11
REMARK    9  A    between atoms: C_11  and  N_12
REMARK   10  A    between atoms: N_12  and  C_13
REMARK   11  A    between atoms: C_20  and  C_22
REMARK                            x       y       z     vdW  Elec       q    Type
REMARK                         _______ _______ _______ _____ _____    ______ ____
ROOT
ATOM      1  C   UNL     1      48.623   6.348  15.136  0.00  0.00    +0.000 C 
ENDROOT
BRANCH   1   2
ATOM      2  N   UNL     1      47.863   5.592  16.166  0.00  0.00    +0.000 NA
ATOM      3  H   UNL     1      47.359   6.250  16.763  0.00  0.00    +0.000 HD
BRANCH   2   4
ATOM      4  C   UNL     1      48.605   4.634  16.984  0.00  0.00    +0.000 C 
BRANCH   4   5
ATOM      5  C   UNL     1      48.050   3.206  17.196  0.00  0.00    +0.000 C 
BRANCH   5   6
ATOM      6  N   UNL     1      46.593   3.267  17.363  0.00  0.00    +0.000 NA
ATOM      7  H   UNL     1      46.290   2.623  18.090  0.00  0.00    +0.000 HD
ATOM      8  H   UNL     1      46.140   2.960  16.502  0.00  0.00    +0.000 HD
ENDBRANCH   5   6
ENDBRANCH   4   5
ENDBRANCH   2   4
ENDBRANCH   1   2
BRANCH   1   9
ATOM      9  C   UNL     1      49.492   7.430  15.834  0.00  0.00    +0.000 C 
ATOM     10  O   UNL     1      49.031   8.072  16.787  0.00  0.00    +0.000 OA
BRANCH   9  11
ATOM     11  C   UNL     1      50.927   7.628  15.485  0.00  0.00    +0.000 A 
ATOM     12  C   UNL     1      51.902   7.052  16.297  0.00  0.00    +0.000 A 
ATOM     13  S   UNL     1      53.486   7.186  15.682  0.00  0.00    +0.000 S 
ATOM     14  C   UNL     1      52.934   8.025  14.313  0.00  0.00    +0.000 A 
ATOM     15  N   UNL     1      53.794   8.359  13.312  0.00  0.00    +0.000 NA
ATOM     16  C   UNL     1      53.232   8.920  12.297  0.00  0.00    +0.000 A 
ATOM     17  N   UNL     1      51.910   9.225  12.203  0.00  0.00    +0.000 N 
ATOM     18  C   UNL     1      51.060   9.097  13.276  0.00  0.00    +0.000 A 
ATOM     19  O   UNL     1      49.995   9.695  13.268  0.00  0.00    +0.000 OA
ATOM     20  C   UNL     1      51.573   8.287  14.367  0.00  0.00    +0.000 A 
ATOM     21  H   UNL     1      51.553   9.771  11.436  0.00  0.00    +0.000 HD
ENDBRANCH   9  11
ENDBRANCH   1   9
BRANCH   1  22
ATOM     22  C   UNL     1      47.831   6.948  13.937  0.00  0.00    +0.000 C 
BRANCH  22  23
ATOM     23  C   UNL     1      46.844   6.146  13.115  0.00  0.00    +0.000 A 
ATOM     24  C   UNL     1      46.262   5.001  13.694  0.00  0.00    +0.000 A 
ATOM     25  C   UNL     1      45.447   4.145  12.952  0.00  0.00    +0.000 A 
ATOM     26  C   UNL     1      45.121   4.455  11.629  0.00  0.00    +0.000 A 
ATOM     27  C   UNL     1      45.562   5.681  11.107  0.00  0.00    +0.000 A 
ATOM     28  C   UNL     1      46.430   6.510  11.835  0.00  0.00    +0.000 A 
BRANCH  26  29
ATOM     29  C   UNL     1      44.332   3.478  10.782  0.00  0.00    +0.000 C 
BRANCH  29  30
ATOM     30  N   UNL     1      45.216   2.493  10.179  0.00  0.00    +0.000 NA
ATOM     31  H   UNL     1      45.363   1.733  10.833  0.00  0.00    +0.000 HD
BRANCH  30  32
ATOM     32  C   UNL     1      44.804   1.987   8.889  0.00  0.00    +0.000 C 
ATOM     33  C   UNL     1      44.689   3.137   7.889  0.00  0.00    +0.000 C 
ATOM     34  C   UNL     1      46.137   3.442   7.517  0.00  0.00    +0.000 C 
ATOM     35  C   UNL     1      46.870   2.128   7.760  0.00  0.00    +0.000 C 
ATOM     36  N   UNL     1      45.860   1.208   8.274  0.00  0.00    +0.000 NA
ATOM     37  H   UNL     1      46.246   0.509   8.897  0.00  0.00    +0.000 HD
ENDBRANCH  30  32
ENDBRANCH  29  30
ENDBRANCH  26  29
ENDBRANCH  22  23
ENDBRANCH   1  22
TORSDOF 11
ENDMDL
MODEL 9
REMARK VINA RESULT:    -6.203      2.745      3.768
REMARK INTER + INTRA:         -11.247
REMARK INTER:                 -10.210
REMARK INTRA:                  -1.037
REMARK UNBOUND:                -1.237
REMARK  Name = 
REMARK  11 active torsions:
REMARK  status: ('A' for Active; 'I' for Inactive)
REMARK    1  A    between atoms: N_1  and  C_2
REMARK    2  A    between atoms: C_2  and  C_3
REMARK    3  A    between atoms: C_3  and  N_4
REMARK    4  A    between atoms: N_4  and  C_5
REMARK    5  A    between atoms: C_5  and  C_6
REMARK    6  A    between atoms: C_5  and  C_20
REMARK    7  A    between atoms: C_6  and  C_7
REMARK    8  A    between atoms: C_10  and  C_11
REMARK    9  A    between atoms: C_11  and  N_12
REMARK   10  A    between atoms: N_12  and  C_13
REMARK   11  A    between atoms: C_20  and  C_22
REMARK                            x       y       z     vdW  Elec       q    Type
REMARK                         _______ _______ _______ _____ _____    ______ ____
ROOT
ATOM      1  C   UNL     1      49.085   6.306  16.254  0.00  0.00    +0.000 C 
ENDROOT
BRANCH   1   2
ATOM      2  N   UNL     1      47.874   6.209  17.110  0.00  0.00    +0.000 NA
ATOM      3  H   UNL     1      47.849   7.005  17.750  0.00  0.00    +0.000 HD
BRANCH   2   4
ATOM      4  C   UNL     1      47.663   4.963  17.845  0.00  0.00    +0.000 C 
BRANCH   4   5
ATOM      5  C   UNL     1      47.561   3.623  17.081  0.00  0.00    +0.000 C 
BRANCH   5   6
ATOM      6  N   UNL     1      46.636   2.727  17.785  0.00  0.00    +0.000 NA
ATOM      7  H   UNL     1      45.700   2.799  17.390  0.00  0.00    +0.000 HD
ATOM      8  H   UNL     1      46.559   3.018  18.760  0.00  0.00    +0.000 HD
ENDBRANCH   5   6
ENDBRANCH   4   5
ENDBRANCH   2   4
ENDBRANCH   1   2
BRANCH   1   9
ATOM      9  C   UNL     1      50.206   7.043  17.036  0.00  0.00    +0.000 C 
ATOM     10  O   UNL     1      49.913   7.937  17.840  0.00  0.00    +0.000 OA
BRANCH   9  11
ATOM     11  C   UNL     1      51.630   6.611  16.958  0.00  0.00    +0.000 A 
ATOM     12  C   UNL     1      52.109   5.701  17.898  0.00  0.00    +0.000 A 
ATOM     13  S   UNL     1      53.688   5.143  17.582  0.00  0.00    +0.000 S 
ATOM     14  C   UNL     1      53.797   6.098  16.183  0.00  0.00    +0.000 A 
ATOM     15  N   UNL     1      54.886   6.015  15.370  0.00  0.00    +0.000 NA
ATOM     16  C   UNL     1      54.805   6.732  14.302  0.00  0.00    +0.000 A 
ATOM     17  N   UNL     1      53.773   7.561  13.992  0.00  0.00    +0.000 N 
ATOM     18  C   UNL     1      52.765   7.829  14.889  0.00  0.00    +0.000 A 
ATOM     19  O   UNL     1      52.069   8.819  14.724  0.00  0.00    +0.000 OA
ATOM     20  C   UNL     1      52.685   6.909  16.009  0.00  0.00    +0.000 A 
ATOM     21  H   UNL     1      53.823   8.186  13.205  0.00  0.00    +0.000 HD
ENDBRANCH   9  11
ENDBRANCH   1   9
BRANCH   1  22
ATOM     22  C   UNL     1      48.922   6.887  14.819  0.00  0.00    +0.000 C 
BRANCH  22  23
ATOM     23  C   UNL     1      47.768   6.526  13.907  0.00  0.00    +0.000 A 
ATOM     24  C   UNL     1      47.237   5.223  13.980  0.00  0.00    +0.000 A 
ATOM     25  C   UNL     1      46.264   4.783  13.082  0.00  0.00    +0.000 A 
ATOM     26  C   UNL     1      45.731   5.662  12.136  0.00  0.00    +0.000 A 
ATOM     27  C   UNL     1      46.136   7.006  12.175  0.00  0.00    +0.000 A 
ATOM     28  C   UNL     1      47.158   7.429  13.039  0.00  0.00    +0.000 A 
BRANCH  26  29
ATOM     29  C   UNL     1      44.759   5.166  11.086  0.00  0.00    +0.000 C 
BRANCH  29  30
ATOM     30  N   UNL     1      45.162   3.858  10.592  0.00  0.00    +0.000 NA
ATOM     31  H   UNL     1      45.283   3.229  11.377  0.00  0.00    +0.000 HD
BRANCH  30  32
ATOM     32  C   UNL     1      44.298   3.272   9.592  0.00  0.00    +0.000 C 
ATOM     33  C   UNL     1      44.654   3.817   8.209  0.00  0.00    +0.000 C 
ATOM     34  C   UNL     1      45.920   3.055   7.833  0.00  0.00    +0.000 C 
ATOM     35  C   UNL     1      45.826   1.757   8.626  0.00  0.00    +0.000 C 
ATOM     36  N   UNL     1      44.597   1.866   9.406  0.00  0.00    +0.000 NA
ATOM     37  H   UNL     1      44.639   1.355  10.279  0.00  0.00    +0.000 HD
ENDBRANCH  30  32
ENDBRANCH  29  30
ENDBRANCH  26  29
ENDBRANCH  22  23
ENDBRANCH   1  22
TORSDOF 11
ENDMDL
