MODEL 1
REMARK VINA RESULT:    -7.148      0.000      0.000
REMARK INTER + INTRA:         -10.272
REMARK INTER:                  -9.237
REMARK INTRA:                  -1.035
REMARK UNBOUND:                -1.035
REMARK  Name = 
REMARK  6 active torsions:
REMARK  status: ('A' for Active; 'I' for Inactive)
REMARK    1  A    between atoms: C_1  and  C_2
REMARK    2  A    between atoms: C_4  and  C_5
REMARK    3  A    between atoms: C_5  and  N_6
REMARK    4  A    between atoms: C_7  and  C_9
REMARK    5  A    between atoms: C_21  and  C_22
REMARK    6  A    between atoms: C_22  and  N_23
REMARK                            x       y       z     vdW  Elec       q    Type
REMARK                         _______ _______ _______ _____ _____    ______ ____
ROOT
ATOM      1  N   UNL     1      47.504   7.279  14.546  0.00  0.00    +0.000 N 
ATOM      2  C   UNL     1      48.818   6.946  14.713  0.00  0.00    +0.000 C 
ATOM      3  O   UNL     1      49.593   6.843  13.766  0.00  0.00    +0.000 OA
ATOM      4  H   UNL     1      46.838   7.130  15.298  0.00  0.00    +0.000 HD
ENDROOT
BRANCH   2   5
ATOM      5  C   UNL     1      49.277   6.801  16.100  0.00  0.00    +0.000 A 
ATOM      6  C   UNL     1      50.254   7.656  16.589  0.00  0.00    +0.000 A 
ATOM      7  S   UNL     1      50.619   7.403  18.236  0.00  0.00    +0.000 S 
ATOM      8  C   UNL     1      49.513   6.119  18.341  0.00  0.00    +0.000 A 
ATOM      9  N   UNL     1      49.342   5.437  19.508  0.00  0.00    +0.000 NA
ATOM     10  C   UNL     1      48.489   4.470  19.443  0.00  0.00    +0.000 A 
ATOM     11  N   UNL     1      47.788   4.123  18.314  0.00  0.00    +0.000 N 
ATOM     12  C   UNL     1      47.908   4.795  17.121  0.00  0.00    +0.000 A 
ATOM     13  O   UNL     1      47.231   4.486  16.150  0.00  0.00    +0.000 OA
ATOM     14  C   UNL     1      48.865   5.886  17.139  0.00  0.00    +0.000 A 
ATOM     15  H   UNL     1      47.128   3.361  18.330  0.00  0.00    +0.000 HD
ENDBRANCH   2   5
BRANCH   1  16
ATOM     16  C   UNL     1      46.922   7.550  13.255  0.00  0.00    +0.000 C 
BRANCH  16  20
ATOM     17  C   UNL     1      42.769   6.092  11.362  0.00  0.00    +0.000 C 
ATOM     18  C   UNL     1      44.170   5.665  11.676  0.00  0.00    +0.000 A 
ATOM     19  N   UNL     1      44.923   6.669  12.196  0.00  0.00    +0.000 NA
ATOM     20  C   UNL     1      46.124   6.379  12.744  0.00  0.00    +0.000 A 
ATOM     21  C   UNL     1      46.583   5.078  12.859  0.00  0.00    +0.000 A 
ATOM     22  C   UNL     1      45.832   4.061  12.269  0.00  0.00    +0.000 A 
ATOM     23  C   UNL     1      44.617   4.340  11.617  0.00  0.00    +0.000 A 
BRANCH  23  24
ATOM     24  C   UNL     1      43.840   3.211  10.971  0.00  0.00    +0.000 C 
BRANCH  24  25
ATOM     25  N   UNL     1      43.949   3.003   9.521  0.00  0.00    +0.000 NA
ATOM     26  C   UNL     1      44.565   1.762   9.064  0.00  0.00    +0.000 C 
ATOM     27  C   UNL     1      45.953   2.163   8.603  0.00  0.00    +0.000 C 
ATOM     28  C   UNL     1      45.744   3.545   8.016  0.00  0.00    +0.000 C 
ATOM     29  C   UNL     1      44.507   4.092   8.721  0.00  0.00    +0.000 C 
ENDBRANCH  24  25
ENDBRANCH  23  24
ENDBRANCH  16  20
ENDBRANCH   1  16
TORSDOF 5
ENDMDL
MODEL 2
REMARK VINA RESULT:    -7.102      3.797      8.913
REMARK INTER + INTRA:         -10.213
REMARK INTER:                  -9.531
REMARK INTRA:                  -0.682
REMARK UNBOUND:                -1.035
REMARK  Name = 
REMARK  6 active torsions:
REMARK  status: ('A' for Active; 'I' for Inactive)
REMARK    1  A    between atoms: C_1  and  C_2
REMARK    2  A    between atoms: C_4  and  C_5
REMARK    3  A    between atoms: C_5  and  N_6
REMARK    4  A    between atoms: C_7  and  C_9
REMARK    5  A    between atoms: C_21  and  C_22
REMARK    6  A    between atoms: C_22  and  N_23
REMARK                            x       y       z     vdW  Elec       q    Type
REMARK                         _______ _______ _______ _____ _____    ______ ____
ROOT
ATOM      1  N   UNL     1      46.789   4.389  15.791  0.00  0.00    +0.000 N 
ATOM      2  C   UNL     1      46.819   4.146  14.447  0.00  0.00    +0.000 C 
ATOM      3  O   UNL     1      47.171   3.065  13.985  0.00  0.00    +0.000 OA
ATOM      4  H   UNL     1      46.725   5.341  16.139  0.00  0.00    +0.000 HD
ENDROOT
BRANCH   2   5
ATOM      5  C   UNL     1      46.321   5.225  13.585  0.00  0.00    +0.000 A 
ATOM      6  C   UNL     1      47.129   6.323  13.328  0.00  0.00    +0.000 A 
ATOM      7  S   UNL     1      46.432   7.447  12.251  0.00  0.00    +0.000 S 
ATOM      8  C   UNL     1      45.011   6.524  12.121  0.00  0.00    +0.000 A 
ATOM      9  N   UNL     1      43.975   6.943  11.342  0.00  0.00    +0.000 NA
ATOM     10  C   UNL     1      42.948   6.160  11.351  0.00  0.00    +0.000 A 
ATOM     11  N   UNL     1      42.864   4.993  12.071  0.00  0.00    +0.000 N 
ATOM     12  C   UNL     1      43.892   4.517  12.852  0.00  0.00    +0.000 A 
ATOM     13  O   UNL     1      43.796   3.448  13.440  0.00  0.00    +0.000 OA
ATOM     14  C   UNL     1      45.066   5.369  12.883  0.00  0.00    +0.000 A 
ATOM     15  H   UNL     1      42.036   4.419  12.030  0.00  0.00    +0.000 HD
ENDBRANCH   2   5
BRANCH   1  16
ATOM     16  C   UNL     1      47.153   3.399  16.774  0.00  0.00    +0.000 C 
BRANCH  16  20
ATOM     17  C   UNL     1      51.166   5.973  17.246  0.00  0.00    +0.000 C 
ATOM     18  C   UNL     1      50.587   4.601  17.397  0.00  0.00    +0.000 A 
ATOM     19  N   UNL     1      49.253   4.561  17.142  0.00  0.00    +0.000 NA
ATOM     20  C   UNL     1      48.640   3.363  17.007  0.00  0.00    +0.000 A 
ATOM     21  C   UNL     1      49.344   2.172  17.049  0.00  0.00    +0.000 A 
ATOM     22  C   UNL     1      50.700   2.219  17.371  0.00  0.00    +0.000 A 
ATOM     23  C   UNL     1      51.350   3.445  17.601  0.00  0.00    +0.000 A 
BRANCH  23  24
ATOM     24  C   UNL     1      52.820   3.455  17.968  0.00  0.00    +0.000 C 
BRANCH  24  25
ATOM     25  N   UNL     1      53.337   2.429  18.884  0.00  0.00    +0.000 NA
ATOM     26  C   UNL     1      54.100   2.885  20.041  0.00  0.00    +0.000 C 
ATOM     27  C   UNL     1      55.547   2.588  19.697  0.00  0.00    +0.000 C 
ATOM     28  C   UNL     1      55.461   1.302  18.897  0.00  0.00    +0.000 C 
ATOM     29  C   UNL     1      54.057   1.300  18.300  0.00  0.00    +0.000 C 
ENDBRANCH  24  25
ENDBRANCH  23  24
ENDBRANCH  16  20
ENDBRANCH   1  16
TORSDOF 5
ENDMDL
MODEL 3
REMARK VINA RESULT:    -6.928      3.196      4.441
REMARK INTER + INTRA:          -9.988
REMARK INTER:                  -8.944
REMARK INTRA:                  -1.044
REMARK UNBOUND:                -1.035
REMARK  Name = 
REMARK  6 active torsions:
REMARK  status: ('A' for Active; 'I' for Inactive)
REMARK    1  A    between atoms: C_1  and  C_2
REMARK    2  A    between atoms: C_4  and  C_5
REMARK    3  A    between atoms: C_5  and  N_6
REMARK    4  A    between atoms: C_7  and  C_9
REMARK    5  A    between atoms: C_21  and  C_22
REMARK    6  A    between atoms: C_22  and  N_23
REMARK                            x       y       z     vdW  Elec       q    Type
REMARK                         _______ _______ _______ _____ _____    ______ ____
ROOT
ATOM      1  N   UNL     1      50.713   5.884  16.931  0.00  0.00    +0.000 N 
ATOM      2  C   UNL     1      50.796   5.447  18.223  0.00  0.00    +0.000 C 
ATOM      3  O   UNL     1      50.000   5.803  19.087  0.00  0.00    +0.000 OA
ATOM      4  H   UNL     1      51.500   5.771  16.300  0.00  0.00    +0.000 HD
ENDROOT
BRANCH   2   5
ATOM      5  C   UNL     1      51.842   4.456  18.504  0.00  0.00    +0.000 A 
ATOM      6  C   UNL     1      52.941   4.819  19.268  0.00  0.00    +0.000 A 
ATOM      7  S   UNL     1      54.023   3.534  19.562  0.00  0.00    +0.000 S 
ATOM      8  C   UNL     1      53.081   2.458  18.646  0.00  0.00    +0.000 A 
ATOM      9  N   UNL     1      53.464   1.161  18.480  0.00  0.00    +0.000 NA
ATOM     10  C   UNL     1      52.670   0.459  17.742  0.00  0.00    +0.000 A 
ATOM     11  N   UNL     1      51.525   0.938  17.154  0.00  0.00    +0.000 N 
ATOM     12  C   UNL     1      51.085   2.232  17.312  0.00  0.00    +0.000 A 
ATOM     13  O   UNL     1      50.034   2.608  16.811  0.00  0.00    +0.000 OA
ATOM     14  C   UNL     1      51.951   3.065  18.126  0.00  0.00    +0.000 A 
ATOM     15  H   UNL     1      50.940   0.337  16.594  0.00  0.00    +0.000 HD
ENDBRANCH   2   5
BRANCH   1  16
ATOM     16  C   UNL     1      49.683   6.783  16.474  0.00  0.00    +0.000 C 
BRANCH  16  20
ATOM     17  C   UNL     1      47.418   6.674  12.254  0.00  0.00    +0.000 C 
ATOM     18  C   UNL     1      47.656   5.905  13.517  0.00  0.00    +0.000 A 
ATOM     19  N   UNL     1      48.529   6.525  14.354  0.00  0.00    +0.000 NA
ATOM     20  C   UNL     1      48.662   6.077  15.622  0.00  0.00    +0.000 A 
ATOM     21  C   UNL     1      47.882   5.048  16.120  0.00  0.00    +0.000 A 
ATOM     22  C   UNL     1      47.033   4.378  15.239  0.00  0.00    +0.000 A 
ATOM     23  C   UNL     1      46.934   4.767  13.890  0.00  0.00    +0.000 A 
BRANCH  23  24
ATOM     24  C   UNL     1      46.015   4.002  12.958  0.00  0.00    +0.000 C 
BRANCH  24  25
ATOM     25  N   UNL     1      44.562   4.086  13.155  0.00  0.00    +0.000 NA
ATOM     26  C   UNL     1      43.728   3.144  12.416  0.00  0.00    +0.000 C 
ATOM     27  C   UNL     1      43.116   3.961  11.294  0.00  0.00    +0.000 C 
ATOM     28  C   UNL     1      42.908   5.324  11.926  0.00  0.00    +0.000 C 
ATOM     29  C   UNL     1      43.939   5.403  13.047  0.00  0.00    +0.000 C 
ENDBRANCH  24  25
ENDBRANCH  23  24
ENDBRANCH  16  20
ENDBRANCH   1  16
TORSDOF 5
ENDMDL
MODEL 4
REMARK VINA RESULT:    -6.872      2.946      8.104
REMARK INTER + INTRA:          -9.916
REMARK INTER:                  -8.641
REMARK INTRA:                  -1.274
REMARK UNBOUND:                -1.035
REMARK  Name = 
REMARK  6 active torsions:
REMARK  status: ('A' for Active; 'I' for Inactive)
REMARK    1  A    between atoms: C_1  and  C_2
REMARK    2  A    between atoms: C_4  and  C_5
REMARK    3  A    between atoms: C_5  and  N_6
REMARK    4  A    between atoms: C_7  and  C_9
REMARK    5  A    between atoms: C_21  and  C_22
REMARK    6  A    between atoms: C_22  and  N_23
REMARK                            x       y       z     vdW  Elec       q    Type
REMARK                         _______ _______ _______ _____ _____    ______ ____
ROOT
ATOM      1  N   UNL     1      47.522   6.154  12.561  0.00  0.00    +0.000 N 
ATOM      2  C   UNL     1      46.453   6.599  11.834  0.00  0.00    +0.000 C 
ATOM      3  O   UNL     1      46.154   7.788  11.770  0.00  0.00    +0.000 OA
ATOM      4  H   UNL     1      47.611   5.169  12.791  0.00  0.00    +0.000 HD
ENDROOT
BRANCH   2   5
ATOM      5  C   UNL     1      45.731   5.582  11.060  0.00  0.00    +0.000 A 
ATOM      6  C   UNL     1      45.762   5.628   9.674  0.00  0.00    +0.000 A 
ATOM      7  S   UNL     1      44.937   4.335   8.929  0.00  0.00    +0.000 S 
ATOM      8  C   UNL     1      44.475   3.691  10.431  0.00  0.00    +0.000 A 
ATOM      9  N   UNL     1      43.718   2.561  10.505  0.00  0.00    +0.000 NA
ATOM     10  C   UNL     1      43.420   2.194  11.706  0.00  0.00    +0.000 A 
ATOM     11  N   UNL     1      43.811   2.857  12.844  0.00  0.00    +0.000 N 
ATOM     12  C   UNL     1      44.596   3.986  12.822  0.00  0.00    +0.000 A 
ATOM     13  O   UNL     1      44.964   4.520  13.859  0.00  0.00    +0.000 OA
ATOM     14  C   UNL     1      44.949   4.446  11.491  0.00  0.00    +0.000 A 
ATOM     15  H   UNL     1      43.553   2.514  13.757  0.00  0.00    +0.000 HD
ENDBRANCH   2   5
BRANCH   1  16
ATOM     16  C   UNL     1      48.389   7.038  13.298  0.00  0.00    +0.000 C 
BRANCH  16  20
ATOM     17  C   UNL     1      47.230   3.777  16.611  0.00  0.00    +0.000 C 
ATOM     18  C   UNL     1      48.106   4.961  16.336  0.00  0.00    +0.000 A 
ATOM     19  N   UNL     1      47.983   5.422  15.063  0.00  0.00    +0.000 NA
ATOM     20  C   UNL     1      48.525   6.617  14.737  0.00  0.00    +0.000 A 
ATOM     21  C   UNL     1      49.141   7.423  15.679  0.00  0.00    +0.000 A 
ATOM     22  C   UNL     1      49.317   6.916  16.966  0.00  0.00    +0.000 A 
ATOM     23  C   UNL     1      48.838   5.640  17.316  0.00  0.00    +0.000 A 
BRANCH  23  24
ATOM     24  C   UNL     1      49.065   5.115  18.719  0.00  0.00    +0.000 C 
BRANCH  24  25
ATOM     25  N   UNL     1      50.328   4.433  19.034  0.00  0.00    +0.000 NA
ATOM     26  C   UNL     1      51.342   5.195  19.754  0.00  0.00    +0.000 C 
ATOM     27  C   UNL     1      52.379   5.551  18.706  0.00  0.00    +0.000 C 
ATOM     28  C   UNL     1      52.383   4.342  17.791  0.00  0.00    +0.000 C 
ATOM     29  C   UNL     1      51.000   3.719  17.951  0.00  0.00    +0.000 C 
ENDBRANCH  24  25
ENDBRANCH  23  24
ENDBRANCH  16  20
ENDBRANCH   1  16
TORSDOF 5
ENDMDL
MODEL 5
REMARK VINA RESULT:    -6.869      2.864      8.212
REMARK INTER + INTRA:          -9.911
REMARK INTER:                  -8.742
REMARK INTRA:                  -1.169
REMARK UNBOUND:                -1.035
REMARK  Name = 
REMARK  6 active torsions:
REMARK  status: ('A' for Active; 'I' for Inactive)
REMARK    1  A    between atoms: C_1  and  C_2
REMARK    2  A    between atoms: C_4  and  C_5
REMARK    3  A    between atoms: C_5  and  N_6
REMARK    4  A    between atoms: C_7  and  C_9
REMARK    5  A    between atoms: C_21  and  C_22
REMARK    6  A    between atoms: C_22  and  N_23
REMARK                            x       y       z     vdW  Elec       q    Type
REMARK                         _______ _______ _______ _____ _____    ______ ____
ROOT
ATOM      1  N   UNL     1      47.599   6.202  12.561  0.00  0.00    +0.000 N 
ATOM      2  C   UNL     1      46.545   6.653  11.818  0.00  0.00    +0.000 C 
ATOM      3  O   UNL     1      46.271   7.847  11.728  0.00  0.00    +0.000 OA
ATOM      4  H   UNL     1      47.666   5.220  12.812  0.00  0.00    +0.000 HD
ENDROOT
BRANCH   2   5
ATOM      5  C   UNL     1      45.806   5.636  11.060  0.00  0.00    +0.000 A 
ATOM      6  C   UNL     1      45.867   5.638   9.674  0.00  0.00    +0.000 A 
ATOM      7  S   UNL     1      45.016   4.349   8.952  0.00  0.00    +0.000 S 
ATOM      8  C   UNL     1      44.504   3.767  10.463  0.00  0.00    +0.000 A 
ATOM      9  N   UNL     1      43.711   2.663  10.556  0.00  0.00    +0.000 NA
ATOM     10  C   UNL     1      43.377   2.343  11.761  0.00  0.00    +0.000 A 
ATOM     11  N   UNL     1      43.766   3.028  12.886  0.00  0.00    +0.000 N 
ATOM     12  C   UNL     1      44.586   4.132  12.845  0.00  0.00    +0.000 A 
ATOM     13  O   UNL     1      44.950   4.686  13.874  0.00  0.00    +0.000 OA
ATOM     14  C   UNL     1      44.981   4.539  11.510  0.00  0.00    +0.000 A 
ATOM     15  H   UNL     1      43.479   2.723  13.803  0.00  0.00    +0.000 HD
ENDBRANCH   2   5
BRANCH   1  16
ATOM     16  C   UNL     1      48.481   7.083  13.286  0.00  0.00    +0.000 C 
BRANCH  16  20
ATOM     17  C   UNL     1      47.176   3.981  16.696  0.00  0.00    +0.000 C 
ATOM     18  C   UNL     1      48.199   5.011  16.327  0.00  0.00    +0.000 A 
ATOM     19  N   UNL     1      48.012   5.515  15.079  0.00  0.00    +0.000 NA
ATOM     20  C   UNL     1      48.705   6.612  14.698  0.00  0.00    +0.000 A 
ATOM     21  C   UNL     1      49.548   7.284  15.566  0.00  0.00    +0.000 A 
ATOM     22  C   UNL     1      49.780   6.725  16.823  0.00  0.00    +0.000 A 
ATOM     23  C   UNL     1      49.139   5.537  17.219  0.00  0.00    +0.000 A 
BRANCH  23  24
ATOM     24  C   UNL     1      49.432   4.950  18.586  0.00  0.00    +0.000 C 
BRANCH  24  25
ATOM     25  N   UNL     1      48.852   5.583  19.778  0.00  0.00    +0.000 NA
ATOM     26  C   UNL     1      47.470   6.042  19.691  0.00  0.00    +0.000 C 
ATOM     27  C   UNL     1      47.567   7.550  19.555  0.00  0.00    +0.000 C 
ATOM     28  C   UNL     1      48.771   7.902  20.407  0.00  0.00    +0.000 C 
ATOM     29  C   UNL     1      49.626   6.640  20.427  0.00  0.00    +0.000 C 
ENDBRANCH  24  25
ENDBRANCH  23  24
ENDBRANCH  16  20
ENDBRANCH   1  16
TORSDOF 5
ENDMDL
MODEL 6
REMARK VINA RESULT:    -6.861      3.070      8.614
REMARK INTER + INTRA:          -9.901
REMARK INTER:                  -8.873
REMARK INTRA:                  -1.028
REMARK UNBOUND:                -1.035
REMARK  Name = 
REMARK  6 active torsions:
REMARK  status: ('A' for Active; 'I' for Inactive)
REMARK    1  A    between atoms: C_1  and  C_2
REMARK    2  A    between atoms: C_4  and  C_5
REMARK    3  A    between atoms: C_5  and  N_6
REMARK    4  A    between atoms: C_7  and  C_9
REMARK    5  A    between atoms: C_21  and  C_22
REMARK    6  A    between atoms: C_22  and  N_23
REMARK                            x       y       z     vdW  Elec       q    Type
REMARK                         _______ _______ _______ _____ _____    ______ ____
ROOT
ATOM      1  N   UNL     1      46.789   4.395  15.808  0.00  0.00    +0.000 N 
ATOM      2  C   UNL     1      46.835   4.169  14.461  0.00  0.00    +0.000 C 
ATOM      3  O   UNL     1      47.213   3.101  13.989  0.00  0.00    +0.000 OA
ATOM      4  H   UNL     1      46.704   5.342  16.166  0.00  0.00    +0.000 HD
ENDROOT
BRANCH   2   5
ATOM      5  C   UNL     1      46.324   5.248  13.608  0.00  0.00    +0.000 A 
ATOM      6  C   UNL     1      47.117   6.359  13.359  0.00  0.00    +0.000 A 
ATOM      7  S   UNL     1      46.405   7.481  12.291  0.00  0.00    +0.000 S 
ATOM      8  C   UNL     1      44.996   6.542  12.155  0.00  0.00    +0.000 A 
ATOM      9  N   UNL     1      43.954   6.953  11.380  0.00  0.00    +0.000 NA
ATOM     10  C   UNL     1      42.938   6.157  11.383  0.00  0.00    +0.000 A 
ATOM     11  N   UNL     1      42.869   4.984  12.094  0.00  0.00    +0.000 N 
ATOM     12  C   UNL     1      43.903   4.516  12.871  0.00  0.00    +0.000 A 
ATOM     13  O   UNL     1      43.821   3.441  13.451  0.00  0.00    +0.000 OA
ATOM     14  C   UNL     1      45.066   5.382  12.907  0.00  0.00    +0.000 A 
ATOM     15  H   UNL     1      42.048   4.400  12.050  0.00  0.00    +0.000 HD
ENDBRANCH   2   5
BRANCH   1  16
ATOM     16  C   UNL     1      47.165   3.401  16.782  0.00  0.00    +0.000 C 
BRANCH  16  20
ATOM     17  C   UNL     1      51.630   1.768  17.373  0.00  0.00    +0.000 C 
ATOM     18  C   UNL     1      50.754   2.973  17.529  0.00  0.00    +0.000 A 
ATOM     19  N   UNL     1      49.490   2.767  17.074  0.00  0.00    +0.000 NA
ATOM     20  C   UNL     1      48.528   3.673  17.361  0.00  0.00    +0.000 A 
ATOM     21  C   UNL     1      48.773   4.771  18.168  0.00  0.00    +0.000 A 
ATOM     22  C   UNL     1      50.085   5.006  18.580  0.00  0.00    +0.000 A 
ATOM     23  C   UNL     1      51.125   4.127  18.227  0.00  0.00    +0.000 A 
BRANCH  23  24
ATOM     24  C   UNL     1      52.541   4.427  18.677  0.00  0.00    +0.000 C 
BRANCH  24  25
ATOM     25  N   UNL     1      53.280   5.523  18.036  0.00  0.00    +0.000 NA
ATOM     26  C   UNL     1      53.502   6.733  18.820  0.00  0.00    +0.000 C 
ATOM     27  C   UNL     1      52.517   7.744  18.264  0.00  0.00    +0.000 C 
ATOM     28  C   UNL     1      52.465   7.409  16.787  0.00  0.00    +0.000 C 
ATOM     29  C   UNL     1      52.854   5.936  16.700  0.00  0.00    +0.000 C 
ENDBRANCH  24  25
ENDBRANCH  23  24
ENDBRANCH  16  20
ENDBRANCH   1  16
TORSDOF 5
ENDMDL
MODEL 7
REMARK VINA RESULT:    -6.159      2.955      8.480
REMARK INTER + INTRA:          -8.995
REMARK INTER:                  -7.889
REMARK INTRA:                  -1.105
REMARK UNBOUND:                -1.035
REMARK  Name = 
REMARK  6 active torsions:
REMARK  status: ('A' for Active; 'I' for Inactive)
REMARK    1  A    between atoms: C_1  and  C_2
REMARK    2  A    between atoms: C_4  and  C_5
REMARK    3  A    between atoms: C_5  and  N_6
REMARK    4  A    between atoms: C_7  and  C_9
REMARK    5  A    between atoms: C_21  and  C_22
REMARK    6  A    between atoms: C_22  and  N_23
REMARK                            x       y       z     vdW  Elec       q    Type
REMARK                         _______ _______ _______ _____ _____    ______ ____
ROOT
ATOM      1  N   UNL     1      46.420   6.601  12.295  0.00  0.00    +0.000 N 
ATOM      2  C   UNL     1      45.103   6.449  11.965  0.00  0.00    +0.000 C 
ATOM      3  O   UNL     1      44.322   7.396  11.938  0.00  0.00    +0.000 OA
ATOM      4  H   UNL     1      46.983   5.791  12.538  0.00  0.00    +0.000 HD
ENDROOT
BRANCH   2   5
ATOM      5  C   UNL     1      44.689   5.101  11.558  0.00  0.00    +0.000 A 
ATOM      6  C   UNL     1      43.923   4.331  12.421  0.00  0.00    +0.000 A 
ATOM      7  S   UNL     1      43.466   2.823  11.768  0.00  0.00    +0.000 S 
ATOM      8  C   UNL     1      44.308   3.131  10.325  0.00  0.00    +0.000 A 
ATOM      9  N   UNL     1      44.334   2.211   9.321  0.00  0.00    +0.000 NA
ATOM     10  C   UNL     1      45.028   2.562   8.290  0.00  0.00    +0.000 A 
ATOM     11  N   UNL     1      45.701   3.753   8.174  0.00  0.00    +0.000 N 
ATOM     12  C   UNL     1      45.686   4.723   9.149  0.00  0.00    +0.000 A 
ATOM     13  O   UNL     1      46.259   5.792   8.987  0.00  0.00    +0.000 OA
ATOM     14  C   UNL     1      44.926   4.370  10.334  0.00  0.00    +0.000 A 
ATOM     15  H   UNL     1      46.221   3.974   7.338  0.00  0.00    +0.000 HD
ENDBRANCH   2   5
BRANCH   1  16
ATOM     16  C   UNL     1      47.003   7.877  12.623  0.00  0.00    +0.000 C 
BRANCH  16  20
ATOM     17  C   UNL     1      48.805  10.348  16.311  0.00  0.00    +0.000 C 
ATOM     18  C   UNL     1      48.561   8.966  15.787  0.00  0.00    +0.000 A 
ATOM     19  N   UNL     1      47.890   8.962  14.606  0.00  0.00    +0.000 NA
ATOM     20  C   UNL     1      47.805   7.814  13.897  0.00  0.00    +0.000 A 
ATOM     21  C   UNL     1      48.444   6.655  14.301  0.00  0.00    +0.000 A 
ATOM     22  C   UNL     1      49.079   6.651  15.543  0.00  0.00    +0.000 A 
ATOM     23  C   UNL     1      49.113   7.807  16.344  0.00  0.00    +0.000 A 
BRANCH  23  24
ATOM     24  C   UNL     1      49.796   7.759  17.696  0.00  0.00    +0.000 C 
BRANCH  24  25
ATOM     25  N   UNL     1      49.080   7.181  18.841  0.00  0.00    +0.000 NA
ATOM     26  C   UNL     1      49.371   5.794  19.186  0.00  0.00    +0.000 C 
ATOM     27  C   UNL     1      48.176   5.008  18.684  0.00  0.00    +0.000 C 
ATOM     28  C   UNL     1      47.013   5.955  18.907  0.00  0.00    +0.000 C 
ATOM     29  C   UNL     1      47.629   7.350  18.887  0.00  0.00    +0.000 C 
ENDBRANCH  24  25
ENDBRANCH  23  24
ENDBRANCH  16  20
ENDBRANCH   1  16
TORSDOF 5
ENDMDL
MODEL 8
REMARK VINA RESULT:    -6.025      2.759      7.356
REMARK INTER + INTRA:          -8.821
REMARK INTER:                  -7.707
REMARK INTRA:                  -1.114
REMARK UNBOUND:                -1.035
REMARK  Name = 
REMARK  6 active torsions:
REMARK  status: ('A' for Active; 'I' for Inactive)
REMARK    1  A    between atoms: C_1  and  C_2
REMARK    2  A    between atoms: C_4  and  C_5
REMARK    3  A    between atoms: C_5  and  N_6
REMARK    4  A    between atoms: C_7  and  C_9
REMARK    5  A    between atoms: C_21  and  C_22
REMARK    6  A    between atoms: C_22  and  N_23
REMARK                            x       y       z     vdW  Elec       q    Type
REMARK                         _______ _______ _______ _____ _____    ______ ____
ROOT
ATOM      1  N   UNL     1      47.350   8.350  14.347  0.00  0.00    +0.000 N 
ATOM      2  C   UNL     1      47.490   7.554  13.246  0.00  0.00    +0.000 C 
ATOM      3  O   UNL     1      48.591   7.235  12.805  0.00  0.00    +0.000 OA
ATOM      4  H   UNL     1      46.457   8.788  14.552  0.00  0.00    +0.000 HD
ENDROOT
BRANCH   2   5
ATOM      5  C   UNL     1      46.249   7.026  12.667  0.00  0.00    +0.000 A 
ATOM      6  C   UNL     1      45.369   7.890  12.031  0.00  0.00    +0.000 A 
ATOM      7  S   UNL     1      44.015   7.107  11.351  0.00  0.00    +0.000 S 
ATOM      8  C   UNL     1      44.538   5.593  11.916  0.00  0.00    +0.000 A 
ATOM      9  N   UNL     1      43.805   4.468  11.681  0.00  0.00    +0.000 NA
ATOM     10  C   UNL     1      44.305   3.389  12.185  0.00  0.00    +0.000 A 
ATOM     11  N   UNL     1      45.473   3.333  12.906  0.00  0.00    +0.000 N 
ATOM     12  C   UNL     1      46.258   4.436  13.148  0.00  0.00    +0.000 A 
ATOM     13  O   UNL     1      47.317   4.337  13.753  0.00  0.00    +0.000 OA
ATOM     14  C   UNL     1      45.733   5.677  12.610  0.00  0.00    +0.000 A 
ATOM     15  H   UNL     1      45.816   2.456  13.267  0.00  0.00    +0.000 HD
ENDBRANCH   2   5
BRANCH   1  16
ATOM     16  C   UNL     1      48.472   8.869  15.087  0.00  0.00    +0.000 C 
BRANCH  16  20
ATOM     17  C   UNL     1      48.167   6.915  19.450  0.00  0.00    +0.000 C 
ATOM     18  C   UNL     1      48.807   6.770  18.104  0.00  0.00    +0.000 A 
ATOM     19  N   UNL     1      48.380   7.704  17.214  0.00  0.00    +0.000 NA
ATOM     20  C   UNL     1      49.034   7.849  16.041  0.00  0.00    +0.000 A 
ATOM     21  C   UNL     1      50.175   7.123  15.744  0.00  0.00    +0.000 A 
ATOM     22  C   UNL     1      50.571   6.125  16.635  0.00  0.00    +0.000 A 
ATOM     23  C   UNL     1      49.861   5.893  17.827  0.00  0.00    +0.000 A 
BRANCH  23  24
ATOM     24  C   UNL     1      50.311   4.787  18.761  0.00  0.00    +0.000 C 
BRANCH  24  25
ATOM     25  N   UNL     1      49.686   3.461  18.655  0.00  0.00    +0.000 NA
ATOM     26  C   UNL     1      49.958   2.684  17.451  0.00  0.00    +0.000 C 
ATOM     27  C   UNL     1      48.692   2.791  16.623  0.00  0.00    +0.000 C 
ATOM     28  C   UNL     1      47.591   2.818  17.666  0.00  0.00    +0.000 C 
ATOM     29  C   UNL     1      48.253   3.364  18.926  0.00  0.00    +0.000 C 
ENDBRANCH  24  25
ENDBRANCH  23  24
ENDBRANCH  16  20
ENDBRANCH   1  16
TORSDOF 5
ENDMDL
MODEL 9
REMARK VINA RESULT:    -5.939      3.177      8.538
REMARK INTER + INTRA:          -8.710
REMARK INTER:                  -7.547
REMARK INTRA:                  -1.163
REMARK UNBOUND:                -1.035
REMARK  Name = 
REMARK  6 active torsions:
REMARK  status: ('A' for Active; 'I' for Inactive)
REMARK    1  A    between atoms: C_1  and  C_2
REMARK    2  A    between atoms: C_4  and  C_5
REMARK    3  A    between atoms: C_5  and  N_6
REMARK    4  A    between atoms: C_7  and  C_9
REMARK    5  A    between atoms: C_21  and  C_22
REMARK    6  A    between atoms: C_22  and  N_23
REMARK                            x       y       z     vdW  Elec       q    Type
REMARK                         _______ _______ _______ _____ _____    ______ ____
ROOT
ATOM      1  N   UNL     1      46.780   4.564  15.449  0.00  0.00    +0.000 N 
ATOM      2  C   UNL     1      46.796   4.256  14.118  0.00  0.00    +0.000 C 
ATOM      3  O   UNL     1      47.390   3.275  13.680  0.00  0.00    +0.000 OA
ATOM      4  H   UNL     1      46.491   5.487  15.758  0.00  0.00    +0.000 HD
ENDROOT
BRANCH   2   5
ATOM      5  C   UNL     1      45.987   5.117  13.246  0.00  0.00    +0.000 A 
ATOM      6  C   UNL     1      44.914   4.574  12.554  0.00  0.00    +0.000 A 
ATOM      7  S   UNL     1      44.036   5.721  11.647  0.00  0.00    +0.000 S 
ATOM      8  C   UNL     1      45.082   6.975  12.117  0.00  0.00    +0.000 A 
ATOM      9  N   UNL     1      44.895   8.247  11.667  0.00  0.00    +0.000 NA
ATOM     10  C   UNL     1      45.774   9.096  12.082  0.00  0.00    +0.000 A 
ATOM     11  N   UNL     1      46.827   8.788  12.909  0.00  0.00    +0.000 N 
ATOM     12  C   UNL     1      47.043   7.525  13.408  0.00  0.00    +0.000 A 
ATOM     13  O   UNL     1      47.965   7.300  14.180  0.00  0.00    +0.000 OA
ATOM     14  C   UNL     1      46.086   6.530  12.961  0.00  0.00    +0.000 A 
ATOM     15  H   UNL     1      47.477   9.500  13.205  0.00  0.00    +0.000 HD
ENDBRANCH   2   5
BRANCH   1  16
ATOM     16  C   UNL     1      47.443   3.762  16.446  0.00  0.00    +0.000 C 
BRANCH  16  20
ATOM     17  C   UNL     1      51.992   3.259  17.864  0.00  0.00    +0.000 C 
ATOM     18  C   UNL     1      50.930   4.266  17.546  0.00  0.00    +0.000 A 
ATOM     19  N   UNL     1      49.781   3.697  17.098  0.00  0.00    +0.000 NA
ATOM     20  C   UNL     1      48.664   4.451  16.997  0.00  0.00    +0.000 A 
ATOM     21  C   UNL     1      48.634   5.773  17.405  0.00  0.00    +0.000 A 
ATOM     22  C   UNL     1      49.831   6.367  17.807  0.00  0.00    +0.000 A 
ATOM     23  C   UNL     1      51.029   5.630  17.843  0.00  0.00    +0.000 A 
BRANCH  23  24
ATOM     24  C   UNL     1      52.314   6.315  18.266  0.00  0.00    +0.000 C 
BRANCH  24  25
ATOM     25  N   UNL     1      53.307   6.669  17.243  0.00  0.00    +0.000 NA
ATOM     26  C   UNL     1      54.265   7.720  17.572  0.00  0.00    +0.000 C 
ATOM     27  C   UNL     1      53.785   8.939  16.809  0.00  0.00    +0.000 C 
ATOM     28  C   UNL     1      53.222   8.353  15.529  0.00  0.00    +0.000 C 
ATOM     29  C   UNL     1      52.823   6.925  15.888  0.00  0.00    +0.000 C 
ENDBRANCH  24  25
ENDBRANCH  23  24
ENDBRANCH  16  20
ENDBRANCH   1  16
TORSDOF 5
ENDMDL
