MODEL 1
REMARK VINA RESULT:    -8.478      0.000      0.000
REMARK INTER + INTRA:         -13.199
REMARK INTER:                 -11.947
REMARK INTRA:                  -1.252
REMARK UNBOUND:                -1.252
REMARK  Name = 
REMARK  8 active torsions:
REMARK  status: ('A' for Active; 'I' for Inactive)
REMARK    1  A    between atoms: C_1  and  C_2
REMARK    2  A    between atoms: C_2  and  N_3
REMARK    3  A    between atoms: C_2  and  C_25
REMARK    4  A    between atoms: N_3  and  C_4
REMARK    5  A    between atoms: C_4  and  C_5
REMARK    6  A    between atoms: C_8  and  C_9
REMARK    7  A    between atoms: C_9  and  N_10
REMARK    8  A    between atoms: C_11  and  C_13
REMARK                            x       y       z     vdW  Elec       q    Type
REMARK                         _______ _______ _______ _____ _____    ______ ____
ROOT
ATOM      1  C   UNL     1      44.503   5.317  11.011  0.00  0.00    +0.000 A 
ATOM      2  C   UNL     1      45.668   5.779  10.401  0.00  0.00    +0.000 A 
ATOM      3  C   UNL     1      46.481   6.678  11.091  0.00  0.00    +0.000 A 
ATOM      4  C   UNL     1      46.123   7.096  12.374  0.00  0.00    +0.000 A 
ATOM      5  C   UNL     1      44.931   6.606  12.891  0.00  0.00    +0.000 A 
ATOM      6  N   UNL     1      44.130   5.727  12.250  0.00  0.00    +0.000 NA
ENDROOT
BRANCH   1   7
ATOM      7  C   UNL     1      43.632   4.275  10.327  0.00  0.00    +0.000 C 
BRANCH   7   8
ATOM      8  N   UNL     1      44.191   3.811   9.055  0.00  0.00    +0.000 NA
ATOM      9  H   UNL     1      44.754   4.550   8.641  0.00  0.00    +0.000 HD
BRANCH   8  11
ATOM     10  C   UNL     1      44.130   1.312   9.217  0.00  0.00    +0.000 C 
ATOM     11  C   UNL     1      44.989   2.585   9.160  0.00  0.00    +0.000 C 
BRANCH  11  12
ATOM     12  C   UNL     1      45.952   2.502   7.981  0.00  0.00    +0.000 A 
ATOM     13  C   UNL     1      46.743   1.360   7.785  0.00  0.00    +0.000 A 
ATOM     14  C   UNL     1      47.605   1.272   6.688  0.00  0.00    +0.000 A 
ATOM     15  C   UNL     1      47.688   2.323   5.775  0.00  0.00    +0.000 A 
ATOM     16  C   UNL     1      46.917   3.467   5.962  0.00  0.00    +0.000 A 
ATOM     17  C   UNL     1      46.060   3.559   7.060  0.00  0.00    +0.000 A 
ENDBRANCH  11  12
ENDBRANCH   8  11
ENDBRANCH   7   8
ENDBRANCH   1   7
BRANCH   4  18
ATOM     18  C   UNL     1      46.964   8.049  13.167  0.00  0.00    +0.000 C 
BRANCH  18  19
ATOM     19  N   UNL     1      47.389   7.470  14.417  0.00  0.00    +0.000 N 
ATOM     20  C   UNL     1      48.593   6.821  14.513  0.00  0.00    +0.000 C 
ATOM     21  O   UNL     1      49.367   6.746  13.562  0.00  0.00    +0.000 OA
ATOM     22  H   UNL     1      46.683   7.321  15.132  0.00  0.00    +0.000 HD
BRANCH  20  23
ATOM     23  C   UNL     1      48.944   6.270  15.827  0.00  0.00    +0.000 A 
ATOM     24  C   UNL     1      49.962   6.858  16.566  0.00  0.00    +0.000 A 
ATOM     25  S   UNL     1      50.225   6.121  18.081  0.00  0.00    +0.000 S 
ATOM     26  C   UNL     1      49.019   4.957  17.783  0.00  0.00    +0.000 A 
ATOM     27  N   UNL     1      48.754   3.980  18.689  0.00  0.00    +0.000 NA
ATOM     28  C   UNL     1      47.838   3.146  18.322  0.00  0.00    +0.000 A 
ATOM     29  N   UNL     1      47.156   3.209  17.133  0.00  0.00    +0.000 N 
ATOM     30  C   UNL     1      47.366   4.200  16.205  0.00  0.00    +0.000 A 
ATOM     31  O   UNL     1      46.698   4.267  15.175  0.00  0.00    +0.000 OA
ATOM     32  C   UNL     1      48.404   5.147  16.557  0.00  0.00    +0.000 A 
ATOM     33  H   UNL     1      46.439   2.534  16.913  0.00  0.00    +0.000 HD
ENDBRANCH  20  23
ENDBRANCH  18  19
ENDBRANCH   4  18
TORSDOF 7
ENDMDL
MODEL 2
REMARK VINA RESULT:    -8.350      1.839      2.171
REMARK INTER + INTRA:         -13.019
REMARK INTER:                 -12.272
REMARK INTRA:                  -0.747
REMARK UNBOUND:                -1.252
REMARK  Name = 
REMARK  8 active torsions:
REMARK  status: ('A' for Active; 'I' for Inactive)
REMARK    1  A    between atoms: C_1  and  C_2
REMARK    2  A    between atoms: C_2  and  N_3
REMARK    3  A    between atoms: C_2  and  C_25
REMARK    4  A    between atoms: N_3  and  C_4
REMARK    5  A    between atoms: C_4  and  C_5
REMARK    6  A    between atoms: C_8  and  C_9
REMARK    7  A    between atoms: C_9  and  N_10
REMARK    8  A    between atoms: C_11  and  C_13
REMARK                            x       y       z     vdW  Elec       q    Type
REMARK                         _______ _______ _______ _____ _____    ______ ____
ROOT
ATOM      1  C   UNL     1      45.401   4.304  12.275  0.00  0.00    +0.000 A 
ATOM      2  C   UNL     1      45.714   5.513  11.657  0.00  0.00    +0.000 A 
ATOM      3  C   UNL     1      46.716   6.312  12.206  0.00  0.00    +0.000 A 
ATOM      4  C   UNL     1      47.389   5.892  13.356  0.00  0.00    +0.000 A 
ATOM      5  C   UNL     1      46.990   4.687  13.919  0.00  0.00    +0.000 A 
ATOM      6  N   UNL     1      46.031   3.888  13.402  0.00  0.00    +0.000 NA
ENDROOT
BRANCH   1   7
ATOM      7  C   UNL     1      44.373   3.366  11.661  0.00  0.00    +0.000 C 
BRANCH   7   8
ATOM      8  N   UNL     1      44.934   2.510  10.613  0.00  0.00    +0.000 NA
ATOM      9  H   UNL     1      44.737   1.536  10.827  0.00  0.00    +0.000 HD
BRANCH   8  11
ATOM     10  C   UNL     1      43.973   4.274   9.117  0.00  0.00    +0.000 C 
ATOM     11  C   UNL     1      44.457   2.823   9.262  0.00  0.00    +0.000 C 
BRANCH  11  12
ATOM     12  C   UNL     1      45.567   2.550   8.254  0.00  0.00    +0.000 A 
ATOM     13  C   UNL     1      46.210   1.303   8.220  0.00  0.00    +0.000 A 
ATOM     14  C   UNL     1      47.209   1.044   7.277  0.00  0.00    +0.000 A 
ATOM     15  C   UNL     1      47.578   2.025   6.358  0.00  0.00    +0.000 A 
ATOM     16  C   UNL     1      46.956   3.270   6.385  0.00  0.00    +0.000 A 
ATOM     17  C   UNL     1      45.962   3.533   7.330  0.00  0.00    +0.000 A 
ENDBRANCH  11  12
ENDBRANCH   8  11
ENDBRANCH   7   8
ENDBRANCH   1   7
BRANCH   4  18
ATOM     18  C   UNL     1      48.483   6.702  13.982  0.00  0.00    +0.000 C 
BRANCH  18  19
ATOM     19  N   UNL     1      48.316   6.809  15.410  0.00  0.00    +0.000 N 
ATOM     20  C   UNL     1      49.391   6.679  16.251  0.00  0.00    +0.000 C 
ATOM     21  O   UNL     1      50.531   6.514  15.824  0.00  0.00    +0.000 OA
ATOM     22  H   UNL     1      47.375   6.714  15.783  0.00  0.00    +0.000 HD
BRANCH  20  23
ATOM     23  C   UNL     1      49.125   6.810  17.688  0.00  0.00    +0.000 A 
ATOM     24  C   UNL     1      49.083   8.072  18.265  0.00  0.00    +0.000 A 
ATOM     25  S   UNL     1      48.733   8.054  19.933  0.00  0.00    +0.000 S 
ATOM     26  C   UNL     1      48.674   6.353  19.956  0.00  0.00    +0.000 A 
ATOM     27  N   UNL     1      48.445   5.678  21.113  0.00  0.00    +0.000 NA
ATOM     28  C   UNL     1      48.457   4.392  20.992  0.00  0.00    +0.000 A 
ATOM     29  N   UNL     1      48.667   3.721  19.815  0.00  0.00    +0.000 N 
ATOM     30  C   UNL     1      48.865   4.362  18.616  0.00  0.00    +0.000 A 
ATOM     31  O   UNL     1      48.991   3.736  17.566  0.00  0.00    +0.000 OA
ATOM     32  C   UNL     1      48.888   5.808  18.701  0.00  0.00    +0.000 A 
ATOM     33  H   UNL     1      48.647   2.712  19.785  0.00  0.00    +0.000 HD
ENDBRANCH  20  23
ENDBRANCH  18  19
ENDBRANCH   4  18
TORSDOF 7
ENDMDL
MODEL 3
REMARK VINA RESULT:    -7.766      2.134      2.596
REMARK INTER + INTRA:         -12.196
REMARK INTER:                 -11.048
REMARK INTRA:                  -1.148
REMARK UNBOUND:                -1.252
REMARK  Name = 
REMARK  8 active torsions:
REMARK  status: ('A' for Active; 'I' for Inactive)
REMARK    1  A    between atoms: C_1  and  C_2
REMARK    2  A    between atoms: C_2  and  N_3
REMARK    3  A    between atoms: C_2  and  C_25
REMARK    4  A    between atoms: N_3  and  C_4
REMARK    5  A    between atoms: C_4  and  C_5
REMARK    6  A    between atoms: C_8  and  C_9
REMARK    7  A    between atoms: C_9  and  N_10
REMARK    8  A    between atoms: C_11  and  C_13
REMARK                            x       y       z     vdW  Elec       q    Type
REMARK                         _______ _______ _______ _____ _____    ______ ____
ROOT
ATOM      1  C   UNL     1      44.944   5.145  11.346  0.00  0.00    +0.000 A 
ATOM      2  C   UNL     1      45.169   4.664  12.635  0.00  0.00    +0.000 A 
ATOM      3  C   UNL     1      46.168   5.253  13.411  0.00  0.00    +0.000 A 
ATOM      4  C   UNL     1      46.919   6.310  12.892  0.00  0.00    +0.000 A 
ATOM      5  C   UNL     1      46.644   6.704  11.589  0.00  0.00    +0.000 A 
ATOM      6  N   UNL     1      45.676   6.159  10.820  0.00  0.00    +0.000 NA
ENDROOT
BRANCH   1   7
ATOM      7  C   UNL     1      43.812   4.586  10.499  0.00  0.00    +0.000 C 
BRANCH   7   8
ATOM      8  N   UNL     1      44.270   4.050   9.215  0.00  0.00    +0.000 NA
ATOM      9  H   UNL     1      44.851   4.741   8.746  0.00  0.00    +0.000 HD
BRANCH   8  11
ATOM     10  C   UNL     1      44.075   1.563   9.432  0.00  0.00    +0.000 C 
ATOM     11  C   UNL     1      45.002   2.783   9.319  0.00  0.00    +0.000 C 
BRANCH  11  12
ATOM     12  C   UNL     1      45.917   2.623   8.111  0.00  0.00    +0.000 A 
ATOM     13  C   UNL     1      46.620   1.426   7.902  0.00  0.00    +0.000 A 
ATOM     14  C   UNL     1      47.437   1.270   6.779  0.00  0.00    +0.000 A 
ATOM     15  C   UNL     1      47.563   2.304   5.852  0.00  0.00    +0.000 A 
ATOM     16  C   UNL     1      46.880   3.501   6.051  0.00  0.00    +0.000 A 
ATOM     17  C   UNL     1      46.068   3.662   7.176  0.00  0.00    +0.000 A 
ENDBRANCH  11  12
ENDBRANCH   8  11
ENDBRANCH   7   8
ENDBRANCH   1   7
BRANCH   4  18
ATOM     18  C   UNL     1      47.994   6.989  13.684  0.00  0.00    +0.000 C 
BRANCH  18  19
ATOM     19  N   UNL     1      47.853   6.740  15.097  0.00  0.00    +0.000 N 
ATOM     20  C   UNL     1      48.949   6.444  15.867  0.00  0.00    +0.000 C 
ATOM     21  O   UNL     1      50.084   6.425  15.398  0.00  0.00    +0.000 OA
ATOM     22  H   UNL     1      46.923   6.527  15.448  0.00  0.00    +0.000 HD
BRANCH  20  23
ATOM     23  C   UNL     1      48.709   6.212  17.296  0.00  0.00    +0.000 A 
ATOM     24  C   UNL     1      48.929   4.951  17.832  0.00  0.00    +0.000 A 
ATOM     25  S   UNL     1      48.634   4.855  19.507  0.00  0.00    +0.000 S 
ATOM     26  C   UNL     1      48.152   6.486  19.570  0.00  0.00    +0.000 A 
ATOM     27  N   UNL     1      47.731   7.046  20.734  0.00  0.00    +0.000 NA
ATOM     28  C   UNL     1      47.366   8.281  20.632  0.00  0.00    +0.000 A 
ATOM     29  N   UNL     1      47.396   9.010  19.470  0.00  0.00    +0.000 N 
ATOM     30  C   UNL     1      47.849   8.496  18.279  0.00  0.00    +0.000 A 
ATOM     31  O   UNL     1      47.921   9.189  17.267  0.00  0.00    +0.000 OA
ATOM     32  C   UNL     1      48.245   7.103  18.333  0.00  0.00    +0.000 A 
ATOM     33  H   UNL     1      47.112   9.979  19.460  0.00  0.00    +0.000 HD
ENDBRANCH  20  23
ENDBRANCH  18  19
ENDBRANCH   4  18
TORSDOF 7
ENDMDL
MODEL 4
REMARK VINA RESULT:    -7.613      3.019      4.386
REMARK INTER + INTRA:         -11.981
REMARK INTER:                 -10.849
REMARK INTRA:                  -1.132
REMARK UNBOUND:                -1.252
REMARK  Name = 
REMARK  8 active torsions:
REMARK  status: ('A' for Active; 'I' for Inactive)
REMARK    1  A    between atoms: C_1  and  C_2
REMARK    2  A    between atoms: C_2  and  N_3
REMARK    3  A    between atoms: C_2  and  C_25
REMARK    4  A    between atoms: N_3  and  C_4
REMARK    5  A    between atoms: C_4  and  C_5
REMARK    6  A    between atoms: C_8  and  C_9
REMARK    7  A    between atoms: C_9  and  N_10
REMARK    8  A    between atoms: C_11  and  C_13
REMARK                            x       y       z     vdW  Elec       q    Type
REMARK                         _______ _______ _______ _____ _____    ______ ____
ROOT
ATOM      1  C   UNL     1      46.794   4.572  14.097  0.00  0.00    +0.000 A 
ATOM      2  C   UNL     1      47.501   5.751  13.866  0.00  0.00    +0.000 A 
ATOM      3  C   UNL     1      48.237   6.313  14.909  0.00  0.00    +0.000 A 
ATOM      4  C   UNL     1      48.258   5.691  16.159  0.00  0.00    +0.000 A 
ATOM      5  C   UNL     1      47.500   4.536  16.305  0.00  0.00    +0.000 A 
ATOM      6  N   UNL     1      46.789   3.964  15.310  0.00  0.00    +0.000 NA
ENDROOT
BRANCH   1   7
ATOM      7  C   UNL     1      46.048   3.884  12.965  0.00  0.00    +0.000 C 
BRANCH   7   8
ATOM      8  N   UNL     1      44.602   4.114  13.012  0.00  0.00    +0.000 NA
ATOM      9  H   UNL     1      44.363   4.605  13.870  0.00  0.00    +0.000 HD
BRANCH   8  11
ATOM     10  C   UNL     1      44.485   6.331  11.854  0.00  0.00    +0.000 C 
ATOM     11  C   UNL     1      44.073   4.851  11.860  0.00  0.00    +0.000 C 
BRANCH  11  12
ATOM     12  C   UNL     1      44.538   4.184  10.571  0.00  0.00    +0.000 A 
ATOM     13  C   UNL     1      44.235   2.838  10.314  0.00  0.00    +0.000 A 
ATOM     14  C   UNL     1      44.638   2.234   9.120  0.00  0.00    +0.000 A 
ATOM     15  C   UNL     1      45.348   2.965   8.169  0.00  0.00    +0.000 A 
ATOM     16  C   UNL     1      45.666   4.298   8.413  0.00  0.00    +0.000 A 
ATOM     17  C   UNL     1      45.270   4.901   9.609  0.00  0.00    +0.000 A 
ENDBRANCH  11  12
ENDBRANCH   8  11
ENDBRANCH   7   8
ENDBRANCH   1   7
BRANCH   4  18
ATOM     18  C   UNL     1      49.040   6.242  17.312  0.00  0.00    +0.000 C 
BRANCH  18  19
ATOM     19  N   UNL     1      50.047   5.314  17.763  0.00  0.00    +0.000 N 
ATOM     20  C   UNL     1      51.338   5.409  17.311  0.00  0.00    +0.000 C 
ATOM     21  O   UNL     1      51.694   6.304  16.549  0.00  0.00    +0.000 OA
ATOM     22  H   UNL     1      49.732   4.451  18.198  0.00  0.00    +0.000 HD
BRANCH  20  23
ATOM     23  C   UNL     1      52.295   4.426  17.832  0.00  0.00    +0.000 A 
ATOM     24  C   UNL     1      53.463   4.863  18.442  0.00  0.00    +0.000 A 
ATOM     25  S   UNL     1      54.450   3.599  19.019  0.00  0.00    +0.000 S 
ATOM     26  C   UNL     1      53.375   2.418  18.431  0.00  0.00    +0.000 A 
ATOM     27  N   UNL     1      53.649   1.094  18.568  0.00  0.00    +0.000 NA
ATOM     28  C   UNL     1      52.763   0.310  18.050  0.00  0.00    +0.000 A 
ATOM     29  N   UNL     1      51.622   0.731  17.416  0.00  0.00    +0.000 N 
ATOM     30  C   UNL     1      51.287   2.058  17.288  0.00  0.00    +0.000 A 
ATOM     31  O   UNL     1      50.229   2.405  16.768  0.00  0.00    +0.000 OA
ATOM     32  C   UNL     1      52.262   2.982  17.829  0.00  0.00    +0.000 A 
ATOM     33  H   UNL     1      50.960   0.065  17.046  0.00  0.00    +0.000 HD
ENDBRANCH  20  23
ENDBRANCH  18  19
ENDBRANCH   4  18
TORSDOF 7
ENDMDL
MODEL 5
REMARK VINA RESULT:    -7.262      2.957      8.506
REMARK INTER + INTRA:         -11.487
REMARK INTER:                 -10.054
REMARK INTRA:                  -1.433
REMARK UNBOUND:                -1.252
REMARK  Name = 
REMARK  8 active torsions:
REMARK  status: ('A' for Active; 'I' for Inactive)
REMARK    1  A    between atoms: C_1  and  C_2
REMARK    2  A    between atoms: C_2  and  N_3
REMARK    3  A    between atoms: C_2  and  C_25
REMARK    4  A    between atoms: N_3  and  C_4
REMARK    5  A    between atoms: C_4  and  C_5
REMARK    6  A    between atoms: C_8  and  C_9
REMARK    7  A    between atoms: C_9  and  N_10
REMARK    8  A    between atoms: C_11  and  C_13
REMARK                            x       y       z     vdW  Elec       q    Type
REMARK                         _______ _______ _______ _____ _____    ______ ____
ROOT
ATOM      1  C   UNL     1      48.916   7.818  15.946  0.00  0.00    +0.000 A 
ATOM      2  C   UNL     1      48.345   8.979  15.428  0.00  0.00    +0.000 A 
ATOM      3  C   UNL     1      47.869   8.970  14.117  0.00  0.00    +0.000 A 
ATOM      4  C   UNL     1      47.968   7.808  13.349  0.00  0.00    +0.000 A 
ATOM      5  C   UNL     1      48.578   6.709  13.939  0.00  0.00    +0.000 A 
ATOM      6  N   UNL     1      49.036   6.686  15.209  0.00  0.00    +0.000 NA
ENDROOT
BRANCH   1   7
ATOM      7  C   UNL     1      49.371   7.762  17.396  0.00  0.00    +0.000 C 
BRANCH   7   8
ATOM      8  N   UNL     1      48.325   7.285  18.304  0.00  0.00    +0.000 NA
ATOM      9  H   UNL     1      47.496   7.039  17.769  0.00  0.00    +0.000 HD
BRANCH   8  11
ATOM     10  C   UNL     1      47.846   5.976  20.385  0.00  0.00    +0.000 C 
ATOM     11  C   UNL     1      48.727   6.147  19.138  0.00  0.00    +0.000 C 
BRANCH  11  12
ATOM     12  C   UNL     1      48.692   4.870  18.307  0.00  0.00    +0.000 A 
ATOM     13  C   UNL     1      49.840   4.075  18.170  0.00  0.00    +0.000 A 
ATOM     14  C   UNL     1      49.800   2.889  17.431  0.00  0.00    +0.000 A 
ATOM     15  C   UNL     1      48.615   2.483  16.819  0.00  0.00    +0.000 A 
ATOM     16  C   UNL     1      47.470   3.266  16.937  0.00  0.00    +0.000 A 
ATOM     17  C   UNL     1      47.509   4.454  17.669  0.00  0.00    +0.000 A 
ENDBRANCH  11  12
ENDBRANCH   8  11
ENDBRANCH   7   8
ENDBRANCH   1   7
BRANCH   4  18
ATOM     18  C   UNL     1      47.462   7.736  11.941  0.00  0.00    +0.000 C 
BRANCH  18  19
ATOM     19  N   UNL     1      46.809   6.479  11.673  0.00  0.00    +0.000 N 
ATOM     20  C   UNL     1      45.441   6.383  11.699  0.00  0.00    +0.000 C 
ATOM     21  O   UNL     1      44.726   7.361  11.904  0.00  0.00    +0.000 OA
ATOM     22  H   UNL     1      47.370   5.634  11.731  0.00  0.00    +0.000 HD
BRANCH  20  23
ATOM     23  C   UNL     1      44.866   5.065  11.407  0.00  0.00    +0.000 A 
ATOM     24  C   UNL     1      44.144   4.400  12.389  0.00  0.00    +0.000 A 
ATOM     25  S   UNL     1      43.517   2.898  11.882  0.00  0.00    +0.000 S 
ATOM     26  C   UNL     1      44.231   3.059  10.345  0.00  0.00    +0.000 A 
ATOM     27  N   UNL     1      44.108   2.078   9.413  0.00  0.00    +0.000 NA
ATOM     28  C   UNL     1      44.724   2.317   8.303  0.00  0.00    +0.000 A 
ATOM     29  N   UNL     1      45.444   3.454   8.038  0.00  0.00    +0.000 N 
ATOM     30  C   UNL     1      45.563   4.487   8.938  0.00  0.00    +0.000 A 
ATOM     31  O   UNL     1      46.164   5.520   8.652  0.00  0.00    +0.000 OA
ATOM     32  C   UNL     1      44.912   4.257  10.211  0.00  0.00    +0.000 A 
ATOM     33  H   UNL     1      45.889   3.587   7.142  0.00  0.00    +0.000 HD
ENDBRANCH  20  23
ENDBRANCH  18  19
ENDBRANCH   4  18
TORSDOF 7
ENDMDL
MODEL 6
REMARK VINA RESULT:    -6.903      4.562      9.514
REMARK INTER + INTRA:         -10.981
REMARK INTER:                 -10.016
REMARK INTRA:                  -0.965
REMARK UNBOUND:                -1.252
REMARK  Name = 
REMARK  8 active torsions:
REMARK  status: ('A' for Active; 'I' for Inactive)
REMARK    1  A    between atoms: C_1  and  C_2
REMARK    2  A    between atoms: C_2  and  N_3
REMARK    3  A    between atoms: C_2  and  C_25
REMARK    4  A    between atoms: N_3  and  C_4
REMARK    5  A    between atoms: C_4  and  C_5
REMARK    6  A    between atoms: C_8  and  C_9
REMARK    7  A    between atoms: C_9  and  N_10
REMARK    8  A    between atoms: C_11  and  C_13
REMARK                            x       y       z     vdW  Elec       q    Type
REMARK                         _______ _______ _______ _____ _____    ______ ____
ROOT
ATOM      1  C   UNL     1      51.303   3.412  17.898  0.00  0.00    +0.000 A 
ATOM      2  C   UNL     1      50.779   2.265  17.304  0.00  0.00    +0.000 A 
ATOM      3  C   UNL     1      49.423   2.230  16.981  0.00  0.00    +0.000 A 
ATOM      4  C   UNL     1      48.615   3.336  17.251  0.00  0.00    +0.000 A 
ATOM      5  C   UNL     1      49.216   4.423  17.871  0.00  0.00    +0.000 A 
ATOM      6  N   UNL     1      50.529   4.489  18.185  0.00  0.00    +0.000 NA
ENDROOT
BRANCH   1   7
ATOM      7  C   UNL     1      52.791   3.521  18.190  0.00  0.00    +0.000 C 
BRANCH   7   8
ATOM      8  N   UNL     1      53.259   2.521  19.153  0.00  0.00    +0.000 NA
ATOM      9  H   UNL     1      52.724   1.663  19.039  0.00  0.00    +0.000 HD
BRANCH   8  11
ATOM     10  C   UNL     1      55.301   1.783  20.401  0.00  0.00    +0.000 C 
ATOM     11  C   UNL     1      54.691   2.222  19.060  0.00  0.00    +0.000 C 
BRANCH  11  12
ATOM     12  C   UNL     1      54.919   1.137  18.014  0.00  0.00    +0.000 A 
ATOM     13  C   UNL     1      54.597  -0.201  18.291  0.00  0.00    +0.000 A 
ATOM     14  C   UNL     1      54.779  -1.191  17.322  0.00  0.00    +0.000 A 
ATOM     15  C   UNL     1      55.285  -0.859  16.066  0.00  0.00    +0.000 A 
ATOM     16  C   UNL     1      55.619   0.462  15.779  0.00  0.00    +0.000 A 
ATOM     17  C   UNL     1      55.443   1.452  16.748  0.00  0.00    +0.000 A 
ENDBRANCH  11  12
ENDBRANCH   8  11
ENDBRANCH   7   8
ENDBRANCH   1   7
BRANCH   4  18
ATOM     18  C   UNL     1      47.156   3.360  16.914  0.00  0.00    +0.000 C 
BRANCH  18  19
ATOM     19  N   UNL     1      46.850   4.384  15.947  0.00  0.00    +0.000 N 
ATOM     20  C   UNL     1      46.968   4.135  14.603  0.00  0.00    +0.000 C 
ATOM     21  O   UNL     1      47.291   3.030  14.176  0.00  0.00    +0.000 OA
ATOM     22  H   UNL     1      46.808   5.346  16.275  0.00  0.00    +0.000 HD
BRANCH  20  23
ATOM     23  C   UNL     1      46.628   5.236  13.695  0.00  0.00    +0.000 A 
ATOM     24  C   UNL     1      47.551   6.248  13.469  0.00  0.00    +0.000 A 
ATOM     25  S   UNL     1      47.016   7.433  12.367  0.00  0.00    +0.000 S 
ATOM     26  C   UNL     1      45.508   6.663  12.189  0.00  0.00    +0.000 A 
ATOM     27  N   UNL     1      44.544   7.193  11.392  0.00  0.00    +0.000 NA
ATOM     28  C   UNL     1      43.440   6.522  11.373  0.00  0.00    +0.000 A 
ATOM     29  N   UNL     1      43.218   5.363  12.072  0.00  0.00    +0.000 N 
ATOM     30  C   UNL     1      44.177   4.773  12.860  0.00  0.00    +0.000 A 
ATOM     31  O   UNL     1      43.971   3.702  13.428  0.00  0.00    +0.000 OA
ATOM     32  C   UNL     1      45.427   5.501  12.938  0.00  0.00    +0.000 A 
ATOM     33  H   UNL     1      42.336   4.878  12.001  0.00  0.00    +0.000 HD
ENDBRANCH  20  23
ENDBRANCH  18  19
ENDBRANCH   4  18
TORSDOF 7
ENDMDL
MODEL 7
REMARK VINA RESULT:    -6.619      3.298      8.531
REMARK INTER + INTRA:         -10.580
REMARK INTER:                  -9.487
REMARK INTRA:                  -1.093
REMARK UNBOUND:                -1.252
REMARK  Name = 
REMARK  8 active torsions:
REMARK  status: ('A' for Active; 'I' for Inactive)
REMARK    1  A    between atoms: C_1  and  C_2
REMARK    2  A    between atoms: C_2  and  N_3
REMARK    3  A    between atoms: C_2  and  C_25
REMARK    4  A    between atoms: N_3  and  C_4
REMARK    5  A    between atoms: C_4  and  C_5
REMARK    6  A    between atoms: C_8  and  C_9
REMARK    7  A    between atoms: C_9  and  N_10
REMARK    8  A    between atoms: C_11  and  C_13
REMARK                            x       y       z     vdW  Elec       q    Type
REMARK                         _______ _______ _______ _____ _____    ______ ____
ROOT
ATOM      1  C   UNL     1      48.962   6.596  16.660  0.00  0.00    +0.000 A 
ATOM      2  C   UNL     1      49.425   7.835  16.222  0.00  0.00    +0.000 A 
ATOM      3  C   UNL     1      49.249   8.188  14.884  0.00  0.00    +0.000 A 
ATOM      4  C   UNL     1      48.614   7.304  14.010  0.00  0.00    +0.000 A 
ATOM      5  C   UNL     1      48.211   6.080  14.528  0.00  0.00    +0.000 A 
ATOM      6  N   UNL     1      48.359   5.717  15.821  0.00  0.00    +0.000 NA
ENDROOT
BRANCH   1   7
ATOM      7  C   UNL     1      49.061   6.208  18.127  0.00  0.00    +0.000 C 
BRANCH   7   8
ATOM      8  N   UNL     1      49.791   4.955  18.338  0.00  0.00    +0.000 NA
ATOM      9  H   UNL     1      49.278   4.187  17.912  0.00  0.00    +0.000 HD
BRANCH   8  11
ATOM     10  C   UNL     1      52.107   5.848  18.671  0.00  0.00    +0.000 C 
ATOM     11  C   UNL     1      51.167   4.968  17.832  0.00  0.00    +0.000 C 
BRANCH  11  12
ATOM     12  C   UNL     1      51.705   3.544  17.783  0.00  0.00    +0.000 A 
ATOM     13  C   UNL     1      53.037   3.271  18.131  0.00  0.00    +0.000 A 
ATOM     14  C   UNL     1      53.523   1.960  18.113  0.00  0.00    +0.000 A 
ATOM     15  C   UNL     1      52.686   0.907  17.747  0.00  0.00    +0.000 A 
ATOM     16  C   UNL     1      51.365   1.162  17.390  0.00  0.00    +0.000 A 
ATOM     17  C   UNL     1      50.880   2.471  17.401  0.00  0.00    +0.000 A 
ENDBRANCH  11  12
ENDBRANCH   8  11
ENDBRANCH   7   8
ENDBRANCH   1   7
BRANCH   4  18
ATOM     18  C   UNL     1      48.385   7.634  12.567  0.00  0.00    +0.000 C 
BRANCH  18  19
ATOM     19  N   UNL     1      47.652   6.592  11.892  0.00  0.00    +0.000 N 
ATOM     20  C   UNL     1      46.323   6.753  11.593  0.00  0.00    +0.000 C 
ATOM     21  O   UNL     1      45.724   7.794  11.845  0.00  0.00    +0.000 OA
ATOM     22  H   UNL     1      48.057   5.660  11.885  0.00  0.00    +0.000 HD
BRANCH  20  23
ATOM     23  C   UNL     1      45.664   5.641  10.898  0.00  0.00    +0.000 A 
ATOM     24  C   UNL     1      45.718   5.571   9.513  0.00  0.00    +0.000 A 
ATOM     25  S   UNL     1      44.931   4.206   8.863  0.00  0.00    +0.000 S 
ATOM     26  C   UNL     1      44.445   3.684  10.408  0.00  0.00    +0.000 A 
ATOM     27  N   UNL     1      43.690   2.565  10.561  0.00  0.00    +0.000 NA
ATOM     28  C   UNL     1      43.367   2.302  11.785  0.00  0.00    +0.000 A 
ATOM     29  N   UNL     1      43.743   3.053  12.869  0.00  0.00    +0.000 N 
ATOM     30  C   UNL     1      44.537   4.169  12.764  0.00  0.00    +0.000 A 
ATOM     31  O   UNL     1      44.908   4.789  13.759  0.00  0.00    +0.000 OA
ATOM     32  C   UNL     1      44.904   4.524  11.409  0.00  0.00    +0.000 A 
ATOM     33  H   UNL     1      43.470   2.784  13.804  0.00  0.00    +0.000 HD
ENDBRANCH  20  23
ENDBRANCH  18  19
ENDBRANCH   4  18
TORSDOF 7
ENDMDL
MODEL 8
REMARK VINA RESULT:    -6.340      3.671      8.196
REMARK INTER + INTRA:         -10.187
REMARK INTER:                  -8.163
REMARK INTRA:                  -2.024
REMARK UNBOUND:                -1.252
REMARK  Name = 
REMARK  8 active torsions:
REMARK  status: ('A' for Active; 'I' for Inactive)
REMARK    1  A    between atoms: C_1  and  C_2
REMARK    2  A    between atoms: C_2  and  N_3
REMARK    3  A    between atoms: C_2  and  C_25
REMARK    4  A    between atoms: N_3  and  C_4
REMARK    5  A    between atoms: C_4  and  C_5
REMARK    6  A    between atoms: C_8  and  C_9
REMARK    7  A    between atoms: C_9  and  N_10
REMARK    8  A    between atoms: C_11  and  C_13
REMARK                            x       y       z     vdW  Elec       q    Type
REMARK                         _______ _______ _______ _____ _____    ______ ____
ROOT
ATOM      1  C   UNL     1      50.085   7.936  16.807  0.00  0.00    +0.000 A 
ATOM      2  C   UNL     1      50.427   7.108  15.740  0.00  0.00    +0.000 A 
ATOM      3  C   UNL     1      49.908   7.386  14.476  0.00  0.00    +0.000 A 
ATOM      4  C   UNL     1      49.065   8.484  14.296  0.00  0.00    +0.000 A 
ATOM      5  C   UNL     1      48.756   9.237  15.422  0.00  0.00    +0.000 A 
ATOM      6  N   UNL     1      49.252   8.997  16.655  0.00  0.00    +0.000 NA
ENDROOT
BRANCH   1   7
ATOM      7  C   UNL     1      50.693   7.716  18.183  0.00  0.00    +0.000 C 
BRANCH   7   8
ATOM      8  N   UNL     1      49.821   6.950  19.077  0.00  0.00    +0.000 NA
ATOM      9  H   UNL     1      48.864   6.993  18.737  0.00  0.00    +0.000 HD
BRANCH   8  11
ATOM     10  C   UNL     1      50.114   5.069  20.705  0.00  0.00    +0.000 C 
ATOM     11  C   UNL     1      50.218   5.549  19.249  0.00  0.00    +0.000 C 
BRANCH  11  12
ATOM     12  C   UNL     1      49.359   4.663  18.355  0.00  0.00    +0.000 A 
ATOM     13  C   UNL     1      48.036   5.021  18.055  0.00  0.00    +0.000 A 
ATOM     14  C   UNL     1      47.257   4.223  17.212  0.00  0.00    +0.000 A 
ATOM     15  C   UNL     1      47.788   3.058  16.660  0.00  0.00    +0.000 A 
ATOM     16  C   UNL     1      49.097   2.684  16.956  0.00  0.00    +0.000 A 
ATOM     17  C   UNL     1      49.874   3.477  17.802  0.00  0.00    +0.000 A 
ENDBRANCH  11  12
ENDBRANCH   8  11
ENDBRANCH   7   8
ENDBRANCH   1   7
BRANCH   4  18
ATOM     18  C   UNL     1      48.490   8.840  12.959  0.00  0.00    +0.000 C 
BRANCH  18  19
ATOM     19  N   UNL     1      47.573   7.832  12.489  0.00  0.00    +0.000 N 
ATOM     20  C   UNL     1      46.236   7.910  12.784  0.00  0.00    +0.000 C 
ATOM     21  O   UNL     1      45.766   8.854  13.415  0.00  0.00    +0.000 OA
ATOM     22  H   UNL     1      47.964   6.948  12.175  0.00  0.00    +0.000 HD
BRANCH  20  23
ATOM     23  C   UNL     1      45.379   6.843  12.256  0.00  0.00    +0.000 A 
ATOM     24  C   UNL     1      44.272   7.171  11.485  0.00  0.00    +0.000 A 
ATOM     25  S   UNL     1      43.400   5.819  10.923  0.00  0.00    +0.000 S 
ATOM     26  C   UNL     1      44.443   4.744  11.732  0.00  0.00    +0.000 A 
ATOM     27  N   UNL     1      44.232   3.402  11.689  0.00  0.00    +0.000 NA
ATOM     28  C   UNL     1      45.080   2.707  12.372  0.00  0.00    +0.000 A 
ATOM     29  N   UNL     1      46.128   3.233  13.084  0.00  0.00    +0.000 N 
ATOM     30  C   UNL     1      46.400   4.580  13.124  0.00  0.00    +0.000 A 
ATOM     31  O   UNL     1      47.380   5.019  13.722  0.00  0.00    +0.000 OA
ATOM     32  C   UNL     1      45.460   5.408  12.397  0.00  0.00    +0.000 A 
ATOM     33  H   UNL     1      46.766   2.632  13.585  0.00  0.00    +0.000 HD
ENDBRANCH  20  23
ENDBRANCH  18  19
ENDBRANCH   4  18
TORSDOF 7
ENDMDL
MODEL 9
REMARK VINA RESULT:    -6.337      4.646      9.487
REMARK INTER + INTRA:         -10.183
REMARK INTER:                  -8.940
REMARK INTRA:                  -1.243
REMARK UNBOUND:                -1.252
REMARK  Name = 
REMARK  8 active torsions:
REMARK  status: ('A' for Active; 'I' for Inactive)
REMARK    1  A    between atoms: C_1  and  C_2
REMARK    2  A    between atoms: C_2  and  N_3
REMARK    3  A    between atoms: C_2  and  C_25
REMARK    4  A    between atoms: N_3  and  C_4
REMARK    5  A    between atoms: C_4  and  C_5
REMARK    6  A    between atoms: C_8  and  C_9
REMARK    7  A    between atoms: C_9  and  N_10
REMARK    8  A    between atoms: C_11  and  C_13
REMARK                            x       y       z     vdW  Elec       q    Type
REMARK                         _______ _______ _______ _____ _____    ______ ____
ROOT
ATOM      1  C   UNL     1      51.231   3.533  18.087  0.00  0.00    +0.000 A 
ATOM      2  C   UNL     1      50.741   2.422  17.402  0.00  0.00    +0.000 A 
ATOM      3  C   UNL     1      49.416   2.427  16.968  0.00  0.00    +0.000 A 
ATOM      4  C   UNL     1      48.605   3.535  17.220  0.00  0.00    +0.000 A 
ATOM      5  C   UNL     1      49.170   4.584  17.934  0.00  0.00    +0.000 A 
ATOM      6  N   UNL     1      50.453   4.611  18.357  0.00  0.00    +0.000 NA
ENDROOT
BRANCH   1   7
ATOM      7  C   UNL     1      52.692   3.601  18.504  0.00  0.00    +0.000 C 
BRANCH   7   8
ATOM      8  N   UNL     1      53.182   2.345  19.076  0.00  0.00    +0.000 NA
ATOM      9  H   UNL     1      52.720   1.561  18.621  0.00  0.00    +0.000 HD
BRANCH   8  11
ATOM     10  C   UNL     1      55.269   1.767  20.333  0.00  0.00    +0.000 C 
ATOM     11  C   UNL     1      54.636   2.174  18.994  0.00  0.00    +0.000 C 
BRANCH  11  12
ATOM     12  C   UNL     1      54.966   1.131  17.933  0.00  0.00    +0.000 A 
ATOM     13  C   UNL     1      54.729  -0.232  18.173  0.00  0.00    +0.000 A 
ATOM     14  C   UNL     1      55.006  -1.185  17.189  0.00  0.00    +0.000 A 
ATOM     15  C   UNL     1      55.523  -0.792  15.956  0.00  0.00    +0.000 A 
ATOM     16  C   UNL     1      55.774   0.555  15.706  0.00  0.00    +0.000 A 
ATOM     17  C   UNL     1      55.504   1.508  16.690  0.00  0.00    +0.000 A 
ENDBRANCH  11  12
ENDBRANCH   8  11
ENDBRANCH   7   8
ENDBRANCH   1   7
BRANCH   4  18
ATOM     18  C   UNL     1      47.179   3.602  16.766  0.00  0.00    +0.000 C 
BRANCH  18  19
ATOM     19  N   UNL     1      46.979   4.643  15.790  0.00  0.00    +0.000 N 
ATOM     20  C   UNL     1      47.000   4.357  14.448  0.00  0.00    +0.000 C 
ATOM     21  O   UNL     1      47.143   3.210  14.033  0.00  0.00    +0.000 OA
ATOM     22  H   UNL     1      47.090   5.605  16.097  0.00  0.00    +0.000 HD
BRANCH  20  23
ATOM     23  C   UNL     1      46.779   5.480  13.530  0.00  0.00    +0.000 A 
ATOM     24  C   UNL     1      45.676   5.469  12.687  0.00  0.00    +0.000 A 
ATOM     25  S   UNL     1      45.547   6.857  11.707  0.00  0.00    +0.000 S 
ATOM     26  C   UNL     1      46.990   7.502  12.338  0.00  0.00    +0.000 A 
ATOM     27  N   UNL     1      47.480   8.687  11.888  0.00  0.00    +0.000 NA
ATOM     28  C   UNL     1      48.597   9.042  12.431  0.00  0.00    +0.000 A 
ATOM     29  N   UNL     1      49.262   8.324  13.391  0.00  0.00    +0.000 N 
ATOM     30  C   UNL     1      48.785   7.141  13.901  0.00  0.00    +0.000 A 
ATOM     31  O   UNL     1      49.371   6.548  14.805  0.00  0.00    +0.000 OA
ATOM     32  C   UNL     1      47.546   6.683  13.306  0.00  0.00    +0.000 A 
ATOM     33  H   UNL     1      50.126   8.666  13.787  0.00  0.00    +0.000 HD
ENDBRANCH  20  23
ENDBRANCH  18  19
ENDBRANCH   4  18
TORSDOF 7
ENDMDL
