MODEL 1
REMARK VINA RESULT:    -8.523      0.000      0.000
REMARK INTER + INTRA:         -12.339
REMARK INTER:                 -11.015
REMARK INTRA:                  -1.325
REMARK UNBOUND:                -1.325
REMARK  Name = 
REMARK  6 active torsions:
REMARK  status: ('A' for Active; 'I' for Inactive)
REMARK    1  A    between atoms: C_1  and  C_2
REMARK    2  A    between atoms: C_4  and  C_5
REMARK    3  A    between atoms: C_10  and  N_11
REMARK    4  A    between atoms: N_11  and  C_12
REMARK    5  A    between atoms: C_12  and  C_13
REMARK    6  A    between atoms: C_17  and  C_18
REMARK                            x       y       z     vdW  Elec       q    Type
REMARK                         _______ _______ _______ _____ _____    ______ ____
ROOT
ATOM      1  N   UNL     1      44.522   6.989  12.680  0.00  0.00    +0.000 N 
ATOM      2  H   UNL     1      44.290   6.321  13.407  0.00  0.00    +0.000 HD
ENDROOT
BRANCH   1   9
ATOM      3  C   UNL     1      46.271   4.861  13.672  0.00  0.00    +0.000 C 
ATOM      4  C   UNL     1      46.769   6.134  13.055  0.00  0.00    +0.000 A 
ATOM      5  C   UNL     1      48.157   6.361  13.001  0.00  0.00    +0.000 A 
ATOM      6  C   UNL     1      48.664   7.539  12.456  0.00  0.00    +0.000 A 
ATOM      7  C   UNL     1      47.744   8.442  11.966  0.00  0.00    +0.000 A 
ATOM      8  N   UNL     1      46.402   8.255  11.997  0.00  0.00    +0.000 NA
ATOM      9  C   UNL     1      45.912   7.118  12.539  0.00  0.00    +0.000 A 
BRANCH   6  10
ATOM     10  C   UNL     1      50.132   7.752  12.434  0.00  0.00    +0.000 C 
ATOM     11  N   UNL     1      50.823   7.750  13.613  0.00  0.00    +0.000 N 
ATOM     12  O   UNL     1      50.728   7.925  11.379  0.00  0.00    +0.000 OA
ATOM     13  H   UNL     1      50.442   7.590  14.530  0.00  0.00    +0.000 HD
ATOM     14  H   UNL     1      51.826   7.886  13.542  0.00  0.00    +0.000 HD
ENDBRANCH   6  10
ENDBRANCH   1   9
BRANCH   1  15
ATOM     15  C   UNL     1      43.800   6.697  11.440  0.00  0.00    +0.000 C 
BRANCH  15  16
ATOM     16  C   UNL     1      43.860   5.221  11.096  0.00  0.00    +0.000 A 
ATOM     17  C   UNL     1      43.158   4.293  11.875  0.00  0.00    +0.000 A 
ATOM     18  C   UNL     1      43.266   2.928  11.615  0.00  0.00    +0.000 A 
ATOM     19  C   UNL     1      44.074   2.476  10.569  0.00  0.00    +0.000 A 
ATOM     20  C   UNL     1      44.792   3.371   9.757  0.00  0.00    +0.000 A 
ATOM     21  C   UNL     1      44.687   4.741  10.064  0.00  0.00    +0.000 A 
BRANCH  20  22
ATOM     22  C   UNL     1      45.604   2.905   8.611  0.00  0.00    +0.000 A 
ATOM     23  C   UNL     1      46.032   3.785   7.596  0.00  0.00    +0.000 A 
ATOM     24  C   UNL     1      46.766   3.334   6.492  0.00  0.00    +0.000 A 
ATOM     25  C   UNL     1      47.101   1.990   6.388  0.00  0.00    +0.000 A 
ATOM     26  C   UNL     1      46.693   1.112   7.379  0.00  0.00    +0.000 A 
ATOM     27  F   UNL     1      47.011  -0.187   7.282  0.00  0.00    +0.000 F 
ATOM     28  C   UNL     1      45.952   1.549   8.471  0.00  0.00    +0.000 A 
ENDBRANCH  20  22
ENDBRANCH  15  16
ENDBRANCH   1  15
TORSDOF 5
ENDMDL
MODEL 2
REMARK VINA RESULT:    -8.030      1.087      1.642
REMARK INTER + INTRA:         -11.702
REMARK INTER:                 -10.879
REMARK INTRA:                  -0.824
REMARK UNBOUND:                -1.325
REMARK  Name = 
REMARK  6 active torsions:
REMARK  status: ('A' for Active; 'I' for Inactive)
REMARK    1  A    between atoms: C_1  and  C_2
REMARK    2  A    between atoms: C_4  and  C_5
REMARK    3  A    between atoms: C_10  and  N_11
REMARK    4  A    between atoms: N_11  and  C_12
REMARK    5  A    between atoms: C_12  and  C_13
REMARK    6  A    between atoms: C_17  and  C_18
REMARK                            x       y       z     vdW  Elec       q    Type
REMARK                         _______ _______ _______ _____ _____    ______ ____
ROOT
ATOM      1  N   UNL     1      43.939   6.912  12.544  0.00  0.00    +0.000 N 
ATOM      2  H   UNL     1      43.474   6.260  13.166  0.00  0.00    +0.000 HD
ENDROOT
BRANCH   1   9
ATOM      3  C   UNL     1      45.283   9.490  12.196  0.00  0.00    +0.000 C 
ATOM      4  C   UNL     1      45.976   8.239  12.649  0.00  0.00    +0.000 A 
ATOM      5  C   UNL     1      47.366   8.276  12.862  0.00  0.00    +0.000 A 
ATOM      6  C   UNL     1      48.055   7.132  13.263  0.00  0.00    +0.000 A 
ATOM      7  C   UNL     1      47.305   5.991  13.451  0.00  0.00    +0.000 A 
ATOM      8  N   UNL     1      45.964   5.920  13.260  0.00  0.00    +0.000 NA
ATOM      9  C   UNL     1      45.301   7.026  12.859  0.00  0.00    +0.000 A 
BRANCH   6  10
ATOM     10  C   UNL     1      49.523   7.204  13.458  0.00  0.00    +0.000 C 
ATOM     11  N   UNL     1      50.324   7.496  12.390  0.00  0.00    +0.000 N 
ATOM     12  O   UNL     1      50.023   7.010  14.558  0.00  0.00    +0.000 OA
ATOM     13  H   UNL     1      50.021   7.701  11.453  0.00  0.00    +0.000 HD
ATOM     14  H   UNL     1      51.320   7.547  12.580  0.00  0.00    +0.000 HD
ENDBRANCH   6  10
ENDBRANCH   1   9
BRANCH   1  15
ATOM     15  C   UNL     1      43.653   6.603  11.142  0.00  0.00    +0.000 C 
BRANCH  15  16
ATOM     16  C   UNL     1      43.777   5.117  10.863  0.00  0.00    +0.000 A 
ATOM     17  C   UNL     1      43.094   4.196  11.667  0.00  0.00    +0.000 A 
ATOM     18  C   UNL     1      43.260   2.827  11.469  0.00  0.00    +0.000 A 
ATOM     19  C   UNL     1      44.108   2.363  10.460  0.00  0.00    +0.000 A 
ATOM     20  C   UNL     1      44.809   3.250   9.626  0.00  0.00    +0.000 A 
ATOM     21  C   UNL     1      44.644   4.627   9.871  0.00  0.00    +0.000 A 
BRANCH  20  22
ATOM     22  C   UNL     1      45.664   2.768   8.518  0.00  0.00    +0.000 A 
ATOM     23  C   UNL     1      46.114   3.630   7.497  0.00  0.00    +0.000 A 
ATOM     24  C   UNL     1      46.890   3.163   6.428  0.00  0.00    +0.000 A 
ATOM     25  C   UNL     1      47.245   1.821   6.367  0.00  0.00    +0.000 A 
ATOM     26  C   UNL     1      46.814   0.961   7.364  0.00  0.00    +0.000 A 
ATOM     27  F   UNL     1      47.151  -0.335   7.309  0.00  0.00    +0.000 F 
ATOM     28  C   UNL     1      46.032   1.413   8.422  0.00  0.00    +0.000 A 
ENDBRANCH  20  22
ENDBRANCH  15  16
ENDBRANCH   1  15
TORSDOF 5
ENDMDL
MODEL 3
REMARK VINA RESULT:    -8.010      3.638      6.873
REMARK INTER + INTRA:         -11.676
REMARK INTER:                 -10.589
REMARK INTRA:                  -1.088
REMARK UNBOUND:                -1.325
REMARK  Name = 
REMARK  6 active torsions:
REMARK  status: ('A' for Active; 'I' for Inactive)
REMARK    1  A    between atoms: C_1  and  C_2
REMARK    2  A    between atoms: C_4  and  C_5
REMARK    3  A    between atoms: C_10  and  N_11
REMARK    4  A    between atoms: N_11  and  C_12
REMARK    5  A    between atoms: C_12  and  C_13
REMARK    6  A    between atoms: C_17  and  C_18
REMARK                            x       y       z     vdW  Elec       q    Type
REMARK                         _______ _______ _______ _____ _____    ______ ____
ROOT
ATOM      1  N   UNL     1      44.024   5.042  10.149  0.00  0.00    +0.000 N 
ATOM      2  H   UNL     1      43.129   5.269   9.729  0.00  0.00    +0.000 HD
ENDROOT
BRANCH   1   9
ATOM      3  C   UNL     1      43.949   2.145  10.564  0.00  0.00    +0.000 C 
ATOM      4  C   UNL     1      44.798   2.820   9.527  0.00  0.00    +0.000 A 
ATOM      5  C   UNL     1      45.661   2.034   8.743  0.00  0.00    +0.000 A 
ATOM      6  C   UNL     1      46.483   2.621   7.782  0.00  0.00    +0.000 A 
ATOM      7  C   UNL     1      46.387   3.988   7.638  0.00  0.00    +0.000 A 
ATOM      8  N   UNL     1      45.564   4.777   8.372  0.00  0.00    +0.000 NA
ATOM      9  C   UNL     1      44.778   4.207   9.312  0.00  0.00    +0.000 A 
BRANCH   6  10
ATOM     10  C   UNL     1      47.395   1.762   6.989  0.00  0.00    +0.000 C 
ATOM     11  N   UNL     1      48.483   2.325   6.384  0.00  0.00    +0.000 N 
ATOM     12  O   UNL     1      47.188   0.561   6.873  0.00  0.00    +0.000 OA
ATOM     13  H   UNL     1      48.765   3.289   6.436  0.00  0.00    +0.000 HD
ATOM     14  H   UNL     1      49.083   1.692   5.865  0.00  0.00    +0.000 HD
ENDBRANCH   6  10
ENDBRANCH   1   9
BRANCH   1  15
ATOM     15  C   UNL     1      44.717   6.249  10.604  0.00  0.00    +0.000 C 
BRANCH  15  16
ATOM     16  C   UNL     1      45.683   5.944  11.733  0.00  0.00    +0.000 A 
ATOM     17  C   UNL     1      45.337   5.006  12.714  0.00  0.00    +0.000 A 
ATOM     18  C   UNL     1      46.182   4.774  13.797  0.00  0.00    +0.000 A 
ATOM     19  C   UNL     1      47.386   5.472  13.908  0.00  0.00    +0.000 A 
ATOM     20  C   UNL     1      47.777   6.418  12.945  0.00  0.00    +0.000 A 
ATOM     21  C   UNL     1      46.888   6.654  11.879  0.00  0.00    +0.000 A 
BRANCH  20  22
ATOM     22  C   UNL     1      49.078   7.120  13.025  0.00  0.00    +0.000 A 
ATOM     23  C   UNL     1      49.703   7.390  14.260  0.00  0.00    +0.000 A 
ATOM     24  C   UNL     1      50.914   8.089  14.334  0.00  0.00    +0.000 A 
ATOM     25  C   UNL     1      51.535   8.521  13.168  0.00  0.00    +0.000 A 
ATOM     26  C   UNL     1      50.937   8.260  11.946  0.00  0.00    +0.000 A 
ATOM     27  F   UNL     1      51.530   8.677  10.819  0.00  0.00    +0.000 F 
ATOM     28  C   UNL     1      49.727   7.579  11.864  0.00  0.00    +0.000 A 
ENDBRANCH  20  22
ENDBRANCH  15  16
ENDBRANCH   1  15
TORSDOF 5
ENDMDL
MODEL 4
REMARK VINA RESULT:    -7.581      2.663      3.373
REMARK INTER + INTRA:         -11.122
REMARK INTER:                 -10.369
REMARK INTRA:                  -0.753
REMARK UNBOUND:                -1.325
REMARK  Name = 
REMARK  6 active torsions:
REMARK  status: ('A' for Active; 'I' for Inactive)
REMARK    1  A    between atoms: C_1  and  C_2
REMARK    2  A    between atoms: C_4  and  C_5
REMARK    3  A    between atoms: C_10  and  N_11
REMARK    4  A    between atoms: N_11  and  C_12
REMARK    5  A    between atoms: C_12  and  C_13
REMARK    6  A    between atoms: C_17  and  C_18
REMARK                            x       y       z     vdW  Elec       q    Type
REMARK                         _______ _______ _______ _____ _____    ______ ____
ROOT
ATOM      1  N   UNL     1      47.504   6.667  12.316  0.00  0.00    +0.000 N 
ATOM      2  H   UNL     1      48.255   7.324  12.134  0.00  0.00    +0.000 HD
ENDROOT
BRANCH   1   9
ATOM      3  C   UNL     1      49.145   8.058  14.302  0.00  0.00    +0.000 C 
ATOM      4  C   UNL     1      48.406   6.780  14.572  0.00  0.00    +0.000 A 
ATOM      5  C   UNL     1      48.553   6.169  15.831  0.00  0.00    +0.000 A 
ATOM      6  C   UNL     1      47.902   4.970  16.120  0.00  0.00    +0.000 A 
ATOM      7  C   UNL     1      47.109   4.441  15.125  0.00  0.00    +0.000 A 
ATOM      8  N   UNL     1      46.941   5.004  13.902  0.00  0.00    +0.000 NA
ATOM      9  C   UNL     1      47.583   6.159  13.620  0.00  0.00    +0.000 A 
BRANCH   6  10
ATOM     10  C   UNL     1      48.095   4.345  17.450  0.00  0.00    +0.000 C 
ATOM     11  N   UNL     1      47.209   4.622  18.453  0.00  0.00    +0.000 N 
ATOM     12  O   UNL     1      49.032   3.585  17.659  0.00  0.00    +0.000 OA
ATOM     13  H   UNL     1      46.392   5.205  18.385  0.00  0.00    +0.000 HD
ATOM     14  H   UNL     1      47.378   4.157  19.339  0.00  0.00    +0.000 HD
ENDBRANCH   6  10
ENDBRANCH   1   9
BRANCH   1  15
ATOM     15  C   UNL     1      46.204   7.233  11.951  0.00  0.00    +0.000 C 
BRANCH  15  16
ATOM     16  C   UNL     1      45.350   6.229  11.201  0.00  0.00    +0.000 A 
ATOM     17  C   UNL     1      43.986   6.113  11.496  0.00  0.00    +0.000 A 
ATOM     18  C   UNL     1      43.208   5.143  10.867  0.00  0.00    +0.000 A 
ATOM     19  C   UNL     1      43.785   4.281   9.931  0.00  0.00    +0.000 A 
ATOM     20  C   UNL     1      45.148   4.364   9.599  0.00  0.00    +0.000 A 
ATOM     21  C   UNL     1      45.914   5.334  10.274  0.00  0.00    +0.000 A 
BRANCH  20  22
ATOM     22  C   UNL     1      45.754   3.494   8.567  0.00  0.00    +0.000 A 
ATOM     23  C   UNL     1      46.259   4.015   7.358  0.00  0.00    +0.000 A 
ATOM     24  C   UNL     1      46.796   3.185   6.366  0.00  0.00    +0.000 A 
ATOM     25  C   UNL     1      46.853   1.812   6.571  0.00  0.00    +0.000 A 
ATOM     26  C   UNL     1      46.365   1.284   7.755  0.00  0.00    +0.000 A 
ATOM     27  F   UNL     1      46.415  -0.041   7.956  0.00  0.00    +0.000 F 
ATOM     28  C   UNL     1      45.818   2.099   8.740  0.00  0.00    +0.000 A 
ENDBRANCH  20  22
ENDBRANCH  15  16
ENDBRANCH   1  15
TORSDOF 5
ENDMDL
MODEL 5
REMARK VINA RESULT:    -7.257      3.434      4.104
REMARK INTER + INTRA:         -10.703
REMARK INTER:                 -10.035
REMARK INTRA:                  -0.668
REMARK UNBOUND:                -1.325
REMARK  Name = 
REMARK  6 active torsions:
REMARK  status: ('A' for Active; 'I' for Inactive)
REMARK    1  A    between atoms: C_1  and  C_2
REMARK    2  A    between atoms: C_4  and  C_5
REMARK    3  A    between atoms: C_10  and  N_11
REMARK    4  A    between atoms: N_11  and  C_12
REMARK    5  A    between atoms: C_12  and  C_13
REMARK    6  A    between atoms: C_17  and  C_18
REMARK                            x       y       z     vdW  Elec       q    Type
REMARK                         _______ _______ _______ _____ _____    ______ ____
ROOT
ATOM      1  N   UNL     1      46.739   4.292  13.941  0.00  0.00    +0.000 N 
ATOM      2  H   UNL     1      46.999   5.084  13.362  0.00  0.00    +0.000 HD
ENDROOT
BRANCH   1   9
ATOM      3  C   UNL     1      48.398   6.610  14.607  0.00  0.00    +0.000 C 
ATOM      4  C   UNL     1      48.024   5.539  15.589  0.00  0.00    +0.000 A 
ATOM      5  C   UNL     1      48.546   5.605  16.893  0.00  0.00    +0.000 A 
ATOM      6  C   UNL     1      48.242   4.621  17.832  0.00  0.00    +0.000 A 
ATOM      7  C   UNL     1      47.402   3.609  17.419  0.00  0.00    +0.000 A 
ATOM      8  N   UNL     1      46.877   3.515  16.172  0.00  0.00    +0.000 NA
ATOM      9  C   UNL     1      47.184   4.464  15.260  0.00  0.00    +0.000 A 
BRANCH   6  10
ATOM     10  C   UNL     1      48.827   4.713  19.192  0.00  0.00    +0.000 C 
ATOM     11  N   UNL     1      48.586   3.713  20.091  0.00  0.00    +0.000 N 
ATOM     12  O   UNL     1      49.523   5.667  19.515  0.00  0.00    +0.000 OA
ATOM     13  H   UNL     1      48.057   2.874  19.925  0.00  0.00    +0.000 HD
ATOM     14  H   UNL     1      49.021   3.817  21.002  0.00  0.00    +0.000 HD
ENDBRANCH   6  10
ENDBRANCH   1   9
BRANCH   1  15
ATOM     15  C   UNL     1      45.314   3.982  13.805  0.00  0.00    +0.000 C 
BRANCH  15  16
ATOM     16  C   UNL     1      44.823   4.229  12.392  0.00  0.00    +0.000 A 
ATOM     17  C   UNL     1      43.697   5.033  12.174  0.00  0.00    +0.000 A 
ATOM     18  C   UNL     1      43.192   5.205  10.887  0.00  0.00    +0.000 A 
ATOM     19  C   UNL     1      43.810   4.579   9.802  0.00  0.00    +0.000 A 
ATOM     20  C   UNL     1      44.945   3.768   9.972  0.00  0.00    +0.000 A 
ATOM     21  C   UNL     1      45.414   3.589  11.288  0.00  0.00    +0.000 A 
BRANCH  20  22
ATOM     22  C   UNL     1      45.641   3.149   8.822  0.00  0.00    +0.000 A 
ATOM     23  C   UNL     1      46.089   3.913   7.725  0.00  0.00    +0.000 A 
ATOM     24  C   UNL     1      46.711   3.319   6.620  0.00  0.00    +0.000 A 
ATOM     25  C   UNL     1      46.913   1.945   6.596  0.00  0.00    +0.000 A 
ATOM     26  C   UNL     1      46.483   1.180   7.669  0.00  0.00    +0.000 A 
ATOM     27  F   UNL     1      46.673  -0.147   7.650  0.00  0.00    +0.000 F 
ATOM     28  C   UNL     1      45.852   1.759   8.764  0.00  0.00    +0.000 A 
ENDBRANCH  20  22
ENDBRANCH  15  16
ENDBRANCH   1  15
TORSDOF 5
ENDMDL
MODEL 6
REMARK VINA RESULT:    -7.027      3.043      3.771
REMARK INTER + INTRA:         -10.405
REMARK INTER:                  -9.553
REMARK INTRA:                  -0.852
REMARK UNBOUND:                -1.325
REMARK  Name = 
REMARK  6 active torsions:
REMARK  status: ('A' for Active; 'I' for Inactive)
REMARK    1  A    between atoms: C_1  and  C_2
REMARK    2  A    between atoms: C_4  and  C_5
REMARK    3  A    between atoms: C_10  and  N_11
REMARK    4  A    between atoms: N_11  and  C_12
REMARK    5  A    between atoms: C_12  and  C_13
REMARK    6  A    between atoms: C_17  and  C_18
REMARK                            x       y       z     vdW  Elec       q    Type
REMARK                         _______ _______ _______ _____ _____    ______ ____
ROOT
ATOM      1  N   UNL     1      47.492   6.353  12.966  0.00  0.00    +0.000 N 
ATOM      2  H   UNL     1      48.244   6.939  12.619  0.00  0.00    +0.000 HD
ENDROOT
BRANCH   1   9
ATOM      3  C   UNL     1      46.707   3.621  13.667  0.00  0.00    +0.000 C 
ATOM      4  C   UNL     1      47.371   4.572  14.619  0.00  0.00    +0.000 A 
ATOM      5  C   UNL     1      47.579   4.162  15.949  0.00  0.00    +0.000 A 
ATOM      6  C   UNL     1      48.174   5.020  16.873  0.00  0.00    +0.000 A 
ATOM      7  C   UNL     1      48.555   6.261  16.410  0.00  0.00    +0.000 A 
ATOM      8  N   UNL     1      48.376   6.688  15.135  0.00  0.00    +0.000 NA
ATOM      9  C   UNL     1      47.786   5.860  14.245  0.00  0.00    +0.000 A 
BRANCH   6  10
ATOM     10  C   UNL     1      48.358   4.561  18.271  0.00  0.00    +0.000 C 
ATOM     11  N   UNL     1      49.038   3.399  18.507  0.00  0.00    +0.000 N 
ATOM     12  O   UNL     1      47.914   5.208  19.210  0.00  0.00    +0.000 OA
ATOM     13  H   UNL     1      49.468   2.806  17.818  0.00  0.00    +0.000 HD
ATOM     14  H   UNL     1      49.149   3.137  19.481  0.00  0.00    +0.000 HD
ENDBRANCH   6  10
ENDBRANCH   1   9
BRANCH   1  15
ATOM     15  C   UNL     1      46.197   7.026  12.846  0.00  0.00    +0.000 C 
BRANCH  15  16
ATOM     16  C   UNL     1      45.246   6.250  11.956  0.00  0.00    +0.000 A 
ATOM     17  C   UNL     1      43.864   6.354  12.153  0.00  0.00    +0.000 A 
ATOM     18  C   UNL     1      42.983   5.588  11.391  0.00  0.00    +0.000 A 
ATOM     19  C   UNL     1      43.476   4.714  10.419  0.00  0.00    +0.000 A 
ATOM     20  C   UNL     1      44.855   4.581  10.183  0.00  0.00    +0.000 A 
ATOM     21  C   UNL     1      45.720   5.345  10.989  0.00  0.00    +0.000 A 
BRANCH  20  22
ATOM     22  C   UNL     1      45.382   3.701   9.116  0.00  0.00    +0.000 A 
ATOM     23  C   UNL     1      45.405   2.298   9.254  0.00  0.00    +0.000 A 
ATOM     24  C   UNL     1      45.941   1.470   8.259  0.00  0.00    +0.000 A 
ATOM     25  C   UNL     1      46.453   2.030   7.096  0.00  0.00    +0.000 A 
ATOM     26  C   UNL     1      46.434   3.407   6.942  0.00  0.00    +0.000 A 
ATOM     27  F   UNL     1      46.929   3.953   5.823  0.00  0.00    +0.000 F 
ATOM     28  C   UNL     1      45.916   4.238   7.930  0.00  0.00    +0.000 A 
ENDBRANCH  20  22
ENDBRANCH  15  16
ENDBRANCH   1  15
TORSDOF 5
ENDMDL
MODEL 7
REMARK VINA RESULT:    -6.902      2.236      2.514
REMARK INTER + INTRA:         -10.244
REMARK INTER:                  -9.369
REMARK INTRA:                  -0.875
REMARK UNBOUND:                -1.325
REMARK  Name = 
REMARK  6 active torsions:
REMARK  status: ('A' for Active; 'I' for Inactive)
REMARK    1  A    between atoms: C_1  and  C_2
REMARK    2  A    between atoms: C_4  and  C_5
REMARK    3  A    between atoms: C_10  and  N_11
REMARK    4  A    between atoms: N_11  and  C_12
REMARK    5  A    between atoms: C_12  and  C_13
REMARK    6  A    between atoms: C_17  and  C_18
REMARK                            x       y       z     vdW  Elec       q    Type
REMARK                         _______ _______ _______ _____ _____    ______ ____
ROOT
ATOM      1  N   UNL     1      47.338   7.119  11.830  0.00  0.00    +0.000 N 
ATOM      2  H   UNL     1      47.861   7.697  11.180  0.00  0.00    +0.000 HD
ENDROOT
BRANCH   1   9
ATOM      3  C   UNL     1      47.144   4.789  13.592  0.00  0.00    +0.000 C 
ATOM      4  C   UNL     1      47.763   6.094  13.996  0.00  0.00    +0.000 A 
ATOM      5  C   UNL     1      48.225   6.243  15.317  0.00  0.00    +0.000 A 
ATOM      6  C   UNL     1      48.788   7.445  15.742  0.00  0.00    +0.000 A 
ATOM      7  C   UNL     1      48.880   8.452  14.805  0.00  0.00    +0.000 A 
ATOM      8  N   UNL     1      48.450   8.343  13.524  0.00  0.00    +0.000 NA
ATOM      9  C   UNL     1      47.892   7.181  13.117  0.00  0.00    +0.000 A 
BRANCH   6  10
ATOM     10  C   UNL     1      49.245   7.572  17.147  0.00  0.00    +0.000 C 
ATOM     11  N   UNL     1      48.480   8.272  18.037  0.00  0.00    +0.000 N 
ATOM     12  O   UNL     1      50.292   7.057  17.519  0.00  0.00    +0.000 OA
ATOM     13  H   UNL     1      47.594   8.709  17.850  0.00  0.00    +0.000 HD
ATOM     14  H   UNL     1      48.830   8.317  18.988  0.00  0.00    +0.000 HD
ENDBRANCH   6  10
ENDBRANCH   1   9
BRANCH   1  15
ATOM     15  C   UNL     1      45.905   7.406  11.761  0.00  0.00    +0.000 C 
BRANCH  15  16
ATOM     16  C   UNL     1      45.141   6.270  11.109  0.00  0.00    +0.000 A 
ATOM     17  C   UNL     1      43.817   6.011  11.487  0.00  0.00    +0.000 A 
ATOM     18  C   UNL     1      43.130   4.924  10.952  0.00  0.00    +0.000 A 
ATOM     19  C   UNL     1      43.757   4.085  10.027  0.00  0.00    +0.000 A 
ATOM     20  C   UNL     1      45.082   4.309   9.615  0.00  0.00    +0.000 A 
ATOM     21  C   UNL     1      45.760   5.398  10.197  0.00  0.00    +0.000 A 
BRANCH  20  22
ATOM     22  C   UNL     1      45.734   3.461   8.593  0.00  0.00    +0.000 A 
ATOM     23  C   UNL     1      46.271   4.004   7.407  0.00  0.00    +0.000 A 
ATOM     24  C   UNL     1      46.853   3.194   6.424  0.00  0.00    +0.000 A 
ATOM     25  C   UNL     1      46.923   1.819   6.614  0.00  0.00    +0.000 A 
ATOM     26  C   UNL     1      46.404   1.269   7.775  0.00  0.00    +0.000 A 
ATOM     27  F   UNL     1      46.467  -0.057   7.962  0.00  0.00    +0.000 F 
ATOM     28  C   UNL     1      45.813   2.064   8.751  0.00  0.00    +0.000 A 
ENDBRANCH  20  22
ENDBRANCH  15  16
ENDBRANCH   1  15
TORSDOF 5
ENDMDL
MODEL 8
REMARK VINA RESULT:    -6.791      4.538      6.614
REMARK INTER + INTRA:         -10.100
REMARK INTER:                  -9.051
REMARK INTRA:                  -1.049
REMARK UNBOUND:                -1.325
REMARK  Name = 
REMARK  6 active torsions:
REMARK  status: ('A' for Active; 'I' for Inactive)
REMARK    1  A    between atoms: C_1  and  C_2
REMARK    2  A    between atoms: C_4  and  C_5
REMARK    3  A    between atoms: C_10  and  N_11
REMARK    4  A    between atoms: N_11  and  C_12
REMARK    5  A    between atoms: C_12  and  C_13
REMARK    6  A    between atoms: C_17  and  C_18
REMARK                            x       y       z     vdW  Elec       q    Type
REMARK                         _______ _______ _______ _____ _____    ______ ____
ROOT
ATOM      1  N   UNL     1      48.429   5.946  16.893  0.00  0.00    +0.000 N 
ATOM      2  H   UNL     1      47.535   5.665  16.505  0.00  0.00    +0.000 HD
ENDROOT
BRANCH   1   9
ATOM      3  C   UNL     1      47.332   3.232  16.941  0.00  0.00    +0.000 C 
ATOM      4  C   UNL     1      48.793   3.547  17.072  0.00  0.00    +0.000 A 
ATOM      5  C   UNL     1      49.695   2.490  17.295  0.00  0.00    +0.000 A 
ATOM      6  C   UNL     1      51.059   2.739  17.444  0.00  0.00    +0.000 A 
ATOM      7  C   UNL     1      51.464   4.052  17.343  0.00  0.00    +0.000 A 
ATOM      8  N   UNL     1      50.625   5.095  17.124  0.00  0.00    +0.000 NA
ATOM      9  C   UNL     1      49.302   4.853  16.994  0.00  0.00    +0.000 A 
BRANCH   6  10
ATOM     10  C   UNL     1      51.977   1.602  17.698  0.00  0.00    +0.000 C 
ATOM     11  N   UNL     1      51.455   0.392  18.059  0.00  0.00    +0.000 N 
ATOM     12  O   UNL     1      53.189   1.733  17.584  0.00  0.00    +0.000 OA
ATOM     13  H   UNL     1      50.480   0.164  18.153  0.00  0.00    +0.000 HD
ATOM     14  H   UNL     1      52.125  -0.356  18.207  0.00  0.00    +0.000 HD
ENDBRANCH   6  10
ENDBRANCH   1   9
BRANCH   1  15
ATOM     15  C   UNL     1      48.972   7.107  16.187  0.00  0.00    +0.000 C 
BRANCH  15  16
ATOM     16  C   UNL     1      48.717   7.021  14.694  0.00  0.00    +0.000 A 
ATOM     17  C   UNL     1      49.615   7.612  13.797  0.00  0.00    +0.000 A 
ATOM     18  C   UNL     1      49.352   7.605  12.428  0.00  0.00    +0.000 A 
ATOM     19  C   UNL     1      48.191   7.001  11.942  0.00  0.00    +0.000 A 
ATOM     20  C   UNL     1      47.265   6.390  12.804  0.00  0.00    +0.000 A 
ATOM     21  C   UNL     1      47.543   6.440  14.184  0.00  0.00    +0.000 A 
BRANCH  20  22
ATOM     22  C   UNL     1      46.061   5.696  12.292  0.00  0.00    +0.000 A 
ATOM     23  C   UNL     1      45.754   5.658  10.916  0.00  0.00    +0.000 A 
ATOM     24  C   UNL     1      44.595   5.035  10.438  0.00  0.00    +0.000 A 
ATOM     25  C   UNL     1      43.722   4.422  11.329  0.00  0.00    +0.000 A 
ATOM     26  C   UNL     1      44.012   4.446  12.684  0.00  0.00    +0.000 A 
ATOM     27  F   UNL     1      43.172   3.858  13.548  0.00  0.00    +0.000 F 
ATOM     28  C   UNL     1      45.153   5.074  13.169  0.00  0.00    +0.000 A 
ENDBRANCH  20  22
ENDBRANCH  15  16
ENDBRANCH   1  15
TORSDOF 5
ENDMDL
MODEL 9
REMARK VINA RESULT:    -6.551      3.777      5.272
REMARK INTER + INTRA:          -9.791
REMARK INTER:                  -9.032
REMARK INTRA:                  -0.759
REMARK UNBOUND:                -1.325
REMARK  Name = 
REMARK  6 active torsions:
REMARK  status: ('A' for Active; 'I' for Inactive)
REMARK    1  A    between atoms: C_1  and  C_2
REMARK    2  A    between atoms: C_4  and  C_5
REMARK    3  A    between atoms: C_10  and  N_11
REMARK    4  A    between atoms: N_11  and  C_12
REMARK    5  A    between atoms: C_12  and  C_13
REMARK    6  A    between atoms: C_17  and  C_18
REMARK                            x       y       z     vdW  Elec       q    Type
REMARK                         _______ _______ _______ _____ _____    ______ ____
ROOT
ATOM      1  N   UNL     1      48.198   6.870  15.520  0.00  0.00    +0.000 N 
ATOM      2  H   UNL     1      47.250   6.514  15.580  0.00  0.00    +0.000 HD
ENDROOT
BRANCH   1   9
ATOM      3  C   UNL     1      47.222   4.358  16.665  0.00  0.00    +0.000 C 
ATOM      4  C   UNL     1      48.647   4.820  16.752  0.00  0.00    +0.000 A 
ATOM      5  C   UNL     1      49.567   4.042  17.478  0.00  0.00    +0.000 A 
ATOM      6  C   UNL     1      50.896   4.443  17.603  0.00  0.00    +0.000 A 
ATOM      7  C   UNL     1      51.251   5.615  16.971  0.00  0.00    +0.000 A 
ATOM      8  N   UNL     1      50.394   6.388  16.259  0.00  0.00    +0.000 NA
ATOM      9  C   UNL     1      49.103   6.004  16.151  0.00  0.00    +0.000 A 
BRANCH   6  10
ATOM     10  C   UNL     1      51.832   3.607  18.393  0.00  0.00    +0.000 C 
ATOM     11  N   UNL     1      52.131   3.971  19.676  0.00  0.00    +0.000 N 
ATOM     12  O   UNL     1      52.334   2.598  17.915  0.00  0.00    +0.000 OA
ATOM     13  H   UNL     1      51.756   4.758  20.178  0.00  0.00    +0.000 HD
ATOM     14  H   UNL     1      52.765   3.358  20.178  0.00  0.00    +0.000 HD
ENDBRANCH   6  10
ENDBRANCH   1   9
BRANCH   1  15
ATOM     15  C   UNL     1      48.544   7.230  14.144  0.00  0.00    +0.000 C 
BRANCH  15  16
ATOM     16  C   UNL     1      47.310   7.330  13.268  0.00  0.00    +0.000 A 
ATOM     17  C   UNL     1      46.548   8.505  13.267  0.00  0.00    +0.000 A 
ATOM     18  C   UNL     1      45.371   8.582  12.525  0.00  0.00    +0.000 A 
ATOM     19  C   UNL     1      44.946   7.486  11.770  0.00  0.00    +0.000 A 
ATOM     20  C   UNL     1      45.682   6.289  11.737  0.00  0.00    +0.000 A 
ATOM     21  C   UNL     1      46.850   6.232  12.521  0.00  0.00    +0.000 A 
BRANCH  20  22
ATOM     22  C   UNL     1      45.270   5.144  10.894  0.00  0.00    +0.000 A 
ATOM     23  C   UNL     1      44.597   4.028  11.433  0.00  0.00    +0.000 A 
ATOM     24  C   UNL     1      44.244   2.929  10.641  0.00  0.00    +0.000 A 
ATOM     25  C   UNL     1      44.545   2.929   9.284  0.00  0.00    +0.000 A 
ATOM     26  C   UNL     1      45.202   4.020   8.738  0.00  0.00    +0.000 A 
ATOM     27  F   UNL     1      45.497   4.024   7.430  0.00  0.00    +0.000 F 
ATOM     28  C   UNL     1      45.569   5.110   9.519  0.00  0.00    +0.000 A 
ENDBRANCH  20  22
ENDBRANCH  15  16
ENDBRANCH   1  15
TORSDOF 5
ENDMDL
