MODEL 1
REMARK VINA RESULT:    -8.072      0.000      0.000
REMARK INTER + INTRA:         -10.584
REMARK INTER:                 -10.432
REMARK INTRA:                  -0.152
REMARK UNBOUND:                -0.152
REMARK  Name = 
REMARK  7 active torsions:
REMARK  status: ('A' for Active; 'I' for Inactive)
REMARK    1  A    between atoms: C_1  and  N_2
REMARK    2  A    between atoms: N_2  and  C_3
REMARK    3  A    between atoms: C_4  and  C_6
REMARK    4  A    between atoms: C_9  and  N_10
REMARK    5  A    between atoms: N_10  and  C_11
REMARK    6  A    between atoms: C_11  and  C_12
REMARK    7  A    between atoms: C_12  and  C_15
REMARK                            x       y       z     vdW  Elec       q    Type
REMARK                         _______ _______ _______ _____ _____    ______ ____
ROOT
ATOM      1  N   UNL     1      43.917   3.718  11.443  0.00  0.00    +0.000 N 
ATOM      2  H   UNL     1      43.185   3.268  11.985  0.00  0.00    +0.000 HD
ENDROOT
BRANCH   1   6
ATOM      3  C   UNL     1      46.833   5.010  14.045  0.00  0.00    +0.000 A 
ATOM      4  C   UNL     1      46.772   3.683  13.641  0.00  0.00    +0.000 A 
ATOM      5  N   UNL     1      45.828   3.214  12.780  0.00  0.00    +0.000 NA
ATOM      6  C   UNL     1      44.945   4.120  12.309  0.00  0.00    +0.000 A 
ATOM      7  C   UNL     1      45.003   5.447  12.742  0.00  0.00    +0.000 A 
ATOM      8  N   UNL     1      45.936   5.926  13.603  0.00  0.00    +0.000 NA
BRANCH   3  12
ATOM      9  C   UNL     1      49.025   5.617  17.119  0.00  0.00    +0.000 C 
ATOM     10  N   UNL     1      47.968   5.072  16.288  0.00  0.00    +0.000 N 
ATOM     11  C   UNL     1      47.119   4.037  16.856  0.00  0.00    +0.000 C 
ATOM     12  C   UNL     1      47.951   5.442  14.938  0.00  0.00    +0.000 C 
ATOM     13  O   UNL     1      48.844   6.135  14.445  0.00  0.00    +0.000 OA
ENDBRANCH   3  12
ENDBRANCH   1   6
BRANCH   1  14
ATOM     14  C   UNL     1      44.376   2.907  10.293  0.00  0.00    +0.000 C 
BRANCH  14  15
ATOM     15  C   UNL     1      44.898   3.788   9.122  0.00  0.00    +0.000 C 
ATOM     16  F   UNL     1      43.807   4.344   8.499  0.00  0.00    +0.000 F 
ATOM     17  F   UNL     1      45.595   4.854   9.620  0.00  0.00    +0.000 F 
BRANCH  15  18
ATOM     18  C   UNL     1      45.736   2.985   8.150  0.00  0.00    +0.000 A 
ATOM     19  C   UNL     1      46.263   3.587   6.994  0.00  0.00    +0.000 A 
ATOM     20  C   UNL     1      47.070   2.850   6.124  0.00  0.00    +0.000 A 
ATOM     21  C   UNL     1      47.358   1.519   6.398  0.00  0.00    +0.000 A 
ATOM     22  C   UNL     1      46.836   0.910   7.537  0.00  0.00    +0.000 A 
ATOM     23  C   UNL     1      46.028   1.639   8.409  0.00  0.00    +0.000 A 
ENDBRANCH  15  18
ENDBRANCH  14  15
ENDBRANCH   1  14
TORSDOF 5
ENDMDL
MODEL 2
REMARK VINA RESULT:    -7.670      1.881      2.312
REMARK INTER + INTRA:         -10.065
REMARK INTER:                  -9.938
REMARK INTRA:                  -0.127
REMARK UNBOUND:                -0.152
REMARK  Name = 
REMARK  7 active torsions:
REMARK  status: ('A' for Active; 'I' for Inactive)
REMARK    1  A    between atoms: C_1  and  N_2
REMARK    2  A    between atoms: N_2  and  C_3
REMARK    3  A    between atoms: C_4  and  C_6
REMARK    4  A    between atoms: C_9  and  N_10
REMARK    5  A    between atoms: N_10  and  C_11
REMARK    6  A    between atoms: C_11  and  C_12
REMARK    7  A    between atoms: C_12  and  C_15
REMARK                            x       y       z     vdW  Elec       q    Type
REMARK                         _______ _______ _______ _____ _____    ______ ____
ROOT
ATOM      1  N   UNL     1      43.738   4.509  10.757  0.00  0.00    +0.000 N 
ATOM      2  H   UNL     1      43.250   3.782  11.273  0.00  0.00    +0.000 HD
ENDROOT
BRANCH   1   6
ATOM      3  C   UNL     1      46.783   6.136  12.996  0.00  0.00    +0.000 A 
ATOM      4  C   UNL     1      45.831   5.309  13.577  0.00  0.00    +0.000 A 
ATOM      5  N   UNL     1      44.810   4.747  12.874  0.00  0.00    +0.000 NA
ATOM      6  C   UNL     1      44.774   5.018  11.553  0.00  0.00    +0.000 A 
ATOM      7  C   UNL     1      45.723   5.871  10.985  0.00  0.00    +0.000 A 
ATOM      8  N   UNL     1      46.743   6.441  11.676  0.00  0.00    +0.000 NA
BRANCH   3  12
ATOM      9  C   UNL     1      49.349   8.431  14.660  0.00  0.00    +0.000 C 
ATOM     10  N   UNL     1      48.178   8.018  13.911  0.00  0.00    +0.000 N 
ATOM     11  C   UNL     1      47.263   9.051  13.450  0.00  0.00    +0.000 C 
ATOM     12  C   UNL     1      47.906   6.647  13.840  0.00  0.00    +0.000 C 
ATOM     13  O   UNL     1      48.582   5.820  14.458  0.00  0.00    +0.000 OA
ENDBRANCH   3  12
ENDBRANCH   1   6
BRANCH   1  14
ATOM     14  C   UNL     1      44.166   4.080   9.406  0.00  0.00    +0.000 C 
BRANCH  14  15
ATOM     15  C   UNL     1      44.837   2.677   9.419  0.00  0.00    +0.000 C 
ATOM     16  F   UNL     1      45.524   2.553  10.600  0.00  0.00    +0.000 F 
ATOM     17  F   UNL     1      43.876   1.706   9.471  0.00  0.00    +0.000 F 
BRANCH  15  18
ATOM     18  C   UNL     1      45.752   2.486   8.228  0.00  0.00    +0.000 A 
ATOM     19  C   UNL     1      45.955   3.529   7.307  0.00  0.00    +0.000 A 
ATOM     20  C   UNL     1      46.832   3.360   6.235  0.00  0.00    +0.000 A 
ATOM     21  C   UNL     1      47.513   2.159   6.072  0.00  0.00    +0.000 A 
ATOM     22  C   UNL     1      47.315   1.115   6.974  0.00  0.00    +0.000 A 
ATOM     23  C   UNL     1      46.438   1.277   8.047  0.00  0.00    +0.000 A 
ENDBRANCH  15  18
ENDBRANCH  14  15
ENDBRANCH   1  14
TORSDOF 5
ENDMDL
MODEL 3
REMARK VINA RESULT:    -7.377      1.712      2.485
REMARK INTER + INTRA:          -9.685
REMARK INTER:                  -9.222
REMARK INTRA:                  -0.463
REMARK UNBOUND:                -0.152
REMARK  Name = 
REMARK  7 active torsions:
REMARK  status: ('A' for Active; 'I' for Inactive)
REMARK    1  A    between atoms: C_1  and  N_2
REMARK    2  A    between atoms: N_2  and  C_3
REMARK    3  A    between atoms: C_4  and  C_6
REMARK    4  A    between atoms: C_9  and  N_10
REMARK    5  A    between atoms: N_10  and  C_11
REMARK    6  A    between atoms: C_11  and  C_12
REMARK    7  A    between atoms: C_12  and  C_15
REMARK                            x       y       z     vdW  Elec       q    Type
REMARK                         _______ _______ _______ _____ _____    ______ ____
ROOT
ATOM      1  N   UNL     1      45.924   5.192  12.455  0.00  0.00    +0.000 N 
ATOM      2  H   UNL     1      45.739   6.178  12.296  0.00  0.00    +0.000 HD
ENDROOT
BRANCH   1   6
ATOM      3  C   UNL     1      48.144   4.944  15.912  0.00  0.00    +0.000 A 
ATOM      4  C   UNL     1      47.209   3.970  15.591  0.00  0.00    +0.000 A 
ATOM      5  N   UNL     1      46.457   4.010  14.458  0.00  0.00    +0.000 NA
ATOM      6  C   UNL     1      46.678   5.052  13.629  0.00  0.00    +0.000 A 
ATOM      7  C   UNL     1      47.604   6.038  13.975  0.00  0.00    +0.000 A 
ATOM      8  N   UNL     1      48.357   6.013  15.104  0.00  0.00    +0.000 NA
BRANCH   3  12
ATOM      9  C   UNL     1      49.419   5.146  19.511  0.00  0.00    +0.000 C 
ATOM     10  N   UNL     1      48.518   5.250  18.380  0.00  0.00    +0.000 N 
ATOM     11  C   UNL     1      47.145   5.658  18.637  0.00  0.00    +0.000 C 
ATOM     12  C   UNL     1      48.971   4.773  17.145  0.00  0.00    +0.000 C 
ATOM     13  O   UNL     1      50.062   4.208  17.030  0.00  0.00    +0.000 OA
ENDBRANCH   3  12
ENDBRANCH   1   6
BRANCH   1  14
ATOM     14  C   UNL     1      44.704   4.353  12.415  0.00  0.00    +0.000 C 
BRANCH  14  15
ATOM     15  C   UNL     1      43.917   4.522  11.084  0.00  0.00    +0.000 C 
ATOM     16  F   UNL     1      42.672   3.973  11.263  0.00  0.00    +0.000 F 
ATOM     17  F   UNL     1      43.684   5.849  10.850  0.00  0.00    +0.000 F 
BRANCH  15  18
ATOM     18  C   UNL     1      44.642   3.875   9.922  0.00  0.00    +0.000 A 
ATOM     19  C   UNL     1      45.329   4.661   8.982  0.00  0.00    +0.000 A 
ATOM     20  C   UNL     1      46.029   4.055   7.937  0.00  0.00    +0.000 A 
ATOM     21  C   UNL     1      46.052   2.670   7.822  0.00  0.00    +0.000 A 
ATOM     22  C   UNL     1      45.368   1.881   8.745  0.00  0.00    +0.000 A 
ATOM     23  C   UNL     1      44.666   2.479   9.790  0.00  0.00    +0.000 A 
ENDBRANCH  15  18
ENDBRANCH  14  15
ENDBRANCH   1  14
TORSDOF 5
ENDMDL
MODEL 4
REMARK VINA RESULT:    -7.324      2.417      3.187
REMARK INTER + INTRA:          -9.617
REMARK INTER:                  -8.943
REMARK INTRA:                  -0.674
REMARK UNBOUND:                -0.152
REMARK  Name = 
REMARK  7 active torsions:
REMARK  status: ('A' for Active; 'I' for Inactive)
REMARK    1  A    between atoms: C_1  and  N_2
REMARK    2  A    between atoms: N_2  and  C_3
REMARK    3  A    between atoms: C_4  and  C_6
REMARK    4  A    between atoms: C_9  and  N_10
REMARK    5  A    between atoms: N_10  and  C_11
REMARK    6  A    between atoms: C_11  and  C_12
REMARK    7  A    between atoms: C_12  and  C_15
REMARK                            x       y       z     vdW  Elec       q    Type
REMARK                         _______ _______ _______ _____ _____    ______ ____
ROOT
ATOM      1  N   UNL     1      44.629   4.344  13.178  0.00  0.00    +0.000 N 
ATOM      2  H   UNL     1      44.363   4.001  14.097  0.00  0.00    +0.000 HD
ENDROOT
BRANCH   1   6
ATOM      3  C   UNL     1      47.601   7.160  13.597  0.00  0.00    +0.000 A 
ATOM      4  C   UNL     1      46.370   7.496  13.052  0.00  0.00    +0.000 A 
ATOM      5  N   UNL     1      45.358   6.598  12.899  0.00  0.00    +0.000 NA
ATOM      6  C   UNL     1      45.602   5.343  13.328  0.00  0.00    +0.000 A 
ATOM      7  C   UNL     1      46.854   5.012  13.852  0.00  0.00    +0.000 A 
ATOM      8  N   UNL     1      47.872   5.896  14.006  0.00  0.00    +0.000 NA
BRANCH   3  12
ATOM      9  C   UNL     1      50.703   9.362  13.204  0.00  0.00    +0.000 C 
ATOM     10  N   UNL     1      49.691   8.369  12.895  0.00  0.00    +0.000 N 
ATOM     11  C   UNL     1      49.748   7.720  11.594  0.00  0.00    +0.000 C 
ATOM     12  C   UNL     1      48.623   8.234  13.788  0.00  0.00    +0.000 C 
ATOM     13  O   UNL     1      48.492   8.984  14.759  0.00  0.00    +0.000 OA
ENDBRANCH   3  12
ENDBRANCH   1   6
BRANCH   1  14
ATOM     14  C   UNL     1      45.007   3.266  12.237  0.00  0.00    +0.000 C 
BRANCH  14  15
ATOM     15  C   UNL     1      44.087   3.230  10.983  0.00  0.00    +0.000 C 
ATOM     16  F   UNL     1      43.289   2.117  11.083  0.00  0.00    +0.000 F 
ATOM     17  F   UNL     1      43.219   4.286  11.016  0.00  0.00    +0.000 F 
BRANCH  15  18
ATOM     18  C   UNL     1      44.892   3.216   9.701  0.00  0.00    +0.000 A 
ATOM     19  C   UNL     1      45.287   4.420   9.091  0.00  0.00    +0.000 A 
ATOM     20  C   UNL     1      46.064   4.398   7.932  0.00  0.00    +0.000 A 
ATOM     21  C   UNL     1      46.454   3.187   7.374  0.00  0.00    +0.000 A 
ATOM     22  C   UNL     1      46.063   1.987   7.966  0.00  0.00    +0.000 A 
ATOM     23  C   UNL     1      45.285   2.001   9.123  0.00  0.00    +0.000 A 
ENDBRANCH  15  18
ENDBRANCH  14  15
ENDBRANCH   1  14
TORSDOF 5
ENDMDL
MODEL 5
REMARK VINA RESULT:    -6.677      2.459      3.810
REMARK INTER + INTRA:          -8.781
REMARK INTER:                  -8.254
REMARK INTRA:                  -0.527
REMARK UNBOUND:                -0.152
REMARK  Name = 
REMARK  7 active torsions:
REMARK  status: ('A' for Active; 'I' for Inactive)
REMARK    1  A    between atoms: C_1  and  N_2
REMARK    2  A    between atoms: N_2  and  C_3
REMARK    3  A    between atoms: C_4  and  C_6
REMARK    4  A    between atoms: C_9  and  N_10
REMARK    5  A    between atoms: N_10  and  C_11
REMARK    6  A    between atoms: C_11  and  C_12
REMARK    7  A    between atoms: C_12  and  C_15
REMARK                            x       y       z     vdW  Elec       q    Type
REMARK                         _______ _______ _______ _____ _____    ______ ____
ROOT
ATOM      1  N   UNL     1      46.587   3.612  13.756  0.00  0.00    +0.000 N 
ATOM      2  H   UNL     1      47.095   3.000  13.123  0.00  0.00    +0.000 HD
ENDROOT
BRANCH   1   6
ATOM      3  C   UNL     1      48.629   4.129  17.291  0.00  0.00    +0.000 A 
ATOM      4  C   UNL     1      48.593   2.894  16.661  0.00  0.00    +0.000 A 
ATOM      5  N   UNL     1      47.934   2.678  15.489  0.00  0.00    +0.000 NA
ATOM      6  C   UNL     1      47.319   3.748  14.944  0.00  0.00    +0.000 A 
ATOM      7  C   UNL     1      47.342   4.981  15.601  0.00  0.00    +0.000 A 
ATOM      8  N   UNL     1      47.992   5.207  16.771  0.00  0.00    +0.000 NA
BRANCH   3  12
ATOM      9  C   UNL     1      51.547   4.626  19.712  0.00  0.00    +0.000 C 
ATOM     10  N   UNL     1      50.799   4.604  18.470  0.00  0.00    +0.000 N 
ATOM     11  C   UNL     1      51.455   5.102  17.270  0.00  0.00    +0.000 C 
ATOM     12  C   UNL     1      49.440   4.280  18.538  0.00  0.00    +0.000 C 
ATOM     13  O   UNL     1      48.870   4.103  19.618  0.00  0.00    +0.000 OA
ENDBRANCH   3  12
ENDBRANCH   1   6
BRANCH   1  14
ATOM     14  C   UNL     1      46.191   4.897  13.137  0.00  0.00    +0.000 C 
BRANCH  14  15
ATOM     15  C   UNL     1      44.793   4.818  12.459  0.00  0.00    +0.000 C 
ATOM     16  F   UNL     1      44.016   3.965  13.202  0.00  0.00    +0.000 F 
ATOM     17  F   UNL     1      44.166   6.030  12.550  0.00  0.00    +0.000 F 
BRANCH  15  18
ATOM     18  C   UNL     1      44.897   4.356  11.021  0.00  0.00    +0.000 A 
ATOM     19  C   UNL     1      45.522   5.162  10.053  0.00  0.00    +0.000 A 
ATOM     20  C   UNL     1      45.650   4.711   8.739  0.00  0.00    +0.000 A 
ATOM     21  C   UNL     1      45.163   3.460   8.379  0.00  0.00    +0.000 A 
ATOM     22  C   UNL     1      44.536   2.654   9.327  0.00  0.00    +0.000 A 
ATOM     23  C   UNL     1      44.403   3.100  10.642  0.00  0.00    +0.000 A 
ENDBRANCH  15  18
ENDBRANCH  14  15
ENDBRANCH   1  14
TORSDOF 5
ENDMDL
MODEL 6
REMARK VINA RESULT:    -6.314      2.218      3.647
REMARK INTER + INTRA:          -8.312
REMARK INTER:                  -7.788
REMARK INTRA:                  -0.524
REMARK UNBOUND:                -0.152
REMARK  Name = 
REMARK  7 active torsions:
REMARK  status: ('A' for Active; 'I' for Inactive)
REMARK    1  A    between atoms: C_1  and  N_2
REMARK    2  A    between atoms: N_2  and  C_3
REMARK    3  A    between atoms: C_4  and  C_6
REMARK    4  A    between atoms: C_9  and  N_10
REMARK    5  A    between atoms: N_10  and  C_11
REMARK    6  A    between atoms: C_11  and  C_12
REMARK    7  A    between atoms: C_12  and  C_15
REMARK                            x       y       z     vdW  Elec       q    Type
REMARK                         _______ _______ _______ _____ _____    ______ ____
ROOT
ATOM      1  N   UNL     1      46.731   4.824  13.155  0.00  0.00    +0.000 N 
ATOM      2  H   UNL     1      47.181   5.447  12.491  0.00  0.00    +0.000 HD
ENDROOT
BRANCH   1   6
ATOM      3  C   UNL     1      48.571   5.054  16.829  0.00  0.00    +0.000 A 
ATOM      4  C   UNL     1      48.767   6.036  15.868  0.00  0.00    +0.000 A 
ATOM      5  N   UNL     1      48.176   6.002  14.643  0.00  0.00    +0.000 NA
ATOM      6  C   UNL     1      47.355   4.958  14.403  0.00  0.00    +0.000 A 
ATOM      7  C   UNL     1      47.185   3.964  15.370  0.00  0.00    +0.000 A 
ATOM      8  N   UNL     1      47.772   3.984  16.593  0.00  0.00    +0.000 NA
BRANCH   3  12
ATOM      9  C   UNL     1      49.327   6.203  20.398  0.00  0.00    +0.000 C 
ATOM     10  N   UNL     1      48.598   5.998  19.160  0.00  0.00    +0.000 N 
ATOM     11  C   UNL     1      47.216   6.447  19.100  0.00  0.00    +0.000 C 
ATOM     12  C   UNL     1      49.209   5.219  18.171  0.00  0.00    +0.000 C 
ATOM     13  O   UNL     1      50.287   4.653  18.366  0.00  0.00    +0.000 OA
ENDBRANCH   3  12
ENDBRANCH   1   6
BRANCH   1  14
ATOM     14  C   UNL     1      45.258   4.975  13.195  0.00  0.00    +0.000 C 
BRANCH  14  15
ATOM     15  C   UNL     1      44.695   5.600  11.887  0.00  0.00    +0.000 C 
ATOM     16  F   UNL     1      43.376   5.910  12.106  0.00  0.00    +0.000 F 
ATOM     17  F   UNL     1      45.302   6.803  11.651  0.00  0.00    +0.000 F 
BRANCH  15  18
ATOM     18  C   UNL     1      44.852   4.662  10.709  0.00  0.00    +0.000 A 
ATOM     19  C   UNL     1      44.344   3.353  10.765  0.00  0.00    +0.000 A 
ATOM     20  C   UNL     1      44.455   2.508   9.659  0.00  0.00    +0.000 A 
ATOM     21  C   UNL     1      45.066   2.957   8.495  0.00  0.00    +0.000 A 
ATOM     22  C   UNL     1      45.580   4.251   8.430  0.00  0.00    +0.000 A 
ATOM     23  C   UNL     1      45.474   5.100   9.531  0.00  0.00    +0.000 A 
ENDBRANCH  15  18
ENDBRANCH  14  15
ENDBRANCH   1  14
TORSDOF 5
ENDMDL
MODEL 7
REMARK VINA RESULT:    -6.243      2.752      3.515
REMARK INTER + INTRA:          -8.220
REMARK INTER:                  -7.714
REMARK INTRA:                  -0.506
REMARK UNBOUND:                -0.152
REMARK  Name = 
REMARK  7 active torsions:
REMARK  status: ('A' for Active; 'I' for Inactive)
REMARK    1  A    between atoms: C_1  and  N_2
REMARK    2  A    between atoms: N_2  and  C_3
REMARK    3  A    between atoms: C_4  and  C_6
REMARK    4  A    between atoms: C_9  and  N_10
REMARK    5  A    between atoms: N_10  and  C_11
REMARK    6  A    between atoms: C_11  and  C_12
REMARK    7  A    between atoms: C_12  and  C_15
REMARK                            x       y       z     vdW  Elec       q    Type
REMARK                         _______ _______ _______ _____ _____    ______ ____
ROOT
ATOM      1  N   UNL     1      46.135   4.815  12.326  0.00  0.00    +0.000 N 
ATOM      2  H   UNL     1      46.402   4.826  11.345  0.00  0.00    +0.000 HD
ENDROOT
BRANCH   1   6
ATOM      3  C   UNL     1      47.908   7.974  14.278  0.00  0.00    +0.000 A 
ATOM      4  C   UNL     1      48.352   6.673  14.471  0.00  0.00    +0.000 A 
ATOM      5  N   UNL     1      47.798   5.600  13.844  0.00  0.00    +0.000 NA
ATOM      6  C   UNL     1      46.787   5.863  12.990  0.00  0.00    +0.000 A 
ATOM      7  C   UNL     1      46.333   7.173  12.823  0.00  0.00    +0.000 A 
ATOM      8  N   UNL     1      46.874   8.251  13.445  0.00  0.00    +0.000 NA
BRANCH   3  12
ATOM      9  C   UNL     1      50.465  10.685  15.135  0.00  0.00    +0.000 C 
ATOM     10  N   UNL     1      49.752   9.681  14.368  0.00  0.00    +0.000 N 
ATOM     11  C   UNL     1      50.128   9.492  12.976  0.00  0.00    +0.000 C 
ATOM     12  C   UNL     1      48.629   9.092  14.959  0.00  0.00    +0.000 C 
ATOM     13  O   UNL     1      48.203   9.465  16.055  0.00  0.00    +0.000 OA
ENDBRANCH   3  12
ENDBRANCH   1   6
BRANCH   1  14
ATOM     14  C   UNL     1      44.669   4.786  12.533  0.00  0.00    +0.000 C 
BRANCH  14  15
ATOM     15  C   UNL     1      43.883   4.945  11.200  0.00  0.00    +0.000 C 
ATOM     16  F   UNL     1      42.586   4.559  11.431  0.00  0.00    +0.000 F 
ATOM     17  F   UNL     1      43.799   6.269  10.868  0.00  0.00    +0.000 F 
BRANCH  15  18
ATOM     18  C   UNL     1      44.507   4.133  10.084  0.00  0.00    +0.000 A 
ATOM     19  C   UNL     1      45.305   4.755   9.108  0.00  0.00    +0.000 A 
ATOM     20  C   UNL     1      45.910   3.994   8.107  0.00  0.00    +0.000 A 
ATOM     21  C   UNL     1      45.730   2.616   8.070  0.00  0.00    +0.000 A 
ATOM     22  C   UNL     1      44.936   1.990   9.029  0.00  0.00    +0.000 A 
ATOM     23  C   UNL     1      44.326   2.744  10.031  0.00  0.00    +0.000 A 
ENDBRANCH  15  18
ENDBRANCH  14  15
ENDBRANCH   1  14
TORSDOF 5
ENDMDL
MODEL 8
REMARK VINA RESULT:    -6.031      4.026      5.504
REMARK INTER + INTRA:          -7.946
REMARK INTER:                  -7.313
REMARK INTRA:                  -0.633
REMARK UNBOUND:                -0.152
REMARK  Name = 
REMARK  7 active torsions:
REMARK  status: ('A' for Active; 'I' for Inactive)
REMARK    1  A    between atoms: C_1  and  N_2
REMARK    2  A    between atoms: N_2  and  C_3
REMARK    3  A    between atoms: C_4  and  C_6
REMARK    4  A    between atoms: C_9  and  N_10
REMARK    5  A    between atoms: N_10  and  C_11
REMARK    6  A    between atoms: C_11  and  C_12
REMARK    7  A    between atoms: C_12  and  C_15
REMARK                            x       y       z     vdW  Elec       q    Type
REMARK                         _______ _______ _______ _____ _____    ______ ____
ROOT
ATOM      1  N   UNL     1      46.193   4.428  14.945  0.00  0.00    +0.000 N 
ATOM      2  H   UNL     1      45.493   3.760  15.256  0.00  0.00    +0.000 HD
ENDROOT
BRANCH   1   6
ATOM      3  C   UNL     1      49.535   4.226  17.337  0.00  0.00    +0.000 A 
ATOM      4  C   UNL     1      48.628   3.176  17.286  0.00  0.00    +0.000 A 
ATOM      5  N   UNL     1      47.513   3.199  16.507  0.00  0.00    +0.000 NA
ATOM      6  C   UNL     1      47.332   4.304  15.752  0.00  0.00    +0.000 A 
ATOM      7  C   UNL     1      48.240   5.363  15.832  0.00  0.00    +0.000 A 
ATOM      8  N   UNL     1      49.353   5.354  16.608  0.00  0.00    +0.000 NA
BRANCH   3  12
ATOM      9  C   UNL     1      52.127   4.596  20.125  0.00  0.00    +0.000 C 
ATOM     10  N   UNL     1      50.862   4.695  19.422  0.00  0.00    +0.000 N 
ATOM     11  C   UNL     1      49.727   5.259  20.136  0.00  0.00    +0.000 C 
ATOM     12  C   UNL     1      50.767   4.075  18.171  0.00  0.00    +0.000 C 
ATOM     13  O   UNL     1      51.690   3.396  17.713  0.00  0.00    +0.000 OA
ENDBRANCH   3  12
ENDBRANCH   1   6
BRANCH   1  14
ATOM     14  C   UNL     1      46.469   4.354  13.492  0.00  0.00    +0.000 C 
BRANCH  14  15
ATOM     15  C   UNL     1      45.558   5.310  12.671  0.00  0.00    +0.000 C 
ATOM     16  F   UNL     1      45.316   4.717  11.457  0.00  0.00    +0.000 F 
ATOM     17  F   UNL     1      44.329   5.402  13.265  0.00  0.00    +0.000 F 
BRANCH  15  18
ATOM     18  C   UNL     1      46.192   6.675  12.499  0.00  0.00    +0.000 A 
ATOM     19  C   UNL     1      45.438   7.844  12.699  0.00  0.00    +0.000 A 
ATOM     20  C   UNL     1      46.040   9.098  12.580  0.00  0.00    +0.000 A 
ATOM     21  C   UNL     1      47.390   9.197  12.265  0.00  0.00    +0.000 A 
ATOM     22  C   UNL     1      48.146   8.045  12.058  0.00  0.00    +0.000 A 
ATOM     23  C   UNL     1      47.551   6.789  12.174  0.00  0.00    +0.000 A 
ENDBRANCH  15  18
ENDBRANCH  14  15
ENDBRANCH   1  14
TORSDOF 5
ENDMDL
MODEL 9
REMARK VINA RESULT:    -5.997      3.537      4.754
REMARK INTER + INTRA:          -7.902
REMARK INTER:                  -7.269
REMARK INTRA:                  -0.633
REMARK UNBOUND:                -0.152
REMARK  Name = 
REMARK  7 active torsions:
REMARK  status: ('A' for Active; 'I' for Inactive)
REMARK    1  A    between atoms: C_1  and  N_2
REMARK    2  A    between atoms: N_2  and  C_3
REMARK    3  A    between atoms: C_4  and  C_6
REMARK    4  A    between atoms: C_9  and  N_10
REMARK    5  A    between atoms: N_10  and  C_11
REMARK    6  A    between atoms: C_11  and  C_12
REMARK    7  A    between atoms: C_12  and  C_15
REMARK                            x       y       z     vdW  Elec       q    Type
REMARK                         _______ _______ _______ _____ _____    ______ ____
ROOT
ATOM      1  N   UNL     1      46.253   5.836  13.699  0.00  0.00    +0.000 N 
ATOM      2  H   UNL     1      46.550   4.912  14.001  0.00  0.00    +0.000 HD
ENDROOT
BRANCH   1   6
ATOM      3  C   UNL     1      49.645   7.877  12.573  0.00  0.00    +0.000 A 
ATOM      4  C   UNL     1      48.591   7.698  11.688  0.00  0.00    +0.000 A 
ATOM      5  N   UNL     1      47.450   7.033  12.019  0.00  0.00    +0.000 NA
ATOM      6  C   UNL     1      47.377   6.562  13.281  0.00  0.00    +0.000 A 
ATOM      7  C   UNL     1      48.455   6.728  14.155  0.00  0.00    +0.000 A 
ATOM      8  N   UNL     1      49.598   7.384  13.836  0.00  0.00    +0.000 NA
BRANCH   3  12
ATOM      9  C   UNL     1      51.964  10.800  11.738  0.00  0.00    +0.000 C 
ATOM     10  N   UNL     1      50.833  10.074  12.283  0.00  0.00    +0.000 N 
ATOM     11  C   UNL     1      49.884  10.808  13.108  0.00  0.00    +0.000 C 
ATOM     12  C   UNL     1      50.825   8.683  12.136  0.00  0.00    +0.000 C 
ATOM     13  O   UNL     1      51.780   8.079  11.640  0.00  0.00    +0.000 OA
ENDBRANCH   3  12
ENDBRANCH   1   6
BRANCH   1  14
ATOM     14  C   UNL     1      45.151   5.803  12.711  0.00  0.00    +0.000 C 
BRANCH  14  15
ATOM     15  C   UNL     1      44.698   4.352  12.382  0.00  0.00    +0.000 C 
ATOM     16  F   UNL     1      45.451   3.495  13.147  0.00  0.00    +0.000 F 
ATOM     17  F   UNL     1      43.413   4.161  12.809  0.00  0.00    +0.000 F 
BRANCH  15  18
ATOM     18  C   UNL     1      44.842   4.043  10.907  0.00  0.00    +0.000 A 
ATOM     19  C   UNL     1      44.355   2.835  10.378  0.00  0.00    +0.000 A 
ATOM     20  C   UNL     1      44.455   2.576   9.010  0.00  0.00    +0.000 A 
ATOM     21  C   UNL     1      45.035   3.512   8.162  0.00  0.00    +0.000 A 
ATOM     22  C   UNL     1      45.527   4.710   8.676  0.00  0.00    +0.000 A 
ATOM     23  C   UNL     1      45.433   4.975  10.041  0.00  0.00    +0.000 A 
ENDBRANCH  15  18
ENDBRANCH  14  15
ENDBRANCH   1  14
TORSDOF 5
ENDMDL
