MODEL 1
REMARK VINA RESULT:    -8.957      0.000      0.000
REMARK INTER + INTRA:         -13.193
REMARK INTER:                 -12.622
REMARK INTRA:                  -0.572
REMARK UNBOUND:                -0.572
REMARK  Name = 
REMARK  7 active torsions:
REMARK  status: ('A' for Active; 'I' for Inactive)
REMARK    1  A    between atoms: C_2  and  C_4
REMARK    2  A    between atoms: C_7  and  N_8
REMARK    3  A    between atoms: N_8  and  C_9
REMARK    4  A    between atoms: C_9  and  C_10
REMARK    5  A    between atoms: C_14  and  C_15
REMARK    6  A    between atoms: C_19  and  O_20
REMARK    7  A    between atoms: O_20  and  C_21
REMARK                            x       y       z     vdW  Elec       q    Type
REMARK                         _______ _______ _______ _____ _____    ______ ____
ROOT
ATOM      1  C   UNL     1      43.896   4.999  11.240  0.00  0.00    +0.000 C 
ATOM      2  C   UNL     1      43.048   4.063  12.097  0.00  0.00    +0.000 C 
ATOM      3  C   UNL     1      42.710   5.510  12.047  0.00  0.00    +0.000 C 
ENDROOT
BRANCH   1   4
ATOM      4  C   UNL     1      45.264   5.431  11.770  0.00  0.00    +0.000 A 
ATOM      5  C   UNL     1      45.913   6.571  11.267  0.00  0.00    +0.000 A 
ATOM      6  C   UNL     1      47.043   7.093  11.890  0.00  0.00    +0.000 A 
ATOM      7  C   UNL     1      47.547   6.485  13.038  0.00  0.00    +0.000 A 
ATOM      8  C   UNL     1      46.962   5.320  13.560  0.00  0.00    +0.000 A 
ATOM      9  C   UNL     1      45.856   4.786  12.874  0.00  0.00    +0.000 A 
BRANCH   8  10
ATOM     10  C   UNL     1      47.406   4.736  14.840  0.00  0.00    +0.000 A 
ATOM     11  C   UNL     1      47.514   3.350  15.000  0.00  0.00    +0.000 A 
ATOM     12  N   UNL     1      47.944   2.727  16.121  0.00  0.00    +0.000 NA
ATOM     13  C   UNL     1      48.311   3.525  17.145  0.00  0.00    +0.000 A 
ATOM     14  C   UNL     1      48.289   4.913  17.100  0.00  0.00    +0.000 A 
ATOM     15  C   UNL     1      47.805   5.520  15.939  0.00  0.00    +0.000 A 
BRANCH  14  16
ATOM     16  O   UNL     1      48.722   5.556  18.222  0.00  0.00    +0.000 OA
BRANCH  16  17
ATOM     17  C   UNL     1      47.716   6.191  18.991  0.00  0.00    +0.000 C 
ATOM     18  F   UNL     1      47.547   7.454  18.530  0.00  0.00    +0.000 F 
ATOM     19  F   UNL     1      46.555   5.530  18.761  0.00  0.00    +0.000 F 
ENDBRANCH  16  17
ENDBRANCH  14  16
ENDBRANCH   8  10
ENDBRANCH   1   4
BRANCH   1  20
ATOM     20  N   UNL     1      43.828   4.771   9.787  0.00  0.00    +0.000 N 
ATOM     21  H   UNL     1      42.911   4.613   9.380  0.00  0.00    +0.000 HD
BRANCH  20  25
ATOM     22  C   UNL     1      46.481   2.388   7.752  0.00  0.00    +0.000 A 
ATOM     23  C   UNL     1      46.436   3.758   7.560  0.00  0.00    +0.000 A 
ATOM     24  N   UNL     1      45.561   4.559   8.228  0.00  0.00    +0.000 NA
ATOM     25  C   UNL     1      44.727   3.947   9.099  0.00  0.00    +0.000 A 
ATOM     26  C   UNL     1      44.813   2.566   9.296  0.00  0.00    +0.000 A 
ATOM     27  N   UNL     1      45.668   1.749   8.633  0.00  0.00    +0.000 NA
BRANCH  22  29
ATOM     28  N   UNL     1      48.524   2.182   6.493  0.00  0.00    +0.000 N 
ATOM     29  C   UNL     1      47.417   1.536   6.974  0.00  0.00    +0.000 C 
ATOM     30  O   UNL     1      47.222   0.339   6.789  0.00  0.00    +0.000 OA
ATOM     31  H   UNL     1      49.218   1.670   5.967  0.00  0.00    +0.000 HD
ATOM     32  H   UNL     1      48.648   3.172   6.679  0.00  0.00    +0.000 HD
ENDBRANCH  22  29
ENDBRANCH  20  25
ENDBRANCH   1  20
TORSDOF 7
ENDMDL
MODEL 2
REMARK VINA RESULT:    -8.407      1.691      2.148
REMARK INTER + INTRA:         -12.419
REMARK INTER:                 -12.020
REMARK INTRA:                  -0.399
REMARK UNBOUND:                -0.572
REMARK  Name = 
REMARK  7 active torsions:
REMARK  status: ('A' for Active; 'I' for Inactive)
REMARK    1  A    between atoms: C_2  and  C_4
REMARK    2  A    between atoms: C_7  and  N_8
REMARK    3  A    between atoms: N_8  and  C_9
REMARK    4  A    between atoms: C_9  and  C_10
REMARK    5  A    between atoms: C_14  and  C_15
REMARK    6  A    between atoms: C_19  and  O_20
REMARK    7  A    between atoms: O_20  and  C_21
REMARK                            x       y       z     vdW  Elec       q    Type
REMARK                         _______ _______ _______ _____ _____    ______ ____
ROOT
ATOM      1  C   UNL     1      44.157   4.695  11.746  0.00  0.00    +0.000 C 
ATOM      2  C   UNL     1      44.017   3.486  12.667  0.00  0.00    +0.000 C 
ATOM      3  C   UNL     1      43.096   4.641  12.836  0.00  0.00    +0.000 C 
ENDROOT
BRANCH   1   4
ATOM      4  C   UNL     1      45.296   5.681  12.009  0.00  0.00    +0.000 A 
ATOM      5  C   UNL     1      45.316   6.948  11.402  0.00  0.00    +0.000 A 
ATOM      6  C   UNL     1      46.222   7.927  11.802  0.00  0.00    +0.000 A 
ATOM      7  C   UNL     1      47.126   7.659  12.829  0.00  0.00    +0.000 A 
ATOM      8  C   UNL     1      47.176   6.397  13.442  0.00  0.00    +0.000 A 
ATOM      9  C   UNL     1      46.286   5.413  12.975  0.00  0.00    +0.000 A 
BRANCH   8  10
ATOM     10  C   UNL     1      48.040   6.136  14.609  0.00  0.00    +0.000 A 
ATOM     11  C   UNL     1      49.287   6.758  14.734  0.00  0.00    +0.000 A 
ATOM     12  N   UNL     1      50.130   6.608  15.782  0.00  0.00    +0.000 NA
ATOM     13  C   UNL     1      49.705   5.807  16.780  0.00  0.00    +0.000 A 
ATOM     14  C   UNL     1      48.474   5.164  16.797  0.00  0.00    +0.000 A 
ATOM     15  C   UNL     1      47.645   5.315  15.682  0.00  0.00    +0.000 A 
BRANCH  14  16
ATOM     16  O   UNL     1      48.203   4.415  17.903  0.00  0.00    +0.000 OA
BRANCH  16  17
ATOM     17  C   UNL     1      48.131   3.016  17.695  0.00  0.00    +0.000 C 
ATOM     18  F   UNL     1      46.845   2.679  17.434  0.00  0.00    +0.000 F 
ATOM     19  F   UNL     1      48.845   2.739  16.575  0.00  0.00    +0.000 F 
ENDBRANCH  16  17
ENDBRANCH  14  16
ENDBRANCH   8  10
ENDBRANCH   1   4
BRANCH   1  20
ATOM     20  N   UNL     1      43.850   4.454  10.326  0.00  0.00    +0.000 N 
ATOM     21  H   UNL     1      42.918   4.120  10.099  0.00  0.00    +0.000 HD
BRANCH  20  25
ATOM     22  C   UNL     1      46.439   2.559   7.764  0.00  0.00    +0.000 A 
ATOM     23  C   UNL     1      45.661   1.854   8.668  0.00  0.00    +0.000 A 
ATOM     24  N   UNL     1      44.799   2.472   9.522  0.00  0.00    +0.000 NA
ATOM     25  C   UNL     1      44.737   3.820   9.448  0.00  0.00    +0.000 A 
ATOM     26  C   UNL     1      45.512   4.504   8.506  0.00  0.00    +0.000 A 
ATOM     27  N   UNL     1      46.384   3.912   7.655  0.00  0.00    +0.000 NA
BRANCH  22  29
ATOM     28  N   UNL     1      48.477   2.611   6.480  0.00  0.00    +0.000 N 
ATOM     29  C   UNL     1      47.404   1.859   6.877  0.00  0.00    +0.000 C 
ATOM     30  O   UNL     1      47.260   0.689   6.538  0.00  0.00    +0.000 OA
ATOM     31  H   UNL     1      49.187   2.204   5.889  0.00  0.00    +0.000 HD
ATOM     32  H   UNL     1      48.559   3.573   6.793  0.00  0.00    +0.000 HD
ENDBRANCH  22  29
ENDBRANCH  20  25
ENDBRANCH   1  20
TORSDOF 7
ENDMDL
MODEL 3
REMARK VINA RESULT:    -8.123      3.654      4.900
REMARK INTER + INTRA:         -12.019
REMARK INTER:                 -10.937
REMARK INTRA:                  -1.082
REMARK UNBOUND:                -0.572
REMARK  Name = 
REMARK  7 active torsions:
REMARK  status: ('A' for Active; 'I' for Inactive)
REMARK    1  A    between atoms: C_2  and  C_4
REMARK    2  A    between atoms: C_7  and  N_8
REMARK    3  A    between atoms: N_8  and  C_9
REMARK    4  A    between atoms: C_9  and  C_10
REMARK    5  A    between atoms: C_14  and  C_15
REMARK    6  A    between atoms: C_19  and  O_20
REMARK    7  A    between atoms: O_20  and  C_21
REMARK                            x       y       z     vdW  Elec       q    Type
REMARK                         _______ _______ _______ _____ _____    ______ ____
ROOT
ATOM      1  C   UNL     1      43.820   4.921  11.520  0.00  0.00    +0.000 C 
ATOM      2  C   UNL     1      42.475   5.301  12.134  0.00  0.00    +0.000 C 
ATOM      3  C   UNL     1      43.029   6.125  11.027  0.00  0.00    +0.000 C 
ENDROOT
BRANCH   1   4
ATOM      4  C   UNL     1      45.095   5.265  12.291  0.00  0.00    +0.000 A 
ATOM      5  C   UNL     1      45.725   4.318  13.116  0.00  0.00    +0.000 A 
ATOM      6  C   UNL     1      46.993   4.548  13.643  0.00  0.00    +0.000 A 
ATOM      7  C   UNL     1      47.664   5.734  13.347  0.00  0.00    +0.000 A 
ATOM      8  C   UNL     1      47.065   6.731  12.562  0.00  0.00    +0.000 A 
ATOM      9  C   UNL     1      45.760   6.492  12.093  0.00  0.00    +0.000 A 
BRANCH   8  10
ATOM     10  C   UNL     1      47.806   7.935  12.139  0.00  0.00    +0.000 A 
ATOM     11  C   UNL     1      47.230   9.206  12.238  0.00  0.00    +0.000 A 
ATOM     12  N   UNL     1      47.843  10.366  11.910  0.00  0.00    +0.000 NA
ATOM     13  C   UNL     1      49.115  10.267  11.473  0.00  0.00    +0.000 A 
ATOM     14  C   UNL     1      49.814   9.071  11.367  0.00  0.00    +0.000 A 
ATOM     15  C   UNL     1      49.136   7.890  11.681  0.00  0.00    +0.000 A 
BRANCH  14  16
ATOM     16  O   UNL     1      51.102   9.166  10.932  0.00  0.00    +0.000 OA
BRANCH  16  17
ATOM     17  C   UNL     1      52.022   8.275  11.538  0.00  0.00    +0.000 C 
ATOM     18  F   UNL     1      52.549   7.474  10.582  0.00  0.00    +0.000 F 
ATOM     19  F   UNL     1      53.041   9.023  12.030  0.00  0.00    +0.000 F 
ENDBRANCH  16  17
ENDBRANCH  14  16
ENDBRANCH   8  10
ENDBRANCH   1   4
BRANCH   1  20
ATOM     20  N   UNL     1      43.851   3.640  10.795  0.00  0.00    +0.000 N 
ATOM     21  H   UNL     1      43.849   2.788  11.349  0.00  0.00    +0.000 HD
BRANCH  20  25
ATOM     22  C   UNL     1      46.273   2.914   7.560  0.00  0.00    +0.000 A 
ATOM     23  C   UNL     1      45.834   1.893   8.386  0.00  0.00    +0.000 A 
ATOM     24  N   UNL     1      45.031   2.121   9.461  0.00  0.00    +0.000 NA
ATOM     25  C   UNL     1      44.677   3.406   9.690  0.00  0.00    +0.000 A 
ATOM     26  C   UNL     1      45.110   4.414   8.823  0.00  0.00    +0.000 A 
ATOM     27  N   UNL     1      45.919   4.211   7.755  0.00  0.00    +0.000 NA
BRANCH  22  29
ATOM     28  N   UNL     1      48.334   1.969   6.748  0.00  0.00    +0.000 N 
ATOM     29  C   UNL     1      47.186   2.638   6.421  0.00  0.00    +0.000 C 
ATOM     30  O   UNL     1      46.923   2.969   5.269  0.00  0.00    +0.000 OA
ATOM     31  H   UNL     1      49.000   1.728   6.028  0.00  0.00    +0.000 HD
ATOM     32  H   UNL     1      48.505   1.707   7.714  0.00  0.00    +0.000 HD
ENDBRANCH  22  29
ENDBRANCH  20  25
ENDBRANCH   1  20
TORSDOF 7
ENDMDL
MODEL 4
REMARK VINA RESULT:    -8.051      4.008      8.696
REMARK INTER + INTRA:         -11.917
REMARK INTER:                 -10.805
REMARK INTRA:                  -1.112
REMARK UNBOUND:                -0.572
REMARK  Name = 
REMARK  7 active torsions:
REMARK  status: ('A' for Active; 'I' for Inactive)
REMARK    1  A    between atoms: C_2  and  C_4
REMARK    2  A    between atoms: C_7  and  N_8
REMARK    3  A    between atoms: N_8  and  C_9
REMARK    4  A    between atoms: C_9  and  C_10
REMARK    5  A    between atoms: C_14  and  C_15
REMARK    6  A    between atoms: C_19  and  O_20
REMARK    7  A    between atoms: O_20  and  C_21
REMARK                            x       y       z     vdW  Elec       q    Type
REMARK                         _______ _______ _______ _____ _____    ______ ____
ROOT
ATOM      1  C   UNL     1      48.640   8.014  12.679  0.00  0.00    +0.000 C 
ATOM      2  C   UNL     1      49.462   8.733  11.612  0.00  0.00    +0.000 C 
ATOM      3  C   UNL     1      48.989   9.491  12.801  0.00  0.00    +0.000 C 
ENDROOT
BRANCH   1   4
ATOM      4  C   UNL     1      47.167   7.726  12.390  0.00  0.00    +0.000 A 
ATOM      5  C   UNL     1      46.184   8.715  12.561  0.00  0.00    +0.000 A 
ATOM      6  C   UNL     1      44.885   8.533  12.095  0.00  0.00    +0.000 A 
ATOM      7  C   UNL     1      44.542   7.352  11.438  0.00  0.00    +0.000 A 
ATOM      8  C   UNL     1      45.473   6.314  11.276  0.00  0.00    +0.000 A 
ATOM      9  C   UNL     1      46.761   6.508  11.809  0.00  0.00    +0.000 A 
BRANCH   8  10
ATOM     10  C   UNL     1      45.163   5.112  10.478  0.00  0.00    +0.000 A 
ATOM     11  C   UNL     1      44.374   4.083  11.004  0.00  0.00    +0.000 A 
ATOM     12  N   UNL     1      44.009   2.964  10.337  0.00  0.00    +0.000 NA
ATOM     13  C   UNL     1      44.435   2.863   9.062  0.00  0.00    +0.000 A 
ATOM     14  C   UNL     1      45.189   3.830   8.410  0.00  0.00    +0.000 A 
ATOM     15  C   UNL     1      45.576   4.956   9.142  0.00  0.00    +0.000 A 
BRANCH  14  16
ATOM     16  O   UNL     1      45.506   3.569   7.111  0.00  0.00    +0.000 OA
BRANCH  16  17
ATOM     17  C   UNL     1      46.882   3.363   6.844  0.00  0.00    +0.000 C 
ATOM     18  F   UNL     1      47.300   2.270   7.529  0.00  0.00    +0.000 F 
ATOM     19  F   UNL     1      46.996   3.067   5.526  0.00  0.00    +0.000 F 
ENDBRANCH  16  17
ENDBRANCH  14  16
ENDBRANCH   8  10
ENDBRANCH   1   4
BRANCH   1  20
ATOM     20  N   UNL     1      49.350   6.966  13.432  0.00  0.00    +0.000 N 
ATOM     21  H   UNL     1      49.575   6.107  12.939  0.00  0.00    +0.000 HD
BRANCH  20  25
ATOM     22  C   UNL     1      48.360   5.887  17.268  0.00  0.00    +0.000 A 
ATOM     23  C   UNL     1      47.973   5.129  16.175  0.00  0.00    +0.000 A 
ATOM     24  N   UNL     1      48.296   5.477  14.898  0.00  0.00    +0.000 NA
ATOM     25  C   UNL     1      49.018   6.610  14.744  0.00  0.00    +0.000 A 
ATOM     26  C   UNL     1      49.420   7.339  15.867  0.00  0.00    +0.000 A 
ATOM     27  N   UNL     1      49.101   7.019  17.145  0.00  0.00    +0.000 NA
BRANCH  22  29
ATOM     28  N   UNL     1      46.602   5.466  18.860  0.00  0.00    +0.000 N 
ATOM     29  C   UNL     1      47.954   5.505  18.645  0.00  0.00    +0.000 C 
ATOM     30  O   UNL     1      48.767   5.228  19.520  0.00  0.00    +0.000 OA
ATOM     31  H   UNL     1      46.244   5.199  19.766  0.00  0.00    +0.000 HD
ATOM     32  H   UNL     1      45.967   5.694  18.103  0.00  0.00    +0.000 HD
ENDBRANCH  22  29
ENDBRANCH  20  25
ENDBRANCH   1  20
TORSDOF 7
ENDMDL
MODEL 5
REMARK VINA RESULT:    -7.168      4.047      8.646
REMARK INTER + INTRA:         -10.674
REMARK INTER:                  -9.710
REMARK INTRA:                  -0.964
REMARK UNBOUND:                -0.572
REMARK  Name = 
REMARK  7 active torsions:
REMARK  status: ('A' for Active; 'I' for Inactive)
REMARK    1  A    between atoms: C_2  and  C_4
REMARK    2  A    between atoms: C_7  and  N_8
REMARK    3  A    between atoms: N_8  and  C_9
REMARK    4  A    between atoms: C_9  and  C_10
REMARK    5  A    between atoms: C_14  and  C_15
REMARK    6  A    between atoms: C_19  and  O_20
REMARK    7  A    between atoms: O_20  and  C_21
REMARK                            x       y       z     vdW  Elec       q    Type
REMARK                         _______ _______ _______ _____ _____    ______ ____
ROOT
ATOM      1  C   UNL     1      49.609   7.939  12.716  0.00  0.00    +0.000 C 
ATOM      2  C   UNL     1      50.308   7.754  11.372  0.00  0.00    +0.000 C 
ATOM      3  C   UNL     1      50.150   9.124  11.928  0.00  0.00    +0.000 C 
ENDROOT
BRANCH   1   4
ATOM      4  C   UNL     1      48.084   7.843  12.762  0.00  0.00    +0.000 A 
ATOM      5  C   UNL     1      47.287   8.992  12.900  0.00  0.00    +0.000 A 
ATOM      6  C   UNL     1      45.907   8.939  12.722  0.00  0.00    +0.000 A 
ATOM      7  C   UNL     1      45.294   7.731  12.394  0.00  0.00    +0.000 A 
ATOM      8  C   UNL     1      46.037   6.545  12.285  0.00  0.00    +0.000 A 
ATOM      9  C   UNL     1      47.421   6.622  12.527  0.00  0.00    +0.000 A 
BRANCH   8  10
ATOM     10  C   UNL     1      45.425   5.286  11.820  0.00  0.00    +0.000 A 
ATOM     11  C   UNL     1      44.938   4.343  12.732  0.00  0.00    +0.000 A 
ATOM     12  N   UNL     1      44.330   3.181  12.400  0.00  0.00    +0.000 NA
ATOM     13  C   UNL     1      44.177   2.942  11.082  0.00  0.00    +0.000 A 
ATOM     14  C   UNL     1      44.579   3.813  10.078  0.00  0.00    +0.000 A 
ATOM     15  C   UNL     1      45.234   4.987  10.458  0.00  0.00    +0.000 A 
BRANCH  14  16
ATOM     16  O   UNL     1      44.318   3.417   8.800  0.00  0.00    +0.000 OA
BRANCH  16  17
ATOM     17  C   UNL     1      45.427   2.919   8.072  0.00  0.00    +0.000 C 
ATOM     18  F   UNL     1      46.310   3.928   7.878  0.00  0.00    +0.000 F 
ATOM     19  F   UNL     1      46.044   2.003   8.858  0.00  0.00    +0.000 F 
ENDBRANCH  16  17
ENDBRANCH  14  16
ENDBRANCH   8  10
ENDBRANCH   1   4
BRANCH   1  20
ATOM     20  N   UNL     1      50.310   7.375  13.883  0.00  0.00    +0.000 N 
ATOM     21  H   UNL     1      50.813   6.502  13.750  0.00  0.00    +0.000 HD
BRANCH  20  25
ATOM     22  C   UNL     1      48.663   7.209  17.640  0.00  0.00    +0.000 A 
ATOM     23  C   UNL     1      48.794   6.079  16.851  0.00  0.00    +0.000 A 
ATOM     24  N   UNL     1      49.339   6.121  15.604  0.00  0.00    +0.000 NA
ATOM     25  C   UNL     1      49.750   7.332  15.164  0.00  0.00    +0.000 A 
ATOM     26  C   UNL     1      49.632   8.452  15.993  0.00  0.00    +0.000 A 
ATOM     27  N   UNL     1      49.083   8.435  17.232  0.00  0.00    +0.000 NA
BRANCH  22  29
ATOM     28  N   UNL     1      48.175   8.256  19.754  0.00  0.00    +0.000 N 
ATOM     29  C   UNL     1      48.023   7.138  18.979  0.00  0.00    +0.000 C 
ATOM     30  O   UNL     1      47.389   6.157  19.356  0.00  0.00    +0.000 OA
ATOM     31  H   UNL     1      47.756   8.293  20.672  0.00  0.00    +0.000 HD
ATOM     32  H   UNL     1      48.700   9.047  19.396  0.00  0.00    +0.000 HD
ENDBRANCH  22  29
ENDBRANCH  20  25
ENDBRANCH   1  20
TORSDOF 7
ENDMDL
MODEL 6
REMARK VINA RESULT:    -7.044      4.134      8.586
REMARK INTER + INTRA:         -10.499
REMARK INTER:                 -10.283
REMARK INTRA:                  -0.216
REMARK UNBOUND:                -0.572
REMARK  Name = 
REMARK  7 active torsions:
REMARK  status: ('A' for Active; 'I' for Inactive)
REMARK    1  A    between atoms: C_2  and  C_4
REMARK    2  A    between atoms: C_7  and  N_8
REMARK    3  A    between atoms: N_8  and  C_9
REMARK    4  A    between atoms: C_9  and  C_10
REMARK    5  A    between atoms: C_14  and  C_15
REMARK    6  A    between atoms: C_19  and  O_20
REMARK    7  A    between atoms: O_20  and  C_21
REMARK                            x       y       z     vdW  Elec       q    Type
REMARK                         _______ _______ _______ _____ _____    ______ ____
ROOT
ATOM      1  C   UNL     1      48.198   4.643  16.897  0.00  0.00    +0.000 C 
ATOM      2  C   UNL     1      47.168   4.680  18.024  0.00  0.00    +0.000 C 
ATOM      3  C   UNL     1      47.359   3.423  17.254  0.00  0.00    +0.000 C 
ENDROOT
BRANCH   1   4
ATOM      4  C   UNL     1      47.840   5.298  15.563  0.00  0.00    +0.000 A 
ATOM      5  C   UNL     1      48.624   6.333  15.026  0.00  0.00    +0.000 A 
ATOM      6  C   UNL     1      48.436   6.780  13.721  0.00  0.00    +0.000 A 
ATOM      7  C   UNL     1      47.458   6.193  12.920  0.00  0.00    +0.000 A 
ATOM      8  C   UNL     1      46.619   5.184  13.418  0.00  0.00    +0.000 A 
ATOM      9  C   UNL     1      46.798   4.795  14.759  0.00  0.00    +0.000 A 
BRANCH   8  10
ATOM     10  C   UNL     1      45.665   4.470  12.549  0.00  0.00    +0.000 A 
ATOM     11  C   UNL     1      44.770   3.534  13.080  0.00  0.00    +0.000 A 
ATOM     12  N   UNL     1      43.838   2.858  12.369  0.00  0.00    +0.000 NA
ATOM     13  C   UNL     1      43.773   3.139  11.051  0.00  0.00    +0.000 A 
ATOM     14  C   UNL     1      44.575   4.074  10.410  0.00  0.00    +0.000 A 
ATOM     15  C   UNL     1      45.550   4.726  11.170  0.00  0.00    +0.000 A 
BRANCH  14  16
ATOM     16  O   UNL     1      44.349   4.244   9.077  0.00  0.00    +0.000 OA
BRANCH  16  17
ATOM     17  C   UNL     1      45.219   3.537   8.211  0.00  0.00    +0.000 C 
ATOM     18  F   UNL     1      46.279   4.328   7.915  0.00  0.00    +0.000 F 
ATOM     19  F   UNL     1      45.702   2.477   8.906  0.00  0.00    +0.000 F 
ENDBRANCH  16  17
ENDBRANCH  14  16
ENDBRANCH   8  10
ENDBRANCH   1   4
BRANCH   1  20
ATOM     20  N   UNL     1      49.603   4.789  17.312  0.00  0.00    +0.000 N 
ATOM     21  H   UNL     1      50.133   5.557  16.910  0.00  0.00    +0.000 HD
BRANCH  20  25
ATOM     22  C   UNL     1      52.206   1.637  17.687  0.00  0.00    +0.000 A 
ATOM     23  C   UNL     1      52.526   2.904  18.144  0.00  0.00    +0.000 A 
ATOM     24  N   UNL     1      51.671   3.957  18.025  0.00  0.00    +0.000 NA
ATOM     25  C   UNL     1      50.482   3.706  17.433  0.00  0.00    +0.000 A 
ATOM     26  C   UNL     1      50.173   2.411  17.008  0.00  0.00    +0.000 A 
ATOM     27  N   UNL     1      51.013   1.351  17.105  0.00  0.00    +0.000 NA
BRANCH  22  29
ATOM     28  N   UNL     1      53.439  -0.134  16.615  0.00  0.00    +0.000 N 
ATOM     29  C   UNL     1      53.179   0.518  17.791  0.00  0.00    +0.000 C 
ATOM     30  O   UNL     1      53.723   0.212  18.847  0.00  0.00    +0.000 OA
ATOM     31  H   UNL     1      54.102  -0.896  16.598  0.00  0.00    +0.000 HD
ATOM     32  H   UNL     1      52.973   0.161  15.764  0.00  0.00    +0.000 HD
ENDBRANCH  22  29
ENDBRANCH  20  25
ENDBRANCH   1  20
TORSDOF 7
ENDMDL
MODEL 7
REMARK VINA RESULT:    -6.872      3.431      4.990
REMARK INTER + INTRA:         -10.256
REMARK INTER:                  -9.472
REMARK INTRA:                  -0.784
REMARK UNBOUND:                -0.572
REMARK  Name = 
REMARK  7 active torsions:
REMARK  status: ('A' for Active; 'I' for Inactive)
REMARK    1  A    between atoms: C_2  and  C_4
REMARK    2  A    between atoms: C_7  and  N_8
REMARK    3  A    between atoms: N_8  and  C_9
REMARK    4  A    between atoms: C_9  and  C_10
REMARK    5  A    between atoms: C_14  and  C_15
REMARK    6  A    between atoms: C_19  and  O_20
REMARK    7  A    between atoms: O_20  and  C_21
REMARK                            x       y       z     vdW  Elec       q    Type
REMARK                         _______ _______ _______ _____ _____    ______ ____
ROOT
ATOM      1  C   UNL     1      47.437   8.275  13.260  0.00  0.00    +0.000 C 
ATOM      2  C   UNL     1      47.825   9.485  12.413  0.00  0.00    +0.000 C 
ATOM      3  C   UNL     1      48.348   8.142  12.047  0.00  0.00    +0.000 C 
ENDROOT
BRANCH   1   4
ATOM      4  C   UNL     1      48.132   8.078  14.607  0.00  0.00    +0.000 A 
ATOM      5  C   UNL     1      48.276   9.140  15.515  0.00  0.00    +0.000 A 
ATOM      6  C   UNL     1      48.705   8.922  16.822  0.00  0.00    +0.000 A 
ATOM      7  C   UNL     1      48.994   7.629  17.251  0.00  0.00    +0.000 A 
ATOM      8  C   UNL     1      48.906   6.535  16.375  0.00  0.00    +0.000 A 
ATOM      9  C   UNL     1      48.525   6.798  15.046  0.00  0.00    +0.000 A 
BRANCH   8  10
ATOM     10  C   UNL     1      49.089   5.149  16.844  0.00  0.00    +0.000 A 
ATOM     11  C   UNL     1      48.037   4.228  16.795  0.00  0.00    +0.000 A 
ATOM     12  N   UNL     1      48.121   2.930  17.169  0.00  0.00    +0.000 NA
ATOM     13  C   UNL     1      49.327   2.509  17.601  0.00  0.00    +0.000 A 
ATOM     14  C   UNL     1      50.459   3.311  17.660  0.00  0.00    +0.000 A 
ATOM     15  C   UNL     1      50.326   4.654  17.300  0.00  0.00    +0.000 A 
BRANCH  14  16
ATOM     16  O   UNL     1      51.600   2.706  18.099  0.00  0.00    +0.000 OA
BRANCH  16  17
ATOM     17  C   UNL     1      52.003   1.558  17.374  0.00  0.00    +0.000 C 
ATOM     18  F   UNL     1      53.349   1.591  17.217  0.00  0.00    +0.000 F 
ATOM     19  F   UNL     1      51.724   0.478  18.145  0.00  0.00    +0.000 F 
ENDBRANCH  16  17
ENDBRANCH  14  16
ENDBRANCH   8  10
ENDBRANCH   1   4
BRANCH   1  20
ATOM     20  N   UNL     1      46.012   7.904  13.227  0.00  0.00    +0.000 N 
ATOM     21  H   UNL     1      45.458   8.101  14.055  0.00  0.00    +0.000 HD
BRANCH  20  25
ATOM     22  C   UNL     1      44.643   4.362  11.665  0.00  0.00    +0.000 A 
ATOM     23  C   UNL     1      44.472   5.566  11.002  0.00  0.00    +0.000 A 
ATOM     24  N   UNL     1      44.922   6.747  11.510  0.00  0.00    +0.000 NA
ATOM     25  C   UNL     1      45.550   6.690  12.706  0.00  0.00    +0.000 A 
ATOM     26  C   UNL     1      45.734   5.458  13.340  0.00  0.00    +0.000 A 
ATOM     27  N   UNL     1      45.285   4.273  12.859  0.00  0.00    +0.000 NA
BRANCH  22  29
ATOM     28  N   UNL     1      44.924   2.457  10.219  0.00  0.00    +0.000 N 
ATOM     29  C   UNL     1      44.101   3.097  11.106  0.00  0.00    +0.000 C 
ATOM     30  O   UNL     1      43.005   2.650  11.427  0.00  0.00    +0.000 OA
ATOM     31  H   UNL     1      44.635   1.581   9.805  0.00  0.00    +0.000 HD
ATOM     32  H   UNL     1      45.826   2.860   9.990  0.00  0.00    +0.000 HD
ENDBRANCH  22  29
ENDBRANCH  20  25
ENDBRANCH   1  20
TORSDOF 7
ENDMDL
MODEL 8
REMARK VINA RESULT:    -6.780      4.102      8.321
REMARK INTER + INTRA:         -10.126
REMARK INTER:                  -9.180
REMARK INTRA:                  -0.946
REMARK UNBOUND:                -0.572
REMARK  Name = 
REMARK  7 active torsions:
REMARK  status: ('A' for Active; 'I' for Inactive)
REMARK    1  A    between atoms: C_2  and  C_4
REMARK    2  A    between atoms: C_7  and  N_8
REMARK    3  A    between atoms: N_8  and  C_9
REMARK    4  A    between atoms: C_9  and  C_10
REMARK    5  A    between atoms: C_14  and  C_15
REMARK    6  A    between atoms: C_19  and  O_20
REMARK    7  A    between atoms: O_20  and  C_21
REMARK                            x       y       z     vdW  Elec       q    Type
REMARK                         _______ _______ _______ _____ _____    ______ ____
ROOT
ATOM      1  C   UNL     1      49.289   9.082  15.493  0.00  0.00    +0.000 C 
ATOM      2  C   UNL     1      49.685  10.537  15.732  0.00  0.00    +0.000 C 
ATOM      3  C   UNL     1      48.324  10.080  16.120  0.00  0.00    +0.000 C 
ENDROOT
BRANCH   1   4
ATOM      4  C   UNL     1      48.929   8.650  14.071  0.00  0.00    +0.000 A 
ATOM      5  C   UNL     1      49.759   8.966  12.982  0.00  0.00    +0.000 A 
ATOM      6  C   UNL     1      49.557   8.393  11.729  0.00  0.00    +0.000 A 
ATOM      7  C   UNL     1      48.518   7.484  11.540  0.00  0.00    +0.000 A 
ATOM      8  C   UNL     1      47.633   7.164  12.583  0.00  0.00    +0.000 A 
ATOM      9  C   UNL     1      47.831   7.803  13.821  0.00  0.00    +0.000 A 
BRANCH   8  10
ATOM     10  C   UNL     1      46.607   6.114  12.435  0.00  0.00    +0.000 A 
ATOM     11  C   UNL     1      46.220   5.328  13.525  0.00  0.00    +0.000 A 
ATOM     12  N   UNL     1      45.265   4.370  13.493  0.00  0.00    +0.000 NA
ATOM     13  C   UNL     1      44.640   4.189  12.312  0.00  0.00    +0.000 A 
ATOM     14  C   UNL     1      44.902   4.929  11.167  0.00  0.00    +0.000 A 
ATOM     15  C   UNL     1      45.918   5.886  11.229  0.00  0.00    +0.000 A 
BRANCH  14  16
ATOM     16  O   UNL     1      44.151   4.625  10.071  0.00  0.00    +0.000 OA
BRANCH  16  17
ATOM     17  C   UNL     1      44.726   3.691   9.173  0.00  0.00    +0.000 C 
ATOM     18  F   UNL     1      44.073   2.510   9.295  0.00  0.00    +0.000 F 
ATOM     19  F   UNL     1      44.488   4.143   7.917  0.00  0.00    +0.000 F 
ENDBRANCH  16  17
ENDBRANCH  14  16
ENDBRANCH   8  10
ENDBRANCH   1   4
BRANCH   1  20
ATOM     20  N   UNL     1      50.024   8.082  16.286  0.00  0.00    +0.000 N 
ATOM     21  H   UNL     1      50.957   7.832  15.975  0.00  0.00    +0.000 HD
BRANCH  20  25
ATOM     22  C   UNL     1      48.307   4.639  17.719  0.00  0.00    +0.000 A 
ATOM     23  C   UNL     1      49.126   4.635  16.602  0.00  0.00    +0.000 A 
ATOM     24  N   UNL     1      49.701   5.770  16.118  0.00  0.00    +0.000 NA
ATOM     25  C   UNL     1      49.432   6.916  16.784  0.00  0.00    +0.000 A 
ATOM     26  C   UNL     1      48.625   6.886  17.926  0.00  0.00    +0.000 A 
ATOM     27  N   UNL     1      48.034   5.771  18.418  0.00  0.00    +0.000 NA
BRANCH  22  29
ATOM     28  N   UNL     1      48.144   2.900  19.378  0.00  0.00    +0.000 N 
ATOM     29  C   UNL     1      47.658   3.390  18.195  0.00  0.00    +0.000 C 
ATOM     30  O   UNL     1      46.743   2.847  17.585  0.00  0.00    +0.000 OA
ATOM     31  H   UNL     1      47.745   2.063  19.778  0.00  0.00    +0.000 HD
ATOM     32  H   UNL     1      48.896   3.388  19.852  0.00  0.00    +0.000 HD
ENDBRANCH  22  29
ENDBRANCH  20  25
ENDBRANCH   1  20
TORSDOF 7
ENDMDL
MODEL 9
REMARK VINA RESULT:    -6.676      5.408      7.958
REMARK INTER + INTRA:          -9.980
REMARK INTER:                  -9.012
REMARK INTRA:                  -0.968
REMARK UNBOUND:                -0.572
REMARK  Name = 
REMARK  7 active torsions:
REMARK  status: ('A' for Active; 'I' for Inactive)
REMARK    1  A    between atoms: C_2  and  C_4
REMARK    2  A    between atoms: C_7  and  N_8
REMARK    3  A    between atoms: N_8  and  C_9
REMARK    4  A    between atoms: C_9  and  C_10
REMARK    5  A    between atoms: C_14  and  C_15
REMARK    6  A    between atoms: C_19  and  O_20
REMARK    7  A    between atoms: O_20  and  C_21
REMARK                            x       y       z     vdW  Elec       q    Type
REMARK                         _______ _______ _______ _____ _____    ______ ____
ROOT
ATOM      1  C   UNL     1      48.482   7.918  13.724  0.00  0.00    +0.000 C 
ATOM      2  C   UNL     1      48.537   7.831  15.247  0.00  0.00    +0.000 C 
ATOM      3  C   UNL     1      48.970   6.663  14.435  0.00  0.00    +0.000 C 
ENDROOT
BRANCH   1   4
ATOM      4  C   UNL     1      47.124   7.777  13.036  0.00  0.00    +0.000 A 
ATOM      5  C   UNL     1      46.292   8.891  12.832  0.00  0.00    +0.000 A 
ATOM      6  C   UNL     1      45.165   8.813  12.019  0.00  0.00    +0.000 A 
ATOM      7  C   UNL     1      44.849   7.613  11.384  0.00  0.00    +0.000 A 
ATOM      8  C   UNL     1      45.622   6.458  11.585  0.00  0.00    +0.000 A 
ATOM      9  C   UNL     1      46.721   6.557  12.458  0.00  0.00    +0.000 A 
BRANCH   8  10
ATOM     10  C   UNL     1      45.373   5.217  10.827  0.00  0.00    +0.000 A 
ATOM     11  C   UNL     1      44.899   4.067  11.467  0.00  0.00    +0.000 A 
ATOM     12  N   UNL     1      44.609   2.897  10.851  0.00  0.00    +0.000 NA
ATOM     13  C   UNL     1      44.781   2.868   9.514  0.00  0.00    +0.000 A 
ATOM     14  C   UNL     1      45.207   3.951   8.756  0.00  0.00    +0.000 A 
ATOM     15  C   UNL     1      45.530   5.131   9.431  0.00  0.00    +0.000 A 
BRANCH  14  16
ATOM     16  O   UNL     1      45.297   3.745   7.412  0.00  0.00    +0.000 OA
BRANCH  16  17
ATOM     17  C   UNL     1      46.602   3.509   6.913  0.00  0.00    +0.000 C 
ATOM     18  F   UNL     1      47.188   2.544   7.663  0.00  0.00    +0.000 F 
ATOM     19  F   UNL     1      46.468   3.006   5.661  0.00  0.00    +0.000 F 
ENDBRANCH  16  17
ENDBRANCH  14  16
ENDBRANCH   8  10
ENDBRANCH   1   4
BRANCH   1  20
ATOM     20  N   UNL     1      49.402   8.889  13.107  0.00  0.00    +0.000 N 
ATOM     21  H   UNL     1      48.990   9.679  12.618  0.00  0.00    +0.000 HD
BRANCH  20  25
ATOM     22  C   UNL     1      52.719   7.766  10.964  0.00  0.00    +0.000 A 
ATOM     23  C   UNL     1      51.439   7.433  10.553  0.00  0.00    +0.000 A 
ATOM     24  N   UNL     1      50.332   7.800  11.255  0.00  0.00    +0.000 NA
ATOM     25  C   UNL     1      50.541   8.512  12.386  0.00  0.00    +0.000 A 
ATOM     26  C   UNL     1      51.842   8.859  12.761  0.00  0.00    +0.000 A 
ATOM     27  N   UNL     1      52.959   8.495  12.085  0.00  0.00    +0.000 NA
BRANCH  22  29
ATOM     28  N   UNL     1      54.418   8.230   9.320  0.00  0.00    +0.000 N 
ATOM     29  C   UNL     1      53.910   7.312  10.200  0.00  0.00    +0.000 C 
ATOM     30  O   UNL     1      54.412   6.204  10.357  0.00  0.00    +0.000 OA
ATOM     31  H   UNL     1      55.237   8.005   8.773  0.00  0.00    +0.000 HD
ATOM     32  H   UNL     1      53.975   9.138   9.230  0.00  0.00    +0.000 HD
ENDBRANCH  22  29
ENDBRANCH  20  25
ENDBRANCH   1  20
TORSDOF 7
ENDMDL
