MODEL 1
REMARK VINA RESULT:    -8.488      0.000      0.000
REMARK INTER + INTRA:         -11.272
REMARK INTER:                 -10.473
REMARK INTRA:                  -0.799
REMARK UNBOUND:                -0.799
REMARK  Name = 
REMARK  4 active torsions:
REMARK  status: ('A' for Active; 'I' for Inactive)
REMARK    1  A    between atoms: C_2  and  C_4
REMARK    2  A    between atoms: C_7  and  N_8
REMARK    3  A    between atoms: N_8  and  C_9
REMARK    4  A    between atoms: C_9  and  C_10
REMARK                            x       y       z     vdW  Elec       q    Type
REMARK                         _______ _______ _______ _____ _____    ______ ____
ROOT
ATOM      1  C   UNL     1      46.477   2.357   7.707  0.00  0.00    +0.000 A 
ATOM      2  C   UNL     1      46.497   3.748   7.563  0.00  0.00    +0.000 A 
ATOM      3  C   UNL     1      45.625   4.541   8.320  0.00  0.00    +0.000 A 
ATOM      4  C   UNL     1      44.705   3.962   9.208  0.00  0.00    +0.000 A 
ATOM      5  C   UNL     1      44.730   2.572   9.371  0.00  0.00    +0.000 A 
ATOM      6  C   UNL     1      45.594   1.772   8.615  0.00  0.00    +0.000 A 
ENDROOT
BRANCH   1   8
ATOM      7  N   UNL     1      48.474   2.024   6.349  0.00  0.00    +0.000 N 
ATOM      8  C   UNL     1      47.351   1.469   6.897  0.00  0.00    +0.000 C 
ATOM      9  O   UNL     1      47.099   0.281   6.744  0.00  0.00    +0.000 OA
ATOM     10  H   UNL     1      49.106   1.383   5.887  0.00  0.00    +0.000 HD
ATOM     11  H   UNL     1      48.848   2.905   6.668  0.00  0.00    +0.000 HD
ENDBRANCH   1   8
BRANCH   4  12
ATOM     12  N   UNL     1      43.839   4.798   9.951  0.00  0.00    +0.000 N 
ATOM     13  H   UNL     1      42.893   4.797   9.580  0.00  0.00    +0.000 HD
BRANCH  12  14
ATOM     14  C   UNL     1      43.941   4.881  11.430  0.00  0.00    +0.000 C 
ATOM     15  C   UNL     1      43.098   3.915  12.247  0.00  0.00    +0.000 C 
ATOM     16  C   UNL     1      42.720   5.357  12.212  0.00  0.00    +0.000 C 
BRANCH  14  17
ATOM     17  C   UNL     1      45.267   5.448  11.946  0.00  0.00    +0.000 A 
ATOM     18  C   UNL     1      45.969   4.800  12.981  0.00  0.00    +0.000 A 
ATOM     19  C   UNL     1      47.217   5.250  13.423  0.00  0.00    +0.000 A 
ATOM     20  C   UNL     1      47.798   6.368  12.834  0.00  0.00    +0.000 A 
ATOM     21  C   UNL     1      47.121   7.045  11.826  0.00  0.00    +0.000 A 
ATOM     22  C   UNL     1      45.868   6.596  11.398  0.00  0.00    +0.000 A 
ENDBRANCH  14  17
ENDBRANCH  12  14
ENDBRANCH   4  12
TORSDOF 4
ENDMDL
MODEL 2
REMARK VINA RESULT:    -5.803      3.467      5.924
REMARK INTER + INTRA:          -7.958
REMARK INTER:                  -7.682
REMARK INTRA:                  -0.276
REMARK UNBOUND:                -0.799
REMARK  Name = 
REMARK  4 active torsions:
REMARK  status: ('A' for Active; 'I' for Inactive)
REMARK    1  A    between atoms: C_2  and  C_4
REMARK    2  A    between atoms: C_7  and  N_8
REMARK    3  A    between atoms: N_8  and  C_9
REMARK    4  A    between atoms: C_9  and  C_10
REMARK                            x       y       z     vdW  Elec       q    Type
REMARK                         _______ _______ _______ _____ _____    ______ ____
ROOT
ATOM      1  C   UNL     1      48.445   7.536  12.866  0.00  0.00    +0.000 A 
ATOM      2  C   UNL     1      47.436   7.760  11.924  0.00  0.00    +0.000 A 
ATOM      3  C   UNL     1      46.340   6.888  11.854  0.00  0.00    +0.000 A 
ATOM      4  C   UNL     1      46.247   5.771  12.698  0.00  0.00    +0.000 A 
ATOM      5  C   UNL     1      47.245   5.588  13.663  0.00  0.00    +0.000 A 
ATOM      6  C   UNL     1      48.345   6.449  13.737  0.00  0.00    +0.000 A 
ENDROOT
BRANCH   1   8
ATOM      7  N   UNL     1      50.867   7.801  12.813  0.00  0.00    +0.000 N 
ATOM      8  C   UNL     1      49.648   8.404  12.952  0.00  0.00    +0.000 C 
ATOM      9  O   UNL     1      49.560   9.614  13.113  0.00  0.00    +0.000 OA
ATOM     10  H   UNL     1      51.667   8.420  12.773  0.00  0.00    +0.000 HD
ATOM     11  H   UNL     1      50.968   6.878  12.419  0.00  0.00    +0.000 HD
ENDBRANCH   1   8
BRANCH   4  12
ATOM     12  N   UNL     1      45.127   4.914  12.593  0.00  0.00    +0.000 N 
ATOM     13  H   UNL     1      44.625   4.829  13.472  0.00  0.00    +0.000 HD
BRANCH  12  14
ATOM     14  C   UNL     1      44.278   4.914  11.375  0.00  0.00    +0.000 C 
ATOM     15  C   UNL     1      43.312   6.074  11.192  0.00  0.00    +0.000 C 
ATOM     16  C   UNL     1      42.773   4.729  11.545  0.00  0.00    +0.000 C 
BRANCH  14  17
ATOM     17  C   UNL     1      44.867   4.144  10.189  0.00  0.00    +0.000 A 
ATOM     18  C   UNL     1      44.818   2.736  10.153  0.00  0.00    +0.000 A 
ATOM     19  C   UNL     1      45.279   2.008   9.053  0.00  0.00    +0.000 A 
ATOM     20  C   UNL     1      45.804   2.675   7.951  0.00  0.00    +0.000 A 
ATOM     21  C   UNL     1      45.889   4.063   7.964  0.00  0.00    +0.000 A 
ATOM     22  C   UNL     1      45.437   4.783   9.074  0.00  0.00    +0.000 A 
ENDBRANCH  14  17
ENDBRANCH  12  14
ENDBRANCH   4  12
TORSDOF 4
ENDMDL
MODEL 3
REMARK VINA RESULT:    -5.729      2.492      4.444
REMARK INTER + INTRA:          -7.867
REMARK INTER:                  -7.399
REMARK INTRA:                  -0.469
REMARK UNBOUND:                -0.799
REMARK  Name = 
REMARK  4 active torsions:
REMARK  status: ('A' for Active; 'I' for Inactive)
REMARK    1  A    between atoms: C_2  and  C_4
REMARK    2  A    between atoms: C_7  and  N_8
REMARK    3  A    between atoms: N_8  and  C_9
REMARK    4  A    between atoms: C_9  and  C_10
REMARK                            x       y       z     vdW  Elec       q    Type
REMARK                         _______ _______ _______ _____ _____    ______ ____
ROOT
ATOM      1  C   UNL     1      44.928   3.762  10.152  0.00  0.00    +0.000 A 
ATOM      2  C   UNL     1      44.871   3.330  11.481  0.00  0.00    +0.000 A 
ATOM      3  C   UNL     1      45.241   4.202  12.515  0.00  0.00    +0.000 A 
ATOM      4  C   UNL     1      45.695   5.500  12.240  0.00  0.00    +0.000 A 
ATOM      5  C   UNL     1      45.704   5.929  10.908  0.00  0.00    +0.000 A 
ATOM      6  C   UNL     1      45.342   5.065   9.868  0.00  0.00    +0.000 A 
ENDROOT
BRANCH   1   8
ATOM      7  N   UNL     1      44.308   3.452   7.816  0.00  0.00    +0.000 N 
ATOM      8  C   UNL     1      44.590   2.864   9.017  0.00  0.00    +0.000 C 
ATOM      9  O   UNL     1      44.590   1.646   9.136  0.00  0.00    +0.000 OA
ATOM     10  H   UNL     1      44.179   2.824   7.033  0.00  0.00    +0.000 HD
ATOM     11  H   UNL     1      44.556   4.409   7.614  0.00  0.00    +0.000 HD
ENDBRANCH   1   8
BRANCH   4  12
ATOM     12  N   UNL     1      46.061   6.347  13.312  0.00  0.00    +0.000 N 
ATOM     13  H   UNL     1      45.988   5.881  14.212  0.00  0.00    +0.000 HD
BRANCH  12  14
ATOM     14  C   UNL     1      47.194   7.298  13.182  0.00  0.00    +0.000 C 
ATOM     15  C   UNL     1      48.586   6.713  13.002  0.00  0.00    +0.000 C 
ATOM     16  C   UNL     1      48.228   7.348  14.303  0.00  0.00    +0.000 C 
BRANCH  14  17
ATOM     17  C   UNL     1      46.808   8.676  12.633  0.00  0.00    +0.000 A 
ATOM     18  C   UNL     1      47.788   9.532  12.092  0.00  0.00    +0.000 A 
ATOM     19  C   UNL     1      47.458  10.762  11.517  0.00  0.00    +0.000 A 
ATOM     20  C   UNL     1      46.129  11.170  11.466  0.00  0.00    +0.000 A 
ATOM     21  C   UNL     1      45.140  10.359  12.013  0.00  0.00    +0.000 A 
ATOM     22  C   UNL     1      45.480   9.136  12.597  0.00  0.00    +0.000 A 
ENDBRANCH  14  17
ENDBRANCH  12  14
ENDBRANCH   4  12
TORSDOF 4
ENDMDL
MODEL 4
REMARK VINA RESULT:    -5.696      3.895      6.672
REMARK INTER + INTRA:          -7.827
REMARK INTER:                  -7.410
REMARK INTRA:                  -0.417
REMARK UNBOUND:                -0.799
REMARK  Name = 
REMARK  4 active torsions:
REMARK  status: ('A' for Active; 'I' for Inactive)
REMARK    1  A    between atoms: C_2  and  C_4
REMARK    2  A    between atoms: C_7  and  N_8
REMARK    3  A    between atoms: N_8  and  C_9
REMARK    4  A    between atoms: C_9  and  C_10
REMARK                            x       y       z     vdW  Elec       q    Type
REMARK                         _______ _______ _______ _____ _____    ______ ____
ROOT
ATOM      1  C   UNL     1      48.401   6.281  15.229  0.00  0.00    +0.000 A 
ATOM      2  C   UNL     1      48.059   6.511  13.893  0.00  0.00    +0.000 A 
ATOM      3  C   UNL     1      47.230   5.604  13.218  0.00  0.00    +0.000 A 
ATOM      4  C   UNL     1      46.753   4.447  13.853  0.00  0.00    +0.000 A 
ATOM      5  C   UNL     1      47.071   4.257  15.203  0.00  0.00    +0.000 A 
ATOM      6  C   UNL     1      47.902   5.153  15.883  0.00  0.00    +0.000 A 
ENDROOT
BRANCH   1   8
ATOM      7  N   UNL     1      49.275   8.515  15.656  0.00  0.00    +0.000 N 
ATOM      8  C   UNL     1      49.312   7.187  15.976  0.00  0.00    +0.000 C 
ATOM      9  O   UNL     1      50.047   6.775  16.863  0.00  0.00    +0.000 OA
ATOM     10  H   UNL     1      49.826   9.130  16.242  0.00  0.00    +0.000 HD
ATOM     11  H   UNL     1      48.511   8.923  15.138  0.00  0.00    +0.000 HD
ENDBRANCH   1   8
BRANCH   4  12
ATOM     12  N   UNL     1      45.922   3.556  13.136  0.00  0.00    +0.000 N 
ATOM     13  H   UNL     1      45.746   2.698  13.650  0.00  0.00    +0.000 HD
BRANCH  12  14
ATOM     14  C   UNL     1      44.781   4.058  12.329  0.00  0.00    +0.000 C 
ATOM     15  C   UNL     1      43.933   5.170  12.926  0.00  0.00    +0.000 C 
ATOM     16  C   UNL     1      43.366   3.794  12.836  0.00  0.00    +0.000 C 
BRANCH  14  17
ATOM     17  C   UNL     1      44.942   3.873  10.816  0.00  0.00    +0.000 A 
ATOM     18  C   UNL     1      45.427   4.925  10.014  0.00  0.00    +0.000 A 
ATOM     19  C   UNL     1      45.655   4.765   8.645  0.00  0.00    +0.000 A 
ATOM     20  C   UNL     1      45.402   3.539   8.038  0.00  0.00    +0.000 A 
ATOM     21  C   UNL     1      44.899   2.487   8.797  0.00  0.00    +0.000 A 
ATOM     22  C   UNL     1      44.663   2.659  10.164  0.00  0.00    +0.000 A 
ENDBRANCH  14  17
ENDBRANCH  12  14
ENDBRANCH   4  12
TORSDOF 4
ENDMDL
MODEL 5
REMARK VINA RESULT:    -5.493      3.062      5.231
REMARK INTER + INTRA:          -7.577
REMARK INTER:                  -6.949
REMARK INTRA:                  -0.628
REMARK UNBOUND:                -0.799
REMARK  Name = 
REMARK  4 active torsions:
REMARK  status: ('A' for Active; 'I' for Inactive)
REMARK    1  A    between atoms: C_2  and  C_4
REMARK    2  A    between atoms: C_7  and  N_8
REMARK    3  A    between atoms: N_8  and  C_9
REMARK    4  A    between atoms: C_9  and  C_10
REMARK                            x       y       z     vdW  Elec       q    Type
REMARK                         _______ _______ _______ _____ _____    ______ ____
ROOT
ATOM      1  C   UNL     1      44.783   4.234  11.329  0.00  0.00    +0.000 A 
ATOM      2  C   UNL     1      45.104   5.404  10.634  0.00  0.00    +0.000 A 
ATOM      3  C   UNL     1      45.646   6.498  11.322  0.00  0.00    +0.000 A 
ATOM      4  C   UNL     1      45.850   6.453  12.710  0.00  0.00    +0.000 A 
ATOM      5  C   UNL     1      45.562   5.259  13.381  0.00  0.00    +0.000 A 
ATOM      6  C   UNL     1      45.016   4.163  12.704  0.00  0.00    +0.000 A 
ENDROOT
BRANCH   1   8
ATOM      7  N   UNL     1      43.502   2.163  11.444  0.00  0.00    +0.000 N 
ATOM      8  C   UNL     1      44.165   3.062  10.655  0.00  0.00    +0.000 C 
ATOM      9  O   UNL     1      44.219   2.914   9.442  0.00  0.00    +0.000 OA
ATOM     10  H   UNL     1      43.004   1.428  10.958  0.00  0.00    +0.000 HD
ATOM     11  H   UNL     1      43.211   2.385  12.384  0.00  0.00    +0.000 HD
ENDBRANCH   1   8
BRANCH   4  12
ATOM     12  N   UNL     1      46.396   7.580  13.367  0.00  0.00    +0.000 N 
ATOM     13  H   UNL     1      46.057   7.670  14.320  0.00  0.00    +0.000 HD
BRANCH  12  14
ATOM     14  C   UNL     1      47.812   7.975  13.157  0.00  0.00    +0.000 C 
ATOM     15  C   UNL     1      48.873   6.898  13.320  0.00  0.00    +0.000 C 
ATOM     16  C   UNL     1      48.751   7.960  14.359  0.00  0.00    +0.000 C 
BRANCH  14  17
ATOM     17  C   UNL     1      48.005   9.183  12.234  0.00  0.00    +0.000 A 
ATOM     18  C   UNL     1      46.956  10.100  12.025  0.00  0.00    +0.000 A 
ATOM     19  C   UNL     1      47.124  11.250  11.250  0.00  0.00    +0.000 A 
ATOM     20  C   UNL     1      48.356  11.515  10.659  0.00  0.00    +0.000 A 
ATOM     21  C   UNL     1      49.405  10.617  10.826  0.00  0.00    +0.000 A 
ATOM     22  C   UNL     1      49.225   9.463  11.593  0.00  0.00    +0.000 A 
ENDBRANCH  14  17
ENDBRANCH  12  14
ENDBRANCH   4  12
TORSDOF 4
ENDMDL
