MODEL 1
REMARK VINA RESULT:    -7.880      0.000      0.000
REMARK INTER + INTRA:         -11.636
REMARK INTER:                 -10.645
REMARK INTRA:                  -0.991
REMARK UNBOUND:                -0.991
REMARK  Name = 
REMARK  6 active torsions:
REMARK  status: ('A' for Active; 'I' for Inactive)
REMARK    1  A    between atoms: C_2  and  C_19
REMARK    2  A    between atoms: N_3  and  C_4
REMARK    3  A    between atoms: C_4  and  C_5
REMARK    4  A    between atoms: C_8  and  O_9
REMARK    5  A    between atoms: O_9  and  C_10
REMARK    6  A    between atoms: C_10  and  C_11
REMARK                            x       y       z     vdW  Elec       q    Type
REMARK                         _______ _______ _______ _____ _____    ______ ____
ROOT
ATOM      1  O   UNL     1      48.514   8.214  16.329  0.00  0.00    +0.000 OA
ATOM      2  C   UNL     1      48.726   7.041  16.053  0.00  0.00    +0.000 C 
ATOM      3  N   UNL     1      48.341   6.425  14.880  0.00  0.00    +0.000 N 
ATOM      4  H   UNL     1      48.754   5.530  14.673  0.00  0.00    +0.000 HD
ENDROOT
BRANCH   2   5
ATOM      5  C   UNL     1      49.606   6.179  16.833  0.00  0.00    +0.000 A 
ATOM      6  C   UNL     1      50.828   6.602  17.325  0.00  0.00    +0.000 A 
ATOM      7  S   UNL     1      51.853   5.274  17.695  0.00  0.00    +0.000 S 
ATOM      8  C   UNL     1      50.624   4.148  17.327  0.00  0.00    +0.000 A 
ATOM      9  N   UNL     1      50.846   2.808  17.281  0.00  0.00    +0.000 NA
ATOM     10  C   UNL     1      49.788   2.104  17.036  0.00  0.00    +0.000 A 
ATOM     11  N   UNL     1      48.521   2.611  16.884  0.00  0.00    +0.000 N 
ATOM     12  C   UNL     1      48.246   3.954  16.935  0.00  0.00    +0.000 A 
ATOM     13  O   UNL     1      47.103   4.389  16.867  0.00  0.00    +0.000 OA
ATOM     14  C   UNL     1      49.426   4.781  17.078  0.00  0.00    +0.000 A 
ATOM     15  H   UNL     1      47.723   2.002  16.782  0.00  0.00    +0.000 HD
ENDBRANCH   2   5
BRANCH   3  16
ATOM     16  C   UNL     1      47.912   7.162  13.724  0.00  0.00    +0.000 C 
BRANCH  16  17
ATOM     17  C   UNL     1      46.984   6.305  12.898  0.00  0.00    +0.000 A 
ATOM     18  C   UNL     1      46.547   5.047  13.342  0.00  0.00    +0.000 A 
ATOM     19  C   UNL     1      45.672   4.287  12.556  0.00  0.00    +0.000 A 
ATOM     20  C   UNL     1      45.232   4.774  11.326  0.00  0.00    +0.000 A 
ATOM     21  C   UNL     1      45.743   5.978  10.840  0.00  0.00    +0.000 A 
ATOM     22  C   UNL     1      46.605   6.740  11.625  0.00  0.00    +0.000 A 
BRANCH  20  23
ATOM     23  O   UNL     1      44.293   4.015  10.674  0.00  0.00    +0.000 OA
BRANCH  23  24
ATOM     24  C   UNL     1      44.275   4.204   9.260  0.00  0.00    +0.000 C 
BRANCH  24  25
ATOM     25  C   UNL     1      45.210   3.273   8.559  0.00  0.00    +0.000 A 
ATOM     26  C   UNL     1      46.170   3.686   7.657  0.00  0.00    +0.000 A 
ATOM     27  N   UNL     1      47.071   2.855   7.088  0.00  0.00    +0.000 NA
ATOM     28  C   UNL     1      46.993   1.570   7.460  0.00  0.00    +0.000 A 
ATOM     29  N   UNL     1      46.118   1.054   8.336  0.00  0.00    +0.000 NA
ATOM     30  C   UNL     1      45.250   1.930   8.875  0.00  0.00    +0.000 A 
ENDBRANCH  24  25
ENDBRANCH  23  24
ENDBRANCH  20  23
ENDBRANCH  16  17
ENDBRANCH   3  16
TORSDOF 6
ENDMDL
MODEL 2
REMARK VINA RESULT:    -7.651      1.906      2.779
REMARK INTER + INTRA:         -11.325
REMARK INTER:                 -11.172
REMARK INTRA:                  -0.153
REMARK UNBOUND:                -0.991
REMARK  Name = 
REMARK  6 active torsions:
REMARK  status: ('A' for Active; 'I' for Inactive)
REMARK    1  A    between atoms: C_2  and  C_19
REMARK    2  A    between atoms: N_3  and  C_4
REMARK    3  A    between atoms: C_4  and  C_5
REMARK    4  A    between atoms: C_8  and  O_9
REMARK    5  A    between atoms: O_9  and  C_10
REMARK    6  A    between atoms: C_10  and  C_11
REMARK                            x       y       z     vdW  Elec       q    Type
REMARK                         _______ _______ _______ _____ _____    ______ ____
ROOT
ATOM      1  O   UNL     1      46.195   3.990  14.173  0.00  0.00    +0.000 OA
ATOM      2  C   UNL     1      46.562   5.158  14.182  0.00  0.00    +0.000 C 
ATOM      3  N   UNL     1      45.892   6.199  13.573  0.00  0.00    +0.000 N 
ATOM      4  H   UNL     1      46.166   7.134  13.828  0.00  0.00    +0.000 HD
ENDROOT
BRANCH   2   5
ATOM      5  C   UNL     1      47.646   5.652  15.022  0.00  0.00    +0.000 A 
ATOM      6  C   UNL     1      48.381   6.782  14.712  0.00  0.00    +0.000 A 
ATOM      7  S   UNL     1      49.889   6.799  15.535  0.00  0.00    +0.000 S 
ATOM      8  C   UNL     1      49.500   5.379  16.399  0.00  0.00    +0.000 A 
ATOM      9  N   UNL     1      50.397   4.729  17.186  0.00  0.00    +0.000 NA
ATOM     10  C   UNL     1      49.913   3.699  17.802  0.00  0.00    +0.000 A 
ATOM     11  N   UNL     1      48.604   3.289  17.744  0.00  0.00    +0.000 N 
ATOM     12  C   UNL     1      47.660   3.919  16.974  0.00  0.00    +0.000 A 
ATOM     13  O   UNL     1      46.481   3.586  16.984  0.00  0.00    +0.000 OA
ATOM     14  C   UNL     1      48.196   4.998  16.169  0.00  0.00    +0.000 A 
ATOM     15  H   UNL     1      48.269   2.529  18.318  0.00  0.00    +0.000 HD
ENDBRANCH   2   5
BRANCH   3  16
ATOM     16  C   UNL     1      44.536   6.083  13.113  0.00  0.00    +0.000 C 
BRANCH  16  17
ATOM     17  C   UNL     1      44.485   5.141  11.935  0.00  0.00    +0.000 A 
ATOM     18  C   UNL     1      45.254   5.356  10.781  0.00  0.00    +0.000 A 
ATOM     19  C   UNL     1      45.194   4.450   9.715  0.00  0.00    +0.000 A 
ATOM     20  C   UNL     1      44.367   3.330   9.791  0.00  0.00    +0.000 A 
ATOM     21  C   UNL     1      43.528   3.170  10.895  0.00  0.00    +0.000 A 
ATOM     22  C   UNL     1      43.595   4.063  11.961  0.00  0.00    +0.000 A 
BRANCH  20  23
ATOM     23  O   UNL     1      44.452   2.442   8.751  0.00  0.00    +0.000 OA
BRANCH  23  24
ATOM     24  C   UNL     1      45.681   1.718   8.704  0.00  0.00    +0.000 C 
BRANCH  24  25
ATOM     25  C   UNL     1      46.430   1.969   7.436  0.00  0.00    +0.000 A 
ATOM     26  C   UNL     1      46.104   2.964   6.536  0.00  0.00    +0.000 A 
ATOM     27  N   UNL     1      46.831   3.246   5.433  0.00  0.00    +0.000 NA
ATOM     28  C   UNL     1      47.925   2.493   5.250  0.00  0.00    +0.000 A 
ATOM     29  N   UNL     1      48.352   1.512   6.058  0.00  0.00    +0.000 NA
ATOM     30  C   UNL     1      47.592   1.282   7.144  0.00  0.00    +0.000 A 
ENDBRANCH  24  25
ENDBRANCH  23  24
ENDBRANCH  20  23
ENDBRANCH  16  17
ENDBRANCH   3  16
TORSDOF 6
ENDMDL
MODEL 3
REMARK VINA RESULT:    -7.419      2.710      8.365
REMARK INTER + INTRA:         -11.013
REMARK INTER:                 -10.040
REMARK INTRA:                  -0.972
REMARK UNBOUND:                -0.991
REMARK  Name = 
REMARK  6 active torsions:
REMARK  status: ('A' for Active; 'I' for Inactive)
REMARK    1  A    between atoms: C_2  and  C_19
REMARK    2  A    between atoms: N_3  and  C_4
REMARK    3  A    between atoms: C_4  and  C_5
REMARK    4  A    between atoms: C_8  and  O_9
REMARK    5  A    between atoms: O_9  and  C_10
REMARK    6  A    between atoms: C_10  and  C_11
REMARK                            x       y       z     vdW  Elec       q    Type
REMARK                         _______ _______ _______ _____ _____    ______ ____
ROOT
ATOM      1  O   UNL     1      45.050   7.460  11.412  0.00  0.00    +0.000 OA
ATOM      2  C   UNL     1      45.488   6.317  11.438  0.00  0.00    +0.000 C 
ATOM      3  N   UNL     1      46.718   5.957  11.948  0.00  0.00    +0.000 N 
ATOM      4  H   UNL     1      46.878   4.976  12.113  0.00  0.00    +0.000 HD
ENDROOT
BRANCH   2   5
ATOM      5  C   UNL     1      44.683   5.142  11.131  0.00  0.00    +0.000 A 
ATOM      6  C   UNL     1      43.681   4.679  11.966  0.00  0.00    +0.000 A 
ATOM      7  S   UNL     1      43.306   3.032  11.648  0.00  0.00    +0.000 S 
ATOM      8  C   UNL     1      44.377   2.984  10.320  0.00  0.00    +0.000 A 
ATOM      9  N   UNL     1      44.676   1.835   9.659  0.00  0.00    +0.000 NA
ATOM     10  C   UNL     1      45.467   1.996   8.648  0.00  0.00    +0.000 A 
ATOM     11  N   UNL     1      45.946   3.204   8.206  0.00  0.00    +0.000 N 
ATOM     12  C   UNL     1      45.662   4.392   8.831  0.00  0.00    +0.000 A 
ATOM     13  O   UNL     1      46.038   5.470   8.388  0.00  0.00    +0.000 OA
ATOM     14  C   UNL     1      44.885   4.235  10.044  0.00  0.00    +0.000 A 
ATOM     15  H   UNL     1      46.489   3.272   7.357  0.00  0.00    +0.000 HD
ENDBRANCH   2   5
BRANCH   3  16
ATOM     16  C   UNL     1      47.500   6.833  12.775  0.00  0.00    +0.000 C 
BRANCH  16  17
ATOM     17  C   UNL     1      47.762   6.168  14.104  0.00  0.00    +0.000 A 
ATOM     18  C   UNL     1      47.116   4.979  14.477  0.00  0.00    +0.000 A 
ATOM     19  C   UNL     1      47.398   4.380  15.711  0.00  0.00    +0.000 A 
ATOM     20  C   UNL     1      48.320   4.963  16.579  0.00  0.00    +0.000 A 
ATOM     21  C   UNL     1      48.887   6.196  16.253  0.00  0.00    +0.000 A 
ATOM     22  C   UNL     1      48.616   6.787  15.021  0.00  0.00    +0.000 A 
BRANCH  20  23
ATOM     23  O   UNL     1      48.616   4.255  17.715  0.00  0.00    +0.000 OA
BRANCH  23  24
ATOM     24  C   UNL     1      49.927   4.495  18.224  0.00  0.00    +0.000 C 
BRANCH  24  25
ATOM     25  C   UNL     1      50.860   3.368  17.920  0.00  0.00    +0.000 A 
ATOM     26  C   UNL     1      52.193   3.358  18.277  0.00  0.00    +0.000 A 
ATOM     27  N   UNL     1      53.016   2.305  18.077  0.00  0.00    +0.000 NA
ATOM     28  C   UNL     1      52.456   1.230  17.504  0.00  0.00    +0.000 A 
ATOM     29  N   UNL     1      51.173   1.115  17.128  0.00  0.00    +0.000 NA
ATOM     30  C   UNL     1      50.401   2.193  17.359  0.00  0.00    +0.000 A 
ENDBRANCH  24  25
ENDBRANCH  23  24
ENDBRANCH  20  23
ENDBRANCH  16  17
ENDBRANCH   3  16
TORSDOF 6
ENDMDL
MODEL 4
REMARK VINA RESULT:    -7.314      2.512      4.210
REMARK INTER + INTRA:         -10.870
REMARK INTER:                  -9.968
REMARK INTRA:                  -0.903
REMARK UNBOUND:                -0.991
REMARK  Name = 
REMARK  6 active torsions:
REMARK  status: ('A' for Active; 'I' for Inactive)
REMARK    1  A    between atoms: C_2  and  C_19
REMARK    2  A    between atoms: N_3  and  C_4
REMARK    3  A    between atoms: C_4  and  C_5
REMARK    4  A    between atoms: C_8  and  O_9
REMARK    5  A    between atoms: O_9  and  C_10
REMARK    6  A    between atoms: C_10  and  C_11
REMARK                            x       y       z     vdW  Elec       q    Type
REMARK                         _______ _______ _______ _____ _____    ______ ____
ROOT
ATOM      1  O   UNL     1      49.036   5.484  16.019  0.00  0.00    +0.000 OA
ATOM      2  C   UNL     1      48.590   6.282  15.205  0.00  0.00    +0.000 C 
ATOM      3  N   UNL     1      47.552   6.022  14.335  0.00  0.00    +0.000 N 
ATOM      4  H   UNL     1      47.133   6.811  13.870  0.00  0.00    +0.000 HD
ENDROOT
BRANCH   2   5
ATOM      5  C   UNL     1      48.949   7.694  15.187  0.00  0.00    +0.000 A 
ATOM      6  C   UNL     1      49.067   8.455  16.337  0.00  0.00    +0.000 A 
ATOM      7  S   UNL     1      48.943  10.135  15.998  0.00  0.00    +0.000 S 
ATOM      8  C   UNL     1      48.869   9.849  14.316  0.00  0.00    +0.000 A 
ATOM      9  N   UNL     1      48.609  10.833  13.416  0.00  0.00    +0.000 NA
ATOM     10  C   UNL     1      48.641  10.444  12.182  0.00  0.00    +0.000 A 
ATOM     11  N   UNL     1      48.958   9.175  11.764  0.00  0.00    +0.000 N 
ATOM     12  C   UNL     1      49.240   8.153  12.634  0.00  0.00    +0.000 A 
ATOM     13  O   UNL     1      49.589   7.044  12.248  0.00  0.00    +0.000 OA
ATOM     14  C   UNL     1      49.086   8.520  14.027  0.00  0.00    +0.000 A 
ATOM     15  H   UNL     1      49.051   8.957  10.783  0.00  0.00    +0.000 HD
ENDBRANCH   2   5
BRANCH   3  16
ATOM     16  C   UNL     1      46.680   4.891  14.487  0.00  0.00    +0.000 C 
BRANCH  16  17
ATOM     17  C   UNL     1      46.019   4.586  13.165  0.00  0.00    +0.000 A 
ATOM     18  C   UNL     1      45.564   3.296  12.845  0.00  0.00    +0.000 A 
ATOM     19  C   UNL     1      44.939   3.054  11.616  0.00  0.00    +0.000 A 
ATOM     20  C   UNL     1      44.768   4.092  10.700  0.00  0.00    +0.000 A 
ATOM     21  C   UNL     1      45.308   5.348  10.975  0.00  0.00    +0.000 A 
ATOM     22  C   UNL     1      45.919   5.594  12.202  0.00  0.00    +0.000 A 
BRANCH  20  23
ATOM     23  O   UNL     1      44.050   3.791   9.570  0.00  0.00    +0.000 OA
BRANCH  23  24
ATOM     24  C   UNL     1      44.729   4.098   8.353  0.00  0.00    +0.000 C 
BRANCH  24  25
ATOM     25  C   UNL     1      45.749   3.064   8.005  0.00  0.00    +0.000 A 
ATOM     26  C   UNL     1      45.649   1.735   8.366  0.00  0.00    +0.000 A 
ATOM     27  N   UNL     1      46.527   0.784   7.979  0.00  0.00    +0.000 NA
ATOM     28  C   UNL     1      47.530   1.203   7.194  0.00  0.00    +0.000 A 
ATOM     29  N   UNL     1      47.724   2.459   6.765  0.00  0.00    +0.000 NA
ATOM     30  C   UNL     1      46.814   3.361   7.177  0.00  0.00    +0.000 A 
ENDBRANCH  24  25
ENDBRANCH  23  24
ENDBRANCH  20  23
ENDBRANCH  16  17
ENDBRANCH   3  16
TORSDOF 6
ENDMDL
MODEL 5
REMARK VINA RESULT:    -7.248      1.702      2.251
REMARK INTER + INTRA:         -10.781
REMARK INTER:                  -9.695
REMARK INTRA:                  -1.086
REMARK UNBOUND:                -0.991
REMARK  Name = 
REMARK  6 active torsions:
REMARK  status: ('A' for Active; 'I' for Inactive)
REMARK    1  A    between atoms: C_2  and  C_19
REMARK    2  A    between atoms: N_3  and  C_4
REMARK    3  A    between atoms: C_4  and  C_5
REMARK    4  A    between atoms: C_8  and  O_9
REMARK    5  A    between atoms: O_9  and  C_10
REMARK    6  A    between atoms: C_10  and  C_11
REMARK                            x       y       z     vdW  Elec       q    Type
REMARK                         _______ _______ _______ _____ _____    ______ ____
ROOT
ATOM      1  O   UNL     1      50.400   7.179  15.423  0.00  0.00    +0.000 OA
ATOM      2  C   UNL     1      49.209   7.284  15.682  0.00  0.00    +0.000 C 
ATOM      3  N   UNL     1      48.198   7.322  14.744  0.00  0.00    +0.000 N 
ATOM      4  H   UNL     1      47.256   7.192  15.077  0.00  0.00    +0.000 HD
ENDROOT
BRANCH   2   5
ATOM      5  C   UNL     1      48.668   7.168  17.031  0.00  0.00    +0.000 A 
ATOM      6  C   UNL     1      48.395   8.265  17.829  0.00  0.00    +0.000 A 
ATOM      7  S   UNL     1      48.313   7.834  19.490  0.00  0.00    +0.000 S 
ATOM      8  C   UNL     1      48.506   6.176  19.128  0.00  0.00    +0.000 A 
ATOM      9  N   UNL     1      48.678   5.231  20.089  0.00  0.00    +0.000 NA
ATOM     10  C   UNL     1      48.757   4.022  19.635  0.00  0.00    +0.000 A 
ATOM     11  N   UNL     1      48.631   3.666  18.314  0.00  0.00    +0.000 N 
ATOM     12  C   UNL     1      48.444   4.582  17.311  0.00  0.00    +0.000 A 
ATOM     13  O   UNL     1      48.264   4.248  16.146  0.00  0.00    +0.000 OA
ATOM     14  C   UNL     1      48.480   5.956  17.769  0.00  0.00    +0.000 A 
ATOM     15  H   UNL     1      48.615   2.697  18.034  0.00  0.00    +0.000 HD
ENDBRANCH   2   5
BRANCH   3  16
ATOM     16  C   UNL     1      48.400   6.943  13.373  0.00  0.00    +0.000 C 
BRANCH  16  17
ATOM     17  C   UNL     1      47.157   6.265  12.851  0.00  0.00    +0.000 A 
ATOM     18  C   UNL     1      46.304   6.892  11.929  0.00  0.00    +0.000 A 
ATOM     19  C   UNL     1      45.169   6.226  11.453  0.00  0.00    +0.000 A 
ATOM     20  C   UNL     1      44.876   4.936  11.894  0.00  0.00    +0.000 A 
ATOM     21  C   UNL     1      45.667   4.351  12.884  0.00  0.00    +0.000 A 
ATOM     22  C   UNL     1      46.803   5.009  13.350  0.00  0.00    +0.000 A 
BRANCH  20  23
ATOM     23  O   UNL     1      43.808   4.318  11.296  0.00  0.00    +0.000 OA
BRANCH  23  24
ATOM     24  C   UNL     1      43.774   4.464   9.876  0.00  0.00    +0.000 C 
BRANCH  24  25
ATOM     25  C   UNL     1      44.748   3.556   9.198  0.00  0.00    +0.000 A 
ATOM     26  C   UNL     1      44.828   2.199   9.439  0.00  0.00    +0.000 A 
ATOM     27  N   UNL     1      45.649   1.365   8.764  0.00  0.00    +0.000 NA
ATOM     28  C   UNL     1      46.402   1.934   7.811  0.00  0.00    +0.000 A 
ATOM     29  N   UNL     1      46.400   3.232   7.475  0.00  0.00    +0.000 NA
ATOM     30  C   UNL     1      45.557   4.013   8.177  0.00  0.00    +0.000 A 
ENDBRANCH  24  25
ENDBRANCH  23  24
ENDBRANCH  20  23
ENDBRANCH  16  17
ENDBRANCH   3  16
TORSDOF 6
ENDMDL
MODEL 6
REMARK VINA RESULT:    -6.722      2.148      3.597
REMARK INTER + INTRA:         -10.070
REMARK INTER:                  -9.348
REMARK INTRA:                  -0.723
REMARK UNBOUND:                -0.991
REMARK  Name = 
REMARK  6 active torsions:
REMARK  status: ('A' for Active; 'I' for Inactive)
REMARK    1  A    between atoms: C_2  and  C_19
REMARK    2  A    between atoms: N_3  and  C_4
REMARK    3  A    between atoms: C_4  and  C_5
REMARK    4  A    between atoms: C_8  and  O_9
REMARK    5  A    between atoms: O_9  and  C_10
REMARK    6  A    between atoms: C_10  and  C_11
REMARK                            x       y       z     vdW  Elec       q    Type
REMARK                         _______ _______ _______ _____ _____    ______ ____
ROOT
ATOM      1  O   UNL     1      49.718   4.623  16.686  0.00  0.00    +0.000 OA
ATOM      2  C   UNL     1      48.780   5.403  16.783  0.00  0.00    +0.000 C 
ATOM      3  N   UNL     1      47.589   5.293  16.096  0.00  0.00    +0.000 N 
ATOM      4  H   UNL     1      46.820   5.860  16.415  0.00  0.00    +0.000 HD
ENDROOT
BRANCH   2   5
ATOM      5  C   UNL     1      48.703   6.442  17.803  0.00  0.00    +0.000 A 
ATOM      6  C   UNL     1      48.441   6.169  19.135  0.00  0.00    +0.000 A 
ATOM      7  S   UNL     1      47.869   7.562  19.962  0.00  0.00    +0.000 S 
ATOM      8  C   UNL     1      48.100   8.546  18.587  0.00  0.00    +0.000 A 
ATOM      9  N   UNL     1      47.677   9.836  18.529  0.00  0.00    +0.000 NA
ATOM     10  C   UNL     1      47.982  10.444  17.427  0.00  0.00    +0.000 A 
ATOM     11  N   UNL     1      48.712   9.897  16.401  0.00  0.00    +0.000 N 
ATOM     12  C   UNL     1      49.170   8.605  16.419  0.00  0.00    +0.000 A 
ATOM     13  O   UNL     1      49.879   8.150  15.530  0.00  0.00    +0.000 OA
ATOM     14  C   UNL     1      48.737   7.854  17.580  0.00  0.00    +0.000 A 
ATOM     15  H   UNL     1      48.991  10.452  15.605  0.00  0.00    +0.000 HD
ENDBRANCH   2   5
BRANCH   3  16
ATOM     16  C   UNL     1      47.198   4.091  15.414  0.00  0.00    +0.000 C 
BRANCH  16  17
ATOM     17  C   UNL     1      46.668   4.440  14.045  0.00  0.00    +0.000 A 
ATOM     18  C   UNL     1      45.743   3.622  13.378  0.00  0.00    +0.000 A 
ATOM     19  C   UNL     1      45.259   3.987  12.116  0.00  0.00    +0.000 A 
ATOM     20  C   UNL     1      45.696   5.165  11.511  0.00  0.00    +0.000 A 
ATOM     21  C   UNL     1      46.690   5.927  12.128  0.00  0.00    +0.000 A 
ATOM     22  C   UNL     1      47.163   5.571  13.389  0.00  0.00    +0.000 A 
BRANCH  20  23
ATOM     23  O   UNL     1      45.091   5.500  10.327  0.00  0.00    +0.000 OA
BRANCH  23  24
ATOM     24  C   UNL     1      44.339   4.439   9.740  0.00  0.00    +0.000 C 
BRANCH  24  25
ATOM     25  C   UNL     1      45.187   3.567   8.872  0.00  0.00    +0.000 A 
ATOM     26  C   UNL     1      46.048   4.050   7.907  0.00  0.00    +0.000 A 
ATOM     27  N   UNL     1      46.877   3.267   7.182  0.00  0.00    +0.000 NA
ATOM     28  C   UNL     1      46.828   1.956   7.457  0.00  0.00    +0.000 A 
ATOM     29  N   UNL     1      46.047   1.372   8.377  0.00  0.00    +0.000 NA
ATOM     30  C   UNL     1      45.249   2.202   9.073  0.00  0.00    +0.000 A 
ENDBRANCH  24  25
ENDBRANCH  23  24
ENDBRANCH  20  23
ENDBRANCH  16  17
ENDBRANCH   3  16
TORSDOF 6
ENDMDL
MODEL 7
REMARK VINA RESULT:    -6.536      2.449      3.035
REMARK INTER + INTRA:          -9.819
REMARK INTER:                  -8.748
REMARK INTRA:                  -1.071
REMARK UNBOUND:                -0.991
REMARK  Name = 
REMARK  6 active torsions:
REMARK  status: ('A' for Active; 'I' for Inactive)
REMARK    1  A    between atoms: C_2  and  C_19
REMARK    2  A    between atoms: N_3  and  C_4
REMARK    3  A    between atoms: C_4  and  C_5
REMARK    4  A    between atoms: C_8  and  O_9
REMARK    5  A    between atoms: O_9  and  C_10
REMARK    6  A    between atoms: C_10  and  C_11
REMARK                            x       y       z     vdW  Elec       q    Type
REMARK                         _______ _______ _______ _____ _____    ______ ____
ROOT
ATOM      1  O   UNL     1      50.172   8.028  17.610  0.00  0.00    +0.000 OA
ATOM      2  C   UNL     1      50.038   6.980  16.993  0.00  0.00    +0.000 C 
ATOM      3  N   UNL     1      49.606   6.884  15.686  0.00  0.00    +0.000 N 
ATOM      4  H   UNL     1      49.740   6.002  15.221  0.00  0.00    +0.000 HD
ENDROOT
BRANCH   2   5
ATOM      5  C   UNL     1      50.521   5.694  17.481  0.00  0.00    +0.000 A 
ATOM      6  C   UNL     1      51.792   5.517  17.998  0.00  0.00    +0.000 A 
ATOM      7  S   UNL     1      52.262   3.864  17.963  0.00  0.00    +0.000 S 
ATOM      8  C   UNL     1      50.729   3.380  17.390  0.00  0.00    +0.000 A 
ATOM      9  N   UNL     1      50.461   2.108  16.994  0.00  0.00    +0.000 NA
ATOM     10  C   UNL     1      49.233   1.912  16.636  0.00  0.00    +0.000 A 
ATOM     11  N   UNL     1      48.237   2.856  16.686  0.00  0.00    +0.000 N 
ATOM     12  C   UNL     1      48.455   4.148  17.090  0.00  0.00    +0.000 A 
ATOM     13  O   UNL     1      47.546   4.962  17.196  0.00  0.00    +0.000 OA
ATOM     14  C   UNL     1      49.846   4.438  17.374  0.00  0.00    +0.000 A 
ATOM     15  H   UNL     1      47.279   2.615  16.476  0.00  0.00    +0.000 HD
ENDBRANCH   2   5
BRANCH   3  16
ATOM     16  C   UNL     1      49.550   8.018  14.805  0.00  0.00    +0.000 C 
BRANCH  16  17
ATOM     17  C   UNL     1      48.443   7.817  13.799  0.00  0.00    +0.000 A 
ATOM     18  C   UNL     1      48.615   7.012  12.661  0.00  0.00    +0.000 A 
ATOM     19  C   UNL     1      47.560   6.835  11.758  0.00  0.00    +0.000 A 
ATOM     20  C   UNL     1      46.333   7.459  11.981  0.00  0.00    +0.000 A 
ATOM     21  C   UNL     1      46.194   8.338  13.056  0.00  0.00    +0.000 A 
ATOM     22  C   UNL     1      47.239   8.506  13.961  0.00  0.00    +0.000 A 
BRANCH  20  23
ATOM     23  O   UNL     1      45.325   7.144  11.107  0.00  0.00    +0.000 OA
BRANCH  23  24
ATOM     24  C   UNL     1      44.075   6.868  11.737  0.00  0.00    +0.000 C 
BRANCH  24  25
ATOM     25  C   UNL     1      43.804   5.401  11.823  0.00  0.00    +0.000 A 
ATOM     26  C   UNL     1      43.549   4.602  10.726  0.00  0.00    +0.000 A 
ATOM     27  N   UNL     1      43.389   3.262  10.795  0.00  0.00    +0.000 NA
ATOM     28  C   UNL     1      43.500   2.725  12.018  0.00  0.00    +0.000 A 
ATOM     29  N   UNL     1      43.760   3.392  13.152  0.00  0.00    +0.000 NA
ATOM     30  C   UNL     1      43.917   4.722  13.021  0.00  0.00    +0.000 A 
ENDBRANCH  24  25
ENDBRANCH  23  24
ENDBRANCH  20  23
ENDBRANCH  16  17
ENDBRANCH   3  16
TORSDOF 6
ENDMDL
MODEL 8
REMARK VINA RESULT:    -6.390      1.935      2.486
REMARK INTER + INTRA:          -9.622
REMARK INTER:                  -8.930
REMARK INTRA:                  -0.692
REMARK UNBOUND:                -0.991
REMARK  Name = 
REMARK  6 active torsions:
REMARK  status: ('A' for Active; 'I' for Inactive)
REMARK    1  A    between atoms: C_2  and  C_19
REMARK    2  A    between atoms: N_3  and  C_4
REMARK    3  A    between atoms: C_4  and  C_5
REMARK    4  A    between atoms: C_8  and  O_9
REMARK    5  A    between atoms: O_9  and  C_10
REMARK    6  A    between atoms: C_10  and  C_11
REMARK                            x       y       z     vdW  Elec       q    Type
REMARK                         _______ _______ _______ _____ _____    ______ ____
ROOT
ATOM      1  O   UNL     1      49.385   9.101  15.714  0.00  0.00    +0.000 OA
ATOM      2  C   UNL     1      49.023   7.935  15.796  0.00  0.00    +0.000 C 
ATOM      3  N   UNL     1      48.291   7.268  14.835  0.00  0.00    +0.000 N 
ATOM      4  H   UNL     1      48.239   6.265  14.910  0.00  0.00    +0.000 HD
ENDROOT
BRANCH   2   5
ATOM      5  C   UNL     1      49.498   7.017  16.824  0.00  0.00    +0.000 A 
ATOM      6  C   UNL     1      50.501   6.090  16.598  0.00  0.00    +0.000 A 
ATOM      7  S   UNL     1      50.459   4.821  17.755  0.00  0.00    +0.000 S 
ATOM      8  C   UNL     1      49.200   5.578  18.625  0.00  0.00    +0.000 A 
ATOM      9  N   UNL     1      48.560   4.975  19.661  0.00  0.00    +0.000 NA
ATOM     10  C   UNL     1      47.666   5.716  20.235  0.00  0.00    +0.000 A 
ATOM     11  N   UNL     1      47.390   7.019  19.900  0.00  0.00    +0.000 N 
ATOM     12  C   UNL     1      48.019   7.673  18.871  0.00  0.00    +0.000 A 
ATOM     13  O   UNL     1      47.814   8.856  18.627  0.00  0.00    +0.000 OA
ATOM     14  C   UNL     1      48.932   6.832  18.124  0.00  0.00    +0.000 A 
ATOM     15  H   UNL     1      46.743   7.572  20.443  0.00  0.00    +0.000 HD
ENDBRANCH   2   5
BRANCH   3  16
ATOM     16  C   UNL     1      48.124   7.773  13.500  0.00  0.00    +0.000 C 
BRANCH  16  17
ATOM     17  C   UNL     1      46.958   7.077  12.842  0.00  0.00    +0.000 A 
ATOM     18  C   UNL     1      45.979   7.787  12.130  0.00  0.00    +0.000 A 
ATOM     19  C   UNL     1      44.920   7.106  11.518  0.00  0.00    +0.000 A 
ATOM     20  C   UNL     1      44.830   5.718  11.613  0.00  0.00    +0.000 A 
ATOM     21  C   UNL     1      45.746   5.023  12.404  0.00  0.00    +0.000 A 
ATOM     22  C   UNL     1      46.806   5.697  13.004  0.00  0.00    +0.000 A 
BRANCH  20  23
ATOM     23  O   UNL     1      43.825   5.125  10.894  0.00  0.00    +0.000 OA
BRANCH  23  24
ATOM     24  C   UNL     1      43.983   3.716  10.728  0.00  0.00    +0.000 C 
BRANCH  24  25
ATOM     25  C   UNL     1      44.760   3.382   9.497  0.00  0.00    +0.000 A 
ATOM     26  C   UNL     1      45.194   4.323   8.584  0.00  0.00    +0.000 A 
ATOM     27  N   UNL     1      45.969   4.032   7.517  0.00  0.00    +0.000 NA
ATOM     28  C   UNL     1      46.315   2.743   7.384  0.00  0.00    +0.000 A 
ATOM     29  N   UNL     1      45.971   1.745   8.210  0.00  0.00    +0.000 NA
ATOM     30  C   UNL     1      45.205   2.097   9.259  0.00  0.00    +0.000 A 
ENDBRANCH  24  25
ENDBRANCH  23  24
ENDBRANCH  20  23
ENDBRANCH  16  17
ENDBRANCH   3  16
TORSDOF 6
ENDMDL
MODEL 9
REMARK VINA RESULT:    -6.362      3.397      9.067
REMARK INTER + INTRA:          -9.584
REMARK INTER:                  -8.678
REMARK INTRA:                  -0.906
REMARK UNBOUND:                -0.991
REMARK  Name = 
REMARK  6 active torsions:
REMARK  status: ('A' for Active; 'I' for Inactive)
REMARK    1  A    between atoms: C_2  and  C_19
REMARK    2  A    between atoms: N_3  and  C_4
REMARK    3  A    between atoms: C_4  and  C_5
REMARK    4  A    between atoms: C_8  and  O_9
REMARK    5  A    between atoms: O_9  and  C_10
REMARK    6  A    between atoms: C_10  and  C_11
REMARK                            x       y       z     vdW  Elec       q    Type
REMARK                         _______ _______ _______ _____ _____    ______ ____
ROOT
ATOM      1  O   UNL     1      47.530   2.962  14.339  0.00  0.00    +0.000 OA
ATOM      2  C   UNL     1      47.063   4.044  14.669  0.00  0.00    +0.000 C 
ATOM      3  N   UNL     1      46.721   4.395  15.959  0.00  0.00    +0.000 N 
ATOM      4  H   UNL     1      46.554   5.371  16.141  0.00  0.00    +0.000 HD
ENDROOT
BRANCH   2   5
ATOM      5  C   UNL     1      47.003   5.197  13.779  0.00  0.00    +0.000 A 
ATOM      6  C   UNL     1      47.835   6.294  13.913  0.00  0.00    +0.000 A 
ATOM      7  S   UNL     1      47.188   7.677  13.125  0.00  0.00    +0.000 S 
ATOM      8  C   UNL     1      45.878   6.780  12.499  0.00  0.00    +0.000 A 
ATOM      9  N   UNL     1      44.837   7.359  11.846  0.00  0.00    +0.000 NA
ATOM     10  C   UNL     1      43.960   6.520  11.397  0.00  0.00    +0.000 A 
ATOM     11  N   UNL     1      44.052   5.154  11.498  0.00  0.00    +0.000 N 
ATOM     12  C   UNL     1      45.089   4.523  12.137  0.00  0.00    +0.000 A 
ATOM     13  O   UNL     1      45.196   3.303  12.161  0.00  0.00    +0.000 OA
ATOM     14  C   UNL     1      46.023   5.436  12.765  0.00  0.00    +0.000 A 
ATOM     15  H   UNL     1      43.378   4.551  11.051  0.00  0.00    +0.000 HD
ENDBRANCH   2   5
BRANCH   3  16
ATOM     16  C   UNL     1      47.150   3.641  17.105  0.00  0.00    +0.000 C 
BRANCH  16  17
ATOM     17  C   UNL     1      48.605   3.929  17.379  0.00  0.00    +0.000 A 
ATOM     18  C   UNL     1      49.090   5.241  17.505  0.00  0.00    +0.000 A 
ATOM     19  C   UNL     1      50.443   5.469  17.777  0.00  0.00    +0.000 A 
ATOM     20  C   UNL     1      51.321   4.395  17.922  0.00  0.00    +0.000 A 
ATOM     21  C   UNL     1      50.861   3.097  17.698  0.00  0.00    +0.000 A 
ATOM     22  C   UNL     1      49.512   2.868  17.439  0.00  0.00    +0.000 A 
BRANCH  20  23
ATOM     23  O   UNL     1      52.603   4.706  18.295  0.00  0.00    +0.000 OA
BRANCH  23  24
ATOM     24  C   UNL     1      53.607   4.094  17.486  0.00  0.00    +0.000 C 
BRANCH  24  25
ATOM     25  C   UNL     1      54.234   2.920  18.166  0.00  0.00    +0.000 A 
ATOM     26  C   UNL     1      54.208   2.721  19.531  0.00  0.00    +0.000 A 
ATOM     27  N   UNL     1      54.699   1.618  20.138  0.00  0.00    +0.000 NA
ATOM     28  C   UNL     1      55.223   0.691  19.323  0.00  0.00    +0.000 A 
ATOM     29  N   UNL     1      55.290   0.763  17.986  0.00  0.00    +0.000 NA
ATOM     30  C   UNL     1      54.779   1.881  17.438  0.00  0.00    +0.000 A 
ENDBRANCH  24  25
ENDBRANCH  23  24
ENDBRANCH  20  23
ENDBRANCH  16  17
ENDBRANCH   3  16
TORSDOF 6
ENDMDL
