MODEL 1
REMARK VINA RESULT:    -7.515      0.000      0.000
REMARK INTER + INTRA:         -12.834
REMARK INTER:                 -11.468
REMARK INTRA:                  -1.366
REMARK UNBOUND:                -1.366
REMARK  Name = 
REMARK  10 active torsions:
REMARK  status: ('A' for Active; 'I' for Inactive)
REMARK    1  A    between atoms: C_1  and  C_2
REMARK    2  A    between atoms: C_2  and  C_3
REMARK    3  A    between atoms: C_3  and  N_4
REMARK    4  A    between atoms: C_3  and  C_20
REMARK    5  A    between atoms: N_4  and  C_5
REMARK    6  A    between atoms: C_5  and  C_6
REMARK    7  A    between atoms: C_9  and  C_10
REMARK    8  A    between atoms: C_10  and  N_11
REMARK    9  A    between atoms: N_11  and  C_12
REMARK   10  A    between atoms: C_12  and  C_13
REMARK                            x       y       z     vdW  Elec       q    Type
REMARK                         _______ _______ _______ _____ _____    ______ ____
ROOT
ATOM      1  C   UNL     1      46.001   8.011  12.868  0.00  0.00    +0.000 C 
ENDROOT
BRANCH   1   2
ATOM      2  C   UNL     1      45.446   6.758  12.210  0.00  0.00    +0.000 A 
ATOM      3  C   UNL     1      45.949   6.316  10.991  0.00  0.00    +0.000 A 
ATOM      4  C   UNL     1      45.423   5.154  10.429  0.00  0.00    +0.000 A 
ATOM      5  C   UNL     1      44.409   4.458  11.091  0.00  0.00    +0.000 A 
ATOM      6  C   UNL     1      43.954   4.990  12.290  0.00  0.00    +0.000 A 
ATOM      7  N   UNL     1      44.438   6.116  12.852  0.00  0.00    +0.000 NA
BRANCH   5   8
ATOM      8  C   UNL     1      43.811   3.196  10.536  0.00  0.00    +0.000 C 
BRANCH   8   9
ATOM      9  N   UNL     1      44.131   3.030   9.121  0.00  0.00    +0.000 NA
ATOM     10  H   UNL     1      44.661   3.841   8.794  0.00  0.00    +0.000 HD
BRANCH   9  11
ATOM     11  C   UNL     1      44.976   1.851   8.924  0.00  0.00    +0.000 C 
BRANCH  11  12
ATOM     12  C   UNL     1      46.089   2.218   8.000  0.00  0.00    +0.000 A 
ATOM     13  C   UNL     1      46.376   3.444   7.433  0.00  0.00    +0.000 A 
ATOM     14  N   UNL     1      47.499   3.243   6.685  0.00  0.00    +0.000 N 
ATOM     15  C   UNL     1      47.852   1.929   6.815  0.00  0.00    +0.000 A 
ATOM     16  N   UNL     1      47.022   1.283   7.602  0.00  0.00    +0.000 NA
ATOM     17  H   UNL     1      47.989   3.936   6.136  0.00  0.00    +0.000 HD
ENDBRANCH  11  12
ENDBRANCH   9  11
ENDBRANCH   8   9
ENDBRANCH   5   8
ENDBRANCH   1   2
BRANCH   1  18
ATOM     18  N   UNL     1      46.812   7.701  14.052  0.00  0.00    +0.000 NA
ATOM     19  H   UNL     1      46.264   7.105  14.670  0.00  0.00    +0.000 HD
BRANCH  18  20
ATOM     20  C   UNL     1      48.090   7.052  13.741  0.00  0.00    +0.000 C 
BRANCH  20  21
ATOM     21  C   UNL     1      48.675   6.607  15.074  0.00  0.00    +0.000 A 
ATOM     22  C   UNL     1      49.696   7.273  15.741  0.00  0.00    +0.000 A 
ATOM     23  S   UNL     1      50.156   6.520  17.202  0.00  0.00    +0.000 S 
ATOM     24  C   UNL     1      48.994   5.292  17.006  0.00  0.00    +0.000 A 
ATOM     25  N   UNL     1      48.851   4.305  17.931  0.00  0.00    +0.000 NA
ATOM     26  C   UNL     1      47.926   3.448  17.655  0.00  0.00    +0.000 A 
ATOM     27  N   UNL     1      47.134   3.485  16.534  0.00  0.00    +0.000 N 
ATOM     28  C   UNL     1      47.251   4.453  15.563  0.00  0.00    +0.000 A 
ATOM     29  O   UNL     1      46.536   4.439  14.565  0.00  0.00    +0.000 OA
ATOM     30  C   UNL     1      48.272   5.449  15.836  0.00  0.00    +0.000 A 
ATOM     31  H   UNL     1      46.430   2.780  16.374  0.00  0.00    +0.000 HD
ENDBRANCH  20  21
BRANCH  20  33
ATOM     32  C   UNL     1      49.694   7.365  11.761  0.00  0.00    +0.000 C 
ATOM     33  C   UNL     1      49.043   8.002  12.982  0.00  0.00    +0.000 C 
ENDBRANCH  20  33
ENDBRANCH  18  20
ENDBRANCH   1  18
TORSDOF 9
ENDMDL
MODEL 2
REMARK VINA RESULT:    -7.165      2.140      3.144
REMARK INTER + INTRA:         -12.300
REMARK INTER:                 -11.666
REMARK INTRA:                  -0.634
REMARK UNBOUND:                -1.366
REMARK  Name = 
REMARK  10 active torsions:
REMARK  status: ('A' for Active; 'I' for Inactive)
REMARK    1  A    between atoms: C_1  and  C_2
REMARK    2  A    between atoms: C_2  and  C_3
REMARK    3  A    between atoms: C_3  and  N_4
REMARK    4  A    between atoms: C_3  and  C_20
REMARK    5  A    between atoms: N_4  and  C_5
REMARK    6  A    between atoms: C_5  and  C_6
REMARK    7  A    between atoms: C_9  and  C_10
REMARK    8  A    between atoms: C_10  and  N_11
REMARK    9  A    between atoms: N_11  and  C_12
REMARK   10  A    between atoms: C_12  and  C_13
REMARK                            x       y       z     vdW  Elec       q    Type
REMARK                         _______ _______ _______ _____ _____    ______ ____
ROOT
ATOM      1  C   UNL     1      47.848   5.736  14.499  0.00  0.00    +0.000 C 
ENDROOT
BRANCH   1   2
ATOM      2  C   UNL     1      46.820   5.176  13.530  0.00  0.00    +0.000 A 
ATOM      3  C   UNL     1      46.238   5.991  12.564  0.00  0.00    +0.000 A 
ATOM      4  C   UNL     1      45.311   5.435  11.686  0.00  0.00    +0.000 A 
ATOM      5  C   UNL     1      44.981   4.081  11.787  0.00  0.00    +0.000 A 
ATOM      6  C   UNL     1      45.594   3.353  12.798  0.00  0.00    +0.000 A 
ATOM      7  N   UNL     1      46.487   3.868  13.667  0.00  0.00    +0.000 NA
BRANCH   5   8
ATOM      8  C   UNL     1      43.994   3.428  10.862  0.00  0.00    +0.000 C 
BRANCH   8   9
ATOM      9  N   UNL     1      44.460   3.449   9.479  0.00  0.00    +0.000 NA
ATOM     10  H   UNL     1      45.230   4.116   9.390  0.00  0.00    +0.000 HD
BRANCH   9  11
ATOM     11  C   UNL     1      44.977   2.134   9.094  0.00  0.00    +0.000 C 
BRANCH  11  12
ATOM     12  C   UNL     1      46.080   2.332   8.108  0.00  0.00    +0.000 A 
ATOM     13  C   UNL     1      46.486   3.495   7.485  0.00  0.00    +0.000 A 
ATOM     14  N   UNL     1      47.538   3.133   6.694  0.00  0.00    +0.000 N 
ATOM     15  C   UNL     1      47.732   1.790   6.854  0.00  0.00    +0.000 A 
ATOM     16  N   UNL     1      46.868   1.276   7.701  0.00  0.00    +0.000 NA
ATOM     17  H   UNL     1      48.081   3.743   6.098  0.00  0.00    +0.000 HD
ENDBRANCH  11  12
ENDBRANCH   9  11
ENDBRANCH   8   9
ENDBRANCH   5   8
ENDBRANCH   1   2
BRANCH   1  18
ATOM     18  N   UNL     1      48.209   4.768  15.543  0.00  0.00    +0.000 NA
ATOM     19  H   UNL     1      49.086   4.322  15.278  0.00  0.00    +0.000 HD
BRANCH  18  20
ATOM     20  C   UNL     1      48.337   5.360  16.879  0.00  0.00    +0.000 C 
BRANCH  20  21
ATOM     21  C   UNL     1      49.743   5.025  17.357  0.00  0.00    +0.000 A 
ATOM     22  C   UNL     1      50.639   5.958  17.865  0.00  0.00    +0.000 A 
ATOM     23  S   UNL     1      52.148   5.287  18.294  0.00  0.00    +0.000 S 
ATOM     24  C   UNL     1      51.651   3.724  17.838  0.00  0.00    +0.000 A 
ATOM     25  N   UNL     1      52.485   2.656  17.962  0.00  0.00    +0.000 NA
ATOM     26  C   UNL     1      51.971   1.534  17.585  0.00  0.00    +0.000 A 
ATOM     27  N   UNL     1      50.699   1.382  17.090  0.00  0.00    +0.000 N 
ATOM     28  C   UNL     1      49.824   2.432  16.932  0.00  0.00    +0.000 A 
ATOM     29  O   UNL     1      48.702   2.258  16.466  0.00  0.00    +0.000 OA
ATOM     30  C   UNL     1      50.354   3.717  17.355  0.00  0.00    +0.000 A 
ATOM     31  H   UNL     1      50.359   0.476  16.808  0.00  0.00    +0.000 HD
ENDBRANCH  20  21
BRANCH  20  33
ATOM     32  C   UNL     1      47.104   5.662  19.110  0.00  0.00    +0.000 C 
ATOM     33  C   UNL     1      47.257   4.826  17.846  0.00  0.00    +0.000 C 
ENDBRANCH  20  33
ENDBRANCH  18  20
ENDBRANCH   1  18
TORSDOF 9
ENDMDL
MODEL 3
REMARK VINA RESULT:    -7.026      1.751      2.160
REMARK INTER + INTRA:         -12.088
REMARK INTER:                 -11.053
REMARK INTRA:                  -1.035
REMARK UNBOUND:                -1.366
REMARK  Name = 
REMARK  10 active torsions:
REMARK  status: ('A' for Active; 'I' for Inactive)
REMARK    1  A    between atoms: C_1  and  C_2
REMARK    2  A    between atoms: C_2  and  C_3
REMARK    3  A    between atoms: C_3  and  N_4
REMARK    4  A    between atoms: C_3  and  C_20
REMARK    5  A    between atoms: N_4  and  C_5
REMARK    6  A    between atoms: C_5  and  C_6
REMARK    7  A    between atoms: C_9  and  C_10
REMARK    8  A    between atoms: C_10  and  N_11
REMARK    9  A    between atoms: N_11  and  C_12
REMARK   10  A    between atoms: C_12  and  C_13
REMARK                            x       y       z     vdW  Elec       q    Type
REMARK                         _______ _______ _______ _____ _____    ______ ____
ROOT
ATOM      1  C   UNL     1      47.431   5.125  14.544  0.00  0.00    +0.000 C 
ENDROOT
BRANCH   1   2
ATOM      2  C   UNL     1      46.435   5.063  13.398  0.00  0.00    +0.000 A 
ATOM      3  C   UNL     1      46.599   5.866  12.273  0.00  0.00    +0.000 A 
ATOM      4  C   UNL     1      45.671   5.767  11.237  0.00  0.00    +0.000 A 
ATOM      5  C   UNL     1      44.602   4.875  11.342  0.00  0.00    +0.000 A 
ATOM      6  C   UNL     1      44.507   4.134  12.513  0.00  0.00    +0.000 A 
ATOM      7  N   UNL     1      45.385   4.215  13.534  0.00  0.00    +0.000 NA
BRANCH   5   8
ATOM      8  C   UNL     1      43.578   4.723  10.254  0.00  0.00    +0.000 C 
BRANCH   8   9
ATOM      9  N   UNL     1      44.195   4.346   8.986  0.00  0.00    +0.000 NA
ATOM     10  H   UNL     1      45.039   4.905   8.839  0.00  0.00    +0.000 HD
BRANCH   9  11
ATOM     11  C   UNL     1      44.604   2.941   9.015  0.00  0.00    +0.000 C 
BRANCH  11  12
ATOM     12  C   UNL     1      45.812   2.784   8.152  0.00  0.00    +0.000 A 
ATOM     13  C   UNL     1      46.503   3.748   7.446  0.00  0.00    +0.000 A 
ATOM     14  N   UNL     1      47.529   3.084   6.837  0.00  0.00    +0.000 N 
ATOM     15  C   UNL     1      47.430   1.766   7.181  0.00  0.00    +0.000 A 
ATOM     16  N   UNL     1      46.404   1.551   7.973  0.00  0.00    +0.000 NA
ATOM     17  H   UNL     1      48.238   3.489   6.242  0.00  0.00    +0.000 HD
ENDBRANCH  11  12
ENDBRANCH   9  11
ENDBRANCH   8   9
ENDBRANCH   5   8
ENDBRANCH   1   2
BRANCH   1  18
ATOM     18  N   UNL     1      47.899   6.493  14.797  0.00  0.00    +0.000 NA
ATOM     19  H   UNL     1      47.179   6.988  15.320  0.00  0.00    +0.000 HD
BRANCH  18  20
ATOM     20  C   UNL     1      49.173   6.558  15.521  0.00  0.00    +0.000 C 
BRANCH  20  21
ATOM     21  C   UNL     1      48.817   6.785  16.984  0.00  0.00    +0.000 A 
ATOM     22  C   UNL     1      48.409   8.005  17.509  0.00  0.00    +0.000 A 
ATOM     23  S   UNL     1      48.103   7.955  19.187  0.00  0.00    +0.000 S 
ATOM     24  C   UNL     1      48.484   6.297  19.268  0.00  0.00    +0.000 A 
ATOM     25  N   UNL     1      48.415   5.616  20.443  0.00  0.00    +0.000 NA
ATOM     26  C   UNL     1      48.723   4.367  20.352  0.00  0.00    +0.000 A 
ATOM     27  N   UNL     1      49.099   3.735  19.192  0.00  0.00    +0.000 N 
ATOM     28  C   UNL     1      49.199   4.384  17.983  0.00  0.00    +0.000 A 
ATOM     29  O   UNL     1      49.558   3.788  16.971  0.00  0.00    +0.000 OA
ATOM     30  C   UNL     1      48.849   5.792  18.032  0.00  0.00    +0.000 A 
ATOM     31  H   UNL     1      49.333   2.754  19.189  0.00  0.00    +0.000 HD
ENDBRANCH  20  21
BRANCH  20  33
ATOM     32  C   UNL     1      49.919   7.919  13.477  0.00  0.00    +0.000 C 
ATOM     33  C   UNL     1      50.087   7.674  14.971  0.00  0.00    +0.000 C 
ENDBRANCH  20  33
ENDBRANCH  18  20
ENDBRANCH   1  18
TORSDOF 9
ENDMDL
MODEL 4
REMARK VINA RESULT:    -6.518      2.328      3.727
REMARK INTER + INTRA:         -11.313
REMARK INTER:                 -10.333
REMARK INTRA:                  -0.980
REMARK UNBOUND:                -1.366
REMARK  Name = 
REMARK  10 active torsions:
REMARK  status: ('A' for Active; 'I' for Inactive)
REMARK    1  A    between atoms: C_1  and  C_2
REMARK    2  A    between atoms: C_2  and  C_3
REMARK    3  A    between atoms: C_3  and  N_4
REMARK    4  A    between atoms: C_3  and  C_20
REMARK    5  A    between atoms: N_4  and  C_5
REMARK    6  A    between atoms: C_5  and  C_6
REMARK    7  A    between atoms: C_9  and  C_10
REMARK    8  A    between atoms: C_10  and  N_11
REMARK    9  A    between atoms: N_11  and  C_12
REMARK   10  A    between atoms: C_12  and  C_13
REMARK                            x       y       z     vdW  Elec       q    Type
REMARK                         _______ _______ _______ _____ _____    ______ ____
ROOT
ATOM      1  C   UNL     1      47.158   4.442  15.012  0.00  0.00    +0.000 C 
ENDROOT
BRANCH   1   2
ATOM      2  C   UNL     1      46.317   4.563  13.754  0.00  0.00    +0.000 A 
ATOM      3  C   UNL     1      46.145   5.796  13.132  0.00  0.00    +0.000 A 
ATOM      4  C   UNL     1      45.378   5.861  11.970  0.00  0.00    +0.000 A 
ATOM      5  C   UNL     1      44.798   4.700  11.453  0.00  0.00    +0.000 A 
ATOM      6  C   UNL     1      45.003   3.521  12.157  0.00  0.00    +0.000 A 
ATOM      7  N   UNL     1      45.733   3.431  13.287  0.00  0.00    +0.000 NA
BRANCH   5   8
ATOM      8  C   UNL     1      43.967   4.711  10.201  0.00  0.00    +0.000 C 
BRANCH   8   9
ATOM      9  N   UNL     1      44.777   4.433   9.019  0.00  0.00    +0.000 NA
ATOM     10  H   UNL     1      45.764   4.584   9.239  0.00  0.00    +0.000 HD
BRANCH   9  11
ATOM     11  C   UNL     1      44.630   3.033   8.616  0.00  0.00    +0.000 C 
BRANCH  11  12
ATOM     12  C   UNL     1      45.903   2.592   7.973  0.00  0.00    +0.000 A 
ATOM     13  C   UNL     1      46.452   1.327   7.919  0.00  0.00    +0.000 A 
ATOM     14  N   UNL     1      47.608   1.465   7.205  0.00  0.00    +0.000 N 
ATOM     15  C   UNL     1      47.724   2.782   6.858  0.00  0.00    +0.000 A 
ATOM     16  N   UNL     1      46.711   3.488   7.306  0.00  0.00    +0.000 NA
ATOM     17  H   UNL     1      48.261   0.731   6.970  0.00  0.00    +0.000 HD
ENDBRANCH  11  12
ENDBRANCH   9  11
ENDBRANCH   8   9
ENDBRANCH   5   8
ENDBRANCH   1   2
BRANCH   1  18
ATOM     18  N   UNL     1      48.217   5.458  15.071  0.00  0.00    +0.000 NA
ATOM     19  H   UNL     1      47.938   6.246  14.489  0.00  0.00    +0.000 HD
BRANCH  18  20
ATOM     20  C   UNL     1      48.516   5.924  16.429  0.00  0.00    +0.000 C 
BRANCH  20  21
ATOM     21  C   UNL     1      50.029   6.069  16.503  0.00  0.00    +0.000 A 
ATOM     22  C   UNL     1      50.845   5.329  17.350  0.00  0.00    +0.000 A 
ATOM     23  S   UNL     1      52.499   5.732  17.225  0.00  0.00    +0.000 S 
ATOM     24  C   UNL     1      52.186   6.893  16.020  0.00  0.00    +0.000 A 
ATOM     25  N   UNL     1      53.194   7.615  15.460  0.00  0.00    +0.000 NA
ATOM     26  C   UNL     1      52.810   8.451  14.555  0.00  0.00    +0.000 A 
ATOM     27  N   UNL     1      51.508   8.637  14.162  0.00  0.00    +0.000 N 
ATOM     28  C   UNL     1      50.453   7.943  14.709  0.00  0.00    +0.000 A 
ATOM     29  O   UNL     1      49.299   8.153  14.345  0.00  0.00    +0.000 OA
ATOM     30  C   UNL     1      50.837   6.979  15.725  0.00  0.00    +0.000 A 
ATOM     31  H   UNL     1      51.273   9.312  13.451  0.00  0.00    +0.000 HD
ENDBRANCH  20  21
BRANCH  20  33
ATOM     32  C   UNL     1      47.359   5.648  18.703  0.00  0.00    +0.000 C 
ATOM     33  C   UNL     1      47.977   4.950  17.499  0.00  0.00    +0.000 C 
ENDBRANCH  20  33
ENDBRANCH  18  20
ENDBRANCH   1  18
TORSDOF 9
ENDMDL
MODEL 5
REMARK VINA RESULT:    -6.501      2.466      3.760
REMARK INTER + INTRA:         -11.288
REMARK INTER:                 -10.411
REMARK INTRA:                  -0.877
REMARK UNBOUND:                -1.366
REMARK  Name = 
REMARK  10 active torsions:
REMARK  status: ('A' for Active; 'I' for Inactive)
REMARK    1  A    between atoms: C_1  and  C_2
REMARK    2  A    between atoms: C_2  and  C_3
REMARK    3  A    between atoms: C_3  and  N_4
REMARK    4  A    between atoms: C_3  and  C_20
REMARK    5  A    between atoms: N_4  and  C_5
REMARK    6  A    between atoms: C_5  and  C_6
REMARK    7  A    between atoms: C_9  and  C_10
REMARK    8  A    between atoms: C_10  and  N_11
REMARK    9  A    between atoms: N_11  and  C_12
REMARK   10  A    between atoms: C_12  and  C_13
REMARK                            x       y       z     vdW  Elec       q    Type
REMARK                         _______ _______ _______ _____ _____    ______ ____
ROOT
ATOM      1  C   UNL     1      47.847   5.655  14.771  0.00  0.00    +0.000 C 
ENDROOT
BRANCH   1   2
ATOM      2  C   UNL     1      46.943   5.417  13.573  0.00  0.00    +0.000 A 
ATOM      3  C   UNL     1      46.155   4.273  13.496  0.00  0.00    +0.000 A 
ATOM      4  C   UNL     1      45.328   4.100  12.387  0.00  0.00    +0.000 A 
ATOM      5  C   UNL     1      45.304   5.068  11.380  0.00  0.00    +0.000 A 
ATOM      6  C   UNL     1      46.144   6.163  11.532  0.00  0.00    +0.000 A 
ATOM      7  N   UNL     1      46.959   6.351  12.589  0.00  0.00    +0.000 NA
BRANCH   5   8
ATOM      8  C   UNL     1      44.427   4.937  10.167  0.00  0.00    +0.000 C 
BRANCH   8   9
ATOM      9  N   UNL     1      45.216   4.855   8.942  0.00  0.00    +0.000 NA
ATOM     10  H   UNL     1      46.207   4.777   9.180  0.00  0.00    +0.000 HD
BRANCH   9  11
ATOM     11  C   UNL     1      44.856   3.656   8.182  0.00  0.00    +0.000 C 
BRANCH  11  12
ATOM     12  C   UNL     1      46.102   3.077   7.598  0.00  0.00    +0.000 A 
ATOM     13  C   UNL     1      47.067   3.696   6.829  0.00  0.00    +0.000 A 
ATOM     14  N   UNL     1      47.996   2.731   6.569  0.00  0.00    +0.000 N 
ATOM     15  C   UNL     1      47.575   1.579   7.172  0.00  0.00    +0.000 A 
ATOM     16  N   UNL     1      46.435   1.754   7.801  0.00  0.00    +0.000 NA
ATOM     17  H   UNL     1      48.845   2.842   6.032  0.00  0.00    +0.000 HD
ENDBRANCH  11  12
ENDBRANCH   9  11
ENDBRANCH   8   9
ENDBRANCH   5   8
ENDBRANCH   1   2
BRANCH   1  18
ATOM     18  N   UNL     1      47.335   5.011  15.987  0.00  0.00    +0.000 NA
ATOM     19  H   UNL     1      47.335   4.002  15.841  0.00  0.00    +0.000 HD
BRANCH  18  20
ATOM     20  C   UNL     1      48.098   5.338  17.196  0.00  0.00    +0.000 C 
BRANCH  20  21
ATOM     21  C   UNL     1      49.212   4.304  17.286  0.00  0.00    +0.000 A 
ATOM     22  C   UNL     1      49.031   2.941  17.089  0.00  0.00    +0.000 A 
ATOM     23  S   UNL     1      50.462   2.031  17.281  0.00  0.00    +0.000 S 
ATOM     24  C   UNL     1      51.377   3.427  17.611  0.00  0.00    +0.000 A 
ATOM     25  N   UNL     1      52.712   3.350  17.863  0.00  0.00    +0.000 NA
ATOM     26  C   UNL     1      53.276   4.488  18.088  0.00  0.00    +0.000 A 
ATOM     27  N   UNL     1      52.627   5.698  18.091  0.00  0.00    +0.000 N 
ATOM     28  C   UNL     1      51.277   5.826  17.858  0.00  0.00    +0.000 A 
ATOM     29  O   UNL     1      50.729   6.924  17.890  0.00  0.00    +0.000 OA
ATOM     30  C   UNL     1      50.599   4.571  17.586  0.00  0.00    +0.000 A 
ATOM     31  H   UNL     1      53.127   6.553  18.280  0.00  0.00    +0.000 HD
ENDBRANCH  20  21
BRANCH  20  33
ATOM     32  C   UNL     1      47.854   5.984  19.668  0.00  0.00    +0.000 C 
ATOM     33  C   UNL     1      47.203   5.332  18.456  0.00  0.00    +0.000 C 
ENDBRANCH  20  33
ENDBRANCH  18  20
ENDBRANCH   1  18
TORSDOF 9
ENDMDL
MODEL 6
REMARK VINA RESULT:    -6.499      2.824      4.772
REMARK INTER + INTRA:         -11.284
REMARK INTER:                 -10.581
REMARK INTRA:                  -0.703
REMARK UNBOUND:                -1.366
REMARK  Name = 
REMARK  10 active torsions:
REMARK  status: ('A' for Active; 'I' for Inactive)
REMARK    1  A    between atoms: C_1  and  C_2
REMARK    2  A    between atoms: C_2  and  C_3
REMARK    3  A    between atoms: C_3  and  N_4
REMARK    4  A    between atoms: C_3  and  C_20
REMARK    5  A    between atoms: N_4  and  C_5
REMARK    6  A    between atoms: C_5  and  C_6
REMARK    7  A    between atoms: C_9  and  C_10
REMARK    8  A    between atoms: C_10  and  N_11
REMARK    9  A    between atoms: N_11  and  C_12
REMARK   10  A    between atoms: C_12  and  C_13
REMARK                            x       y       z     vdW  Elec       q    Type
REMARK                         _______ _______ _______ _____ _____    ______ ____
ROOT
ATOM      1  C   UNL     1      49.309   6.634  15.558  0.00  0.00    +0.000 C 
ENDROOT
BRANCH   1   2
ATOM      2  C   UNL     1      48.229   6.673  14.490  0.00  0.00    +0.000 A 
ATOM      3  C   UNL     1      47.762   7.888  13.998  0.00  0.00    +0.000 A 
ATOM      4  C   UNL     1      46.781   7.878  13.008  0.00  0.00    +0.000 A 
ATOM      5  C   UNL     1      46.286   6.663  12.530  0.00  0.00    +0.000 A 
ATOM      6  C   UNL     1      46.794   5.503  13.099  0.00  0.00    +0.000 A 
ATOM      7  N   UNL     1      47.736   5.483  14.064  0.00  0.00    +0.000 NA
BRANCH   5   8
ATOM      8  C   UNL     1      45.234   6.594  11.459  0.00  0.00    +0.000 C 
BRANCH   8   9
ATOM      9  N   UNL     1      43.902   6.842  12.000  0.00  0.00    +0.000 NA
ATOM     10  H   UNL     1      43.631   7.809  11.808  0.00  0.00    +0.000 HD
BRANCH   9  11
ATOM     11  C   UNL     1      42.917   5.977  11.349  0.00  0.00    +0.000 C 
BRANCH  11  12
ATOM     12  C   UNL     1      43.273   4.557  11.639  0.00  0.00    +0.000 A 
ATOM     13  C   UNL     1      43.436   3.937  12.861  0.00  0.00    +0.000 A 
ATOM     14  N   UNL     1      43.743   2.639  12.571  0.00  0.00    +0.000 N 
ATOM     15  C   UNL     1      43.760   2.513  11.211  0.00  0.00    +0.000 A 
ATOM     16  N   UNL     1      43.481   3.652  10.618  0.00  0.00    +0.000 NA
ATOM     17  H   UNL     1      43.922   1.900  13.236  0.00  0.00    +0.000 HD
ENDBRANCH  11  12
ENDBRANCH   9  11
ENDBRANCH   8   9
ENDBRANCH   5   8
ENDBRANCH   1   2
BRANCH   1  18
ATOM     18  N   UNL     1      49.328   5.356  16.281  0.00  0.00    +0.000 NA
ATOM     19  H   UNL     1      50.084   4.786  15.906  0.00  0.00    +0.000 HD
BRANCH  18  20
ATOM     20  C   UNL     1      49.485   5.499  17.732  0.00  0.00    +0.000 C 
BRANCH  20  21
ATOM     21  C   UNL     1      50.794   4.809  18.086  0.00  0.00    +0.000 A 
ATOM     22  C   UNL     1      51.848   5.424  18.751  0.00  0.00    +0.000 A 
ATOM     23  S   UNL     1      53.194   4.402  18.983  0.00  0.00    +0.000 S 
ATOM     24  C   UNL     1      52.410   3.096  18.225  0.00  0.00    +0.000 A 
ATOM     25  N   UNL     1      53.021   1.887  18.095  0.00  0.00    +0.000 NA
ATOM     26  C   UNL     1      52.305   0.990  17.508  0.00  0.00    +0.000 A 
ATOM     27  N   UNL     1      51.033   1.192  17.031  0.00  0.00    +0.000 N 
ATOM     28  C   UNL     1      50.379   2.399  17.123  0.00  0.00    +0.000 A 
ATOM     29  O   UNL     1      49.249   2.545  16.666  0.00  0.00    +0.000 OA
ATOM     30  C   UNL     1      51.142   3.439  17.790  0.00  0.00    +0.000 A 
ATOM     31  H   UNL     1      50.528   0.448  16.574  0.00  0.00    +0.000 HD
ENDBRANCH  20  21
BRANCH  20  33
ATOM     32  C   UNL     1      47.214   5.912  18.854  0.00  0.00    +0.000 C 
ATOM     33  C   UNL     1      48.289   4.894  18.499  0.00  0.00    +0.000 C 
ENDBRANCH  20  33
ENDBRANCH  18  20
ENDBRANCH   1  18
TORSDOF 9
ENDMDL
MODEL 7
REMARK VINA RESULT:    -6.336      2.404      3.958
REMARK INTER + INTRA:         -11.036
REMARK INTER:                 -10.010
REMARK INTRA:                  -1.026
REMARK UNBOUND:                -1.366
REMARK  Name = 
REMARK  10 active torsions:
REMARK  status: ('A' for Active; 'I' for Inactive)
REMARK    1  A    between atoms: C_1  and  C_2
REMARK    2  A    between atoms: C_2  and  C_3
REMARK    3  A    between atoms: C_3  and  N_4
REMARK    4  A    between atoms: C_3  and  C_20
REMARK    5  A    between atoms: N_4  and  C_5
REMARK    6  A    between atoms: C_5  and  C_6
REMARK    7  A    between atoms: C_9  and  C_10
REMARK    8  A    between atoms: C_10  and  N_11
REMARK    9  A    between atoms: N_11  and  C_12
REMARK   10  A    between atoms: C_12  and  C_13
REMARK                            x       y       z     vdW  Elec       q    Type
REMARK                         _______ _______ _______ _____ _____    ______ ____
ROOT
ATOM      1  C   UNL     1      49.089   7.277  15.524  0.00  0.00    +0.000 C 
ENDROOT
BRANCH   1   2
ATOM      2  C   UNL     1      48.154   6.999  14.359  0.00  0.00    +0.000 A 
ATOM      3  C   UNL     1      47.544   8.045  13.674  0.00  0.00    +0.000 A 
ATOM      4  C   UNL     1      46.706   7.746  12.601  0.00  0.00    +0.000 A 
ATOM      5  C   UNL     1      46.492   6.416  12.234  0.00  0.00    +0.000 A 
ATOM      6  C   UNL     1      47.124   5.439  12.992  0.00  0.00    +0.000 A 
ATOM      7  N   UNL     1      47.932   5.699  14.040  0.00  0.00    +0.000 NA
BRANCH   5   8
ATOM      8  C   UNL     1      45.605   6.038  11.082  0.00  0.00    +0.000 C 
BRANCH   8   9
ATOM      9  N   UNL     1      44.571   5.092  11.490  0.00  0.00    +0.000 NA
ATOM     10  H   UNL     1      43.968   5.528  12.192  0.00  0.00    +0.000 HD
BRANCH   9  11
ATOM     11  C   UNL     1      43.724   4.736  10.350  0.00  0.00    +0.000 C 
BRANCH  11  12
ATOM     12  C   UNL     1      44.487   3.802   9.470  0.00  0.00    +0.000 A 
ATOM     13  C   UNL     1      44.839   2.488   9.701  0.00  0.00    +0.000 A 
ATOM     14  N   UNL     1      45.512   2.092   8.582  0.00  0.00    +0.000 N 
ATOM     15  C   UNL     1      45.551   3.155   7.725  0.00  0.00    +0.000 A 
ATOM     16  N   UNL     1      44.941   4.203   8.231  0.00  0.00    +0.000 NA
ATOM     17  H   UNL     1      45.909   1.178   8.410  0.00  0.00    +0.000 HD
ENDBRANCH  11  12
ENDBRANCH   9  11
ENDBRANCH   8   9
ENDBRANCH   5   8
ENDBRANCH   1   2
BRANCH   1  18
ATOM     18  N   UNL     1      48.361   7.453  16.788  0.00  0.00    +0.000 NA
ATOM     19  H   UNL     1      47.398   7.152  16.648  0.00  0.00    +0.000 HD
BRANCH  18  20
ATOM     20  C   UNL     1      48.951   6.726  17.917  0.00  0.00    +0.000 C 
BRANCH  20  21
ATOM     21  C   UNL     1      48.690   5.250  17.651  0.00  0.00    +0.000 A 
ATOM     22  C   UNL     1      47.428   4.699  17.469  0.00  0.00    +0.000 A 
ATOM     23  S   UNL     1      47.453   3.011  17.215  0.00  0.00    +0.000 S 
ATOM     24  C   UNL     1      49.151   2.960  17.318  0.00  0.00    +0.000 A 
ATOM     25  N   UNL     1      49.829   1.789  17.176  0.00  0.00    +0.000 NA
ATOM     26  C   UNL     1      51.111   1.904  17.270  0.00  0.00    +0.000 A 
ATOM     27  N   UNL     1      51.778   3.082  17.497  0.00  0.00    +0.000 N 
ATOM     28  C   UNL     1      51.137   4.288  17.663  0.00  0.00    +0.000 A 
ATOM     29  O   UNL     1      51.768   5.317  17.885  0.00  0.00    +0.000 OA
ATOM     30  C   UNL     1      49.690   4.212  17.553  0.00  0.00    +0.000 A 
ATOM     31  H   UNL     1      52.784   3.102  17.565  0.00  0.00    +0.000 HD
ENDBRANCH  20  21
BRANCH  20  33
ATOM     32  C   UNL     1      47.432   8.389  19.147  0.00  0.00    +0.000 C 
ATOM     33  C   UNL     1      48.354   7.183  19.266  0.00  0.00    +0.000 C 
ENDBRANCH  20  33
ENDBRANCH  18  20
ENDBRANCH   1  18
TORSDOF 9
ENDMDL
MODEL 8
REMARK VINA RESULT:    -6.182      2.148      3.802
REMARK INTER + INTRA:         -10.800
REMARK INTER:                  -9.903
REMARK INTRA:                  -0.897
REMARK UNBOUND:                -1.366
REMARK  Name = 
REMARK  10 active torsions:
REMARK  status: ('A' for Active; 'I' for Inactive)
REMARK    1  A    between atoms: C_1  and  C_2
REMARK    2  A    between atoms: C_2  and  C_3
REMARK    3  A    between atoms: C_3  and  N_4
REMARK    4  A    between atoms: C_3  and  C_20
REMARK    5  A    between atoms: N_4  and  C_5
REMARK    6  A    between atoms: C_5  and  C_6
REMARK    7  A    between atoms: C_9  and  C_10
REMARK    8  A    between atoms: C_10  and  N_11
REMARK    9  A    between atoms: N_11  and  C_12
REMARK   10  A    between atoms: C_12  and  C_13
REMARK                            x       y       z     vdW  Elec       q    Type
REMARK                         _______ _______ _______ _____ _____    ______ ____
ROOT
ATOM      1  C   UNL     1      47.190   4.469  15.728  0.00  0.00    +0.000 C 
ENDROOT
BRANCH   1   2
ATOM      2  C   UNL     1      46.678   4.725  14.321  0.00  0.00    +0.000 A 
ATOM      3  C   UNL     1      46.997   5.904  13.654  0.00  0.00    +0.000 A 
ATOM      4  C   UNL     1      46.520   6.093  12.359  0.00  0.00    +0.000 A 
ATOM      5  C   UNL     1      45.737   5.107  11.755  0.00  0.00    +0.000 A 
ATOM      6  C   UNL     1      45.450   3.976  12.507  0.00  0.00    +0.000 A 
ATOM      7  N   UNL     1      45.890   3.771  13.765  0.00  0.00    +0.000 NA
BRANCH   5   8
ATOM      8  C   UNL     1      45.202   5.255  10.358  0.00  0.00    +0.000 C 
BRANCH   8   9
ATOM      9  N   UNL     1      44.545   4.033   9.904  0.00  0.00    +0.000 NA
ATOM     10  H   UNL     1      43.569   4.038  10.209  0.00  0.00    +0.000 HD
BRANCH   9  11
ATOM     11  C   UNL     1      44.544   3.968   8.441  0.00  0.00    +0.000 C 
BRANCH  11  12
ATOM     12  C   UNL     1      45.642   3.055   8.009  0.00  0.00    +0.000 A 
ATOM     13  C   UNL     1      45.868   1.742   8.369  0.00  0.00    +0.000 A 
ATOM     14  N   UNL     1      46.990   1.368   7.686  0.00  0.00    +0.000 N 
ATOM     15  C   UNL     1      47.404   2.443   6.952  0.00  0.00    +0.000 A 
ATOM     16  N   UNL     1      46.612   3.477   7.124  0.00  0.00    +0.000 NA
ATOM     17  H   UNL     1      47.437   0.461   7.713  0.00  0.00    +0.000 HD
ENDBRANCH  11  12
ENDBRANCH   9  11
ENDBRANCH   8   9
ENDBRANCH   5   8
ENDBRANCH   1   2
BRANCH   1  18
ATOM     18  N   UNL     1      48.617   4.787  15.865  0.00  0.00    +0.000 NA
ATOM     19  H   UNL     1      48.811   5.632  15.329  0.00  0.00    +0.000 HD
BRANCH  18  20
ATOM     20  C   UNL     1      49.053   4.968  17.254  0.00  0.00    +0.000 C 
BRANCH  20  21
ATOM     21  C   UNL     1      48.586   6.357  17.666  0.00  0.00    +0.000 A 
ATOM     22  C   UNL     1      47.832   6.623  18.802  0.00  0.00    +0.000 A 
ATOM     23  S   UNL     1      47.439   8.273  18.986  0.00  0.00    +0.000 S 
ATOM     24  C   UNL     1      48.280   8.694  17.567  0.00  0.00    +0.000 A 
ATOM     25  N   UNL     1      48.347   9.985  17.144  0.00  0.00    +0.000 NA
ATOM     26  C   UNL     1      49.024  10.155  16.060  0.00  0.00    +0.000 A 
ATOM     27  N   UNL     1      49.638   9.150  15.354  0.00  0.00    +0.000 N 
ATOM     28  C   UNL     1      49.586   7.828  15.731  0.00  0.00    +0.000 A 
ATOM     29  O   UNL     1      50.131   6.956  15.061  0.00  0.00    +0.000 OA
ATOM     30  C   UNL     1      48.845   7.588  16.956  0.00  0.00    +0.000 A 
ATOM     31  H   UNL     1      50.149   9.350  14.507  0.00  0.00    +0.000 HD
ENDBRANCH  20  21
BRANCH  20  33
ATOM     32  C   UNL     1      51.005   3.440  17.919  0.00  0.00    +0.000 C 
ATOM     33  C   UNL     1      50.582   4.807  17.398  0.00  0.00    +0.000 C 
ENDBRANCH  20  33
ENDBRANCH  18  20
ENDBRANCH   1  18
TORSDOF 9
ENDMDL
MODEL 9
REMARK VINA RESULT:    -6.136      2.301      3.041
REMARK INTER + INTRA:         -10.730
REMARK INTER:                  -9.920
REMARK INTRA:                  -0.810
REMARK UNBOUND:                -1.366
REMARK  Name = 
REMARK  10 active torsions:
REMARK  status: ('A' for Active; 'I' for Inactive)
REMARK    1  A    between atoms: C_1  and  C_2
REMARK    2  A    between atoms: C_2  and  C_3
REMARK    3  A    between atoms: C_3  and  N_4
REMARK    4  A    between atoms: C_3  and  C_20
REMARK    5  A    between atoms: N_4  and  C_5
REMARK    6  A    between atoms: C_5  and  C_6
REMARK    7  A    between atoms: C_9  and  C_10
REMARK    8  A    between atoms: C_10  and  N_11
REMARK    9  A    between atoms: N_11  and  C_12
REMARK   10  A    between atoms: C_12  and  C_13
REMARK                            x       y       z     vdW  Elec       q    Type
REMARK                         _______ _______ _______ _____ _____    ______ ____
ROOT
ATOM      1  C   UNL     1      47.712   6.986  13.502  0.00  0.00    +0.000 C 
ENDROOT
BRANCH   1   2
ATOM      2  C   UNL     1      46.795   5.989  12.815  0.00  0.00    +0.000 A 
ATOM      3  C   UNL     1      46.421   4.812  13.456  0.00  0.00    +0.000 A 
ATOM      4  C   UNL     1      45.565   3.931  12.796  0.00  0.00    +0.000 A 
ATOM      5  C   UNL     1      45.102   4.240  11.515  0.00  0.00    +0.000 A 
ATOM      6  C   UNL     1      45.550   5.425  10.947  0.00  0.00    +0.000 A 
ATOM      7  N   UNL     1      46.384   6.290  11.558  0.00  0.00    +0.000 NA
BRANCH   5   8
ATOM      8  C   UNL     1      44.173   3.330  10.761  0.00  0.00    +0.000 C 
BRANCH   8   9
ATOM      9  N   UNL     1      44.904   2.441   9.864  0.00  0.00    +0.000 NA
ATOM     10  H   UNL     1      44.416   1.546   9.799  0.00  0.00    +0.000 HD
BRANCH   9  11
ATOM     11  C   UNL     1      44.956   3.007   8.515  0.00  0.00    +0.000 C 
BRANCH  11  12
ATOM     12  C   UNL     1      46.188   2.503   7.840  0.00  0.00    +0.000 A 
ATOM     13  C   UNL     1      46.692   1.219   7.805  0.00  0.00    +0.000 A 
ATOM     14  N   UNL     1      47.824   1.295   7.046  0.00  0.00    +0.000 N 
ATOM     15  C   UNL     1      47.972   2.596   6.655  0.00  0.00    +0.000 A 
ATOM     16  N   UNL     1      47.001   3.351   7.117  0.00  0.00    +0.000 NA
ATOM     17  H   UNL     1      48.444   0.532   6.810  0.00  0.00    +0.000 HD
ENDBRANCH  11  12
ENDBRANCH   9  11
ENDBRANCH   8   9
ENDBRANCH   5   8
ENDBRANCH   1   2
BRANCH   1  18
ATOM     18  N   UNL     1      47.846   6.716  14.940  0.00  0.00    +0.000 NA
ATOM     19  H   UNL     1      47.718   5.717  15.092  0.00  0.00    +0.000 HD
BRANCH  18  20
ATOM     20  C   UNL     1      49.129   7.145  15.506  0.00  0.00    +0.000 C 
BRANCH  20  21
ATOM     21  C   UNL     1      49.521   6.081  16.521  0.00  0.00    +0.000 A 
ATOM     22  C   UNL     1      48.613   5.282  17.206  0.00  0.00    +0.000 A 
ATOM     23  S   UNL     1      49.351   4.197  18.297  0.00  0.00    +0.000 S 
ATOM     24  C   UNL     1      50.909   4.740  17.878  0.00  0.00    +0.000 A 
ATOM     25  N   UNL     1      52.019   4.205  18.454  0.00  0.00    +0.000 NA
ATOM     26  C   UNL     1      53.130   4.708  18.034  0.00  0.00    +0.000 A 
ATOM     27  N   UNL     1      53.234   5.703  17.093  0.00  0.00    +0.000 N 
ATOM     28  C   UNL     1      52.141   6.286  16.494  0.00  0.00    +0.000 A 
ATOM     29  O   UNL     1      52.275   7.187  15.671  0.00  0.00    +0.000 OA
ATOM     30  C   UNL     1      50.865   5.743  16.926  0.00  0.00    +0.000 A 
ATOM     31  H   UNL     1      54.135   6.057  16.812  0.00  0.00    +0.000 HD
ENDBRANCH  20  21
BRANCH  20  33
ATOM     32  C   UNL     1      49.694   9.642  15.325  0.00  0.00    +0.000 C 
ATOM     33  C   UNL     1      49.031   8.546  16.148  0.00  0.00    +0.000 C 
ENDBRANCH  20  33
ENDBRANCH  18  20
ENDBRANCH   1  18
TORSDOF 9
ENDMDL
