MODEL 1
REMARK VINA RESULT:    -8.016      0.000      0.000
REMARK INTER + INTRA:         -12.138
REMARK INTER:                 -11.296
REMARK INTRA:                  -0.842
REMARK UNBOUND:                -0.842
REMARK  Name = 
REMARK  10 active torsions:
REMARK  status: ('A' for Active; 'I' for Inactive)
REMARK    1  A    between atoms: C_1  and  C_2
REMARK    2  A    between atoms: C_3  and  C_4
REMARK    3  A    between atoms: C_7  and  C_8
REMARK    4  A    between atoms: C_11  and  S_12
REMARK    5  A    between atoms: S_12  and  C_13
REMARK    6  A    between atoms: C_13  and  C_14
REMARK    7  A    between atoms: C_14  and  C_15
REMARK    8  A    between atoms: C_14  and  C_16
REMARK    9  A    between atoms: C_14  and  C_17
REMARK   10  A    between atoms: C_21  and  C_22
REMARK                            x       y       z     vdW  Elec       q    Type
REMARK                         _______ _______ _______ _____ _____    ______ ____
ROOT
ATOM      1  S   UNL     1      45.607   6.986  11.576  0.00  0.00    +0.000 S 
ENDROOT
BRANCH   1   6
ATOM      2  C   UNL     1      45.224   3.891   8.996  0.00  0.00    +0.000 A 
ATOM      3  C   UNL     1      44.331   3.007   9.550  0.00  0.00    +0.000 A 
ATOM      4  N   UNL     1      43.764   3.242  10.725  0.00  0.00    +0.000 NA
ATOM      5  C   UNL     1      44.067   4.420  11.415  0.00  0.00    +0.000 A 
ATOM      6  C   UNL     1      44.964   5.401  10.940  0.00  0.00    +0.000 A 
ATOM      7  C   UNL     1      45.536   5.085   9.689  0.00  0.00    +0.000 A 
BRANCH   5   8
ATOM      8  C   UNL     1      43.291   4.414  12.687  0.00  0.00    +0.000 C 
ATOM      9  N   UNL     1      42.588   5.590  12.871  0.00  0.00    +0.000 N 
ATOM     10  O   UNL     1      43.331   3.557  13.551  0.00  0.00    +0.000 OA
ATOM     11  H   UNL     1      42.890   6.358  12.270  0.00  0.00    +0.000 HD
ATOM     12  H   UNL     1      42.287   5.822  13.805  0.00  0.00    +0.000 HD
ENDBRANCH   5   8
BRANCH   2  15
ATOM     13  C   UNL     1      46.936   2.849   5.259  0.00  0.00    +0.000 C 
ATOM     14  C   UNL     1      46.327   3.232   6.598  0.00  0.00    +0.000 C 
ATOM     15  C   UNL     1      45.803   3.560   7.746  0.00  0.00    +0.000 C 
ENDBRANCH   2  15
ENDBRANCH   1   6
BRANCH   1  16
ATOM     16  C   UNL     1      47.448   6.914  11.751  0.00  0.00    +0.000 C 
BRANCH  16  17
ATOM     17  C   UNL     1      48.179   7.850  12.804  0.00  0.00    +0.000 C 
ATOM     18  C   UNL     1      49.586   8.224  12.284  0.00  0.00    +0.000 C 
ATOM     19  C   UNL     1      47.366   9.161  13.017  0.00  0.00    +0.000 C 
BRANCH  17  20
ATOM     20  C   UNL     1      48.267   7.109  14.182  0.00  0.00    +0.000 A 
ATOM     21  C   UNL     1      48.954   7.721  15.248  0.00  0.00    +0.000 A 
ATOM     22  C   UNL     1      49.118   7.080  16.481  0.00  0.00    +0.000 A 
ATOM     23  C   UNL     1      48.637   5.789  16.681  0.00  0.00    +0.000 A 
ATOM     24  C   UNL     1      47.946   5.145  15.656  0.00  0.00    +0.000 A 
ATOM     25  C   UNL     1      47.721   5.829  14.436  0.00  0.00    +0.000 A 
BRANCH  24  26
ATOM     26  C   UNL     1      47.487   3.722  15.776  0.00  0.00    +0.000 C 
ATOM     27  N   UNL     1      47.058   3.267  16.985  0.00  0.00    +0.000 N 
ATOM     28  O   UNL     1      47.521   2.957  14.817  0.00  0.00    +0.000 OA
ATOM     29  H   UNL     1      47.058   3.783  17.852  0.00  0.00    +0.000 HD
ATOM     30  H   UNL     1      46.836   2.275  17.043  0.00  0.00    +0.000 HD
ENDBRANCH  24  26
ENDBRANCH  17  20
ENDBRANCH  16  17
ENDBRANCH   1  16
TORSDOF 7
ENDMDL
MODEL 2
REMARK VINA RESULT:    -7.692      1.191      1.725
REMARK INTER + INTRA:         -11.681
REMARK INTER:                 -10.871
REMARK INTRA:                  -0.810
REMARK UNBOUND:                -0.842
REMARK  Name = 
REMARK  10 active torsions:
REMARK  status: ('A' for Active; 'I' for Inactive)
REMARK    1  A    between atoms: C_1  and  C_2
REMARK    2  A    between atoms: C_3  and  C_4
REMARK    3  A    between atoms: C_7  and  C_8
REMARK    4  A    between atoms: C_11  and  S_12
REMARK    5  A    between atoms: S_12  and  C_13
REMARK    6  A    between atoms: C_13  and  C_14
REMARK    7  A    between atoms: C_14  and  C_15
REMARK    8  A    between atoms: C_14  and  C_16
REMARK    9  A    between atoms: C_14  and  C_17
REMARK   10  A    between atoms: C_21  and  C_22
REMARK                            x       y       z     vdW  Elec       q    Type
REMARK                         _______ _______ _______ _____ _____    ______ ____
ROOT
ATOM      1  S   UNL     1      45.620   7.081  11.499  0.00  0.00    +0.000 S 
ENDROOT
BRANCH   1   6
ATOM      2  C   UNL     1      45.289   3.913   9.000  0.00  0.00    +0.000 A 
ATOM      3  C   UNL     1      44.390   3.042   9.564  0.00  0.00    +0.000 A 
ATOM      4  N   UNL     1      43.804   3.307  10.724  0.00  0.00    +0.000 NA
ATOM      5  C   UNL     1      44.092   4.506  11.384  0.00  0.00    +0.000 A 
ATOM      6  C   UNL     1      44.992   5.476  10.897  0.00  0.00    +0.000 A 
ATOM      7  C   UNL     1      45.586   5.128   9.665  0.00  0.00    +0.000 A 
BRANCH   5   8
ATOM      8  C   UNL     1      43.295   4.532  12.644  0.00  0.00    +0.000 C 
ATOM      9  N   UNL     1      42.539   5.683  12.755  0.00  0.00    +0.000 N 
ATOM     10  O   UNL     1      43.358   3.724  13.553  0.00  0.00    +0.000 OA
ATOM     11  H   UNL     1      42.816   6.431  12.117  0.00  0.00    +0.000 HD
ATOM     12  H   UNL     1      42.212   5.951  13.670  0.00  0.00    +0.000 HD
ENDBRANCH   5   8
BRANCH   2  15
ATOM     13  C   UNL     1      47.037   2.834   5.291  0.00  0.00    +0.000 C 
ATOM     14  C   UNL     1      46.420   3.219   6.625  0.00  0.00    +0.000 C 
ATOM     15  C   UNL     1      45.889   3.550   7.770  0.00  0.00    +0.000 C 
ENDBRANCH   2  15
ENDBRANCH   1   6
BRANCH   1  16
ATOM     16  C   UNL     1      47.453   7.009  11.742  0.00  0.00    +0.000 C 
BRANCH  16  17
ATOM     17  C   UNL     1      48.076   7.346  13.163  0.00  0.00    +0.000 C 
ATOM     18  C   UNL     1      49.576   7.690  13.008  0.00  0.00    +0.000 C 
ATOM     19  C   UNL     1      47.351   8.571  13.794  0.00  0.00    +0.000 C 
BRANCH  17  20
ATOM     20  C   UNL     1      47.874   6.122  14.120  0.00  0.00    +0.000 A 
ATOM     21  C   UNL     1      47.254   4.959  13.624  0.00  0.00    +0.000 A 
ATOM     22  C   UNL     1      46.990   3.859  14.448  0.00  0.00    +0.000 A 
ATOM     23  C   UNL     1      47.300   3.896  15.804  0.00  0.00    +0.000 A 
ATOM     24  C   UNL     1      47.919   5.025  16.339  0.00  0.00    +0.000 A 
ATOM     25  C   UNL     1      48.248   6.104  15.484  0.00  0.00    +0.000 A 
BRANCH  24  26
ATOM     26  C   UNL     1      48.191   5.163  17.807  0.00  0.00    +0.000 C 
ATOM     27  N   UNL     1      47.156   5.058  18.685  0.00  0.00    +0.000 N 
ATOM     28  O   UNL     1      49.321   5.401  18.227  0.00  0.00    +0.000 OA
ATOM     29  H   UNL     1      46.182   4.941  18.448  0.00  0.00    +0.000 HD
ATOM     30  H   UNL     1      47.370   5.244  19.663  0.00  0.00    +0.000 HD
ENDBRANCH  24  26
ENDBRANCH  17  20
ENDBRANCH  16  17
ENDBRANCH   1  16
TORSDOF 7
ENDMDL
MODEL 3
REMARK VINA RESULT:    -7.484      2.566      7.215
REMARK INTER + INTRA:         -11.388
REMARK INTER:                 -10.478
REMARK INTRA:                  -0.911
REMARK UNBOUND:                -0.842
REMARK  Name = 
REMARK  10 active torsions:
REMARK  status: ('A' for Active; 'I' for Inactive)
REMARK    1  A    between atoms: C_1  and  C_2
REMARK    2  A    between atoms: C_3  and  C_4
REMARK    3  A    between atoms: C_7  and  C_8
REMARK    4  A    between atoms: C_11  and  S_12
REMARK    5  A    between atoms: S_12  and  C_13
REMARK    6  A    between atoms: C_13  and  C_14
REMARK    7  A    between atoms: C_14  and  C_15
REMARK    8  A    between atoms: C_14  and  C_16
REMARK    9  A    between atoms: C_14  and  C_17
REMARK   10  A    between atoms: C_21  and  C_22
REMARK                            x       y       z     vdW  Elec       q    Type
REMARK                         _______ _______ _______ _____ _____    ______ ____
ROOT
ATOM      1  S   UNL     1      44.944   5.270  13.050  0.00  0.00    +0.000 S 
ENDROOT
BRANCH   1   6
ATOM      2  C   UNL     1      48.235   7.624  12.946  0.00  0.00    +0.000 A 
ATOM      3  C   UNL     1      49.084   7.181  13.931  0.00  0.00    +0.000 A 
ATOM      4  N   UNL     1      48.766   6.154  14.708  0.00  0.00    +0.000 NA
ATOM      5  C   UNL     1      47.547   5.496  14.517  0.00  0.00    +0.000 A 
ATOM      6  C   UNL     1      46.601   5.860  13.535  0.00  0.00    +0.000 A 
ATOM      7  C   UNL     1      46.999   6.963  12.749  0.00  0.00    +0.000 A 
BRANCH   5   8
ATOM      8  C   UNL     1      47.463   4.397  15.520  0.00  0.00    +0.000 C 
ATOM      9  N   UNL     1      47.426   4.879  16.815  0.00  0.00    +0.000 N 
ATOM     10  O   UNL     1      47.538   3.204  15.290  0.00  0.00    +0.000 OA
ATOM     11  H   UNL     1      47.708   5.856  16.908  0.00  0.00    +0.000 HD
ATOM     12  H   UNL     1      47.675   4.251  17.563  0.00  0.00    +0.000 HD
ENDBRANCH   5   8
BRANCH   2  15
ATOM     13  C   UNL     1      49.477  10.973  10.661  0.00  0.00    +0.000 C 
ATOM     14  C   UNL     1      49.024   9.771  11.474  0.00  0.00    +0.000 C 
ATOM     15  C   UNL     1      48.637   8.739  12.171  0.00  0.00    +0.000 C 
ENDBRANCH   2  15
ENDBRANCH   1   6
BRANCH   1  16
ATOM     16  C   UNL     1      45.063   3.627  12.206  0.00  0.00    +0.000 C 
BRANCH  16  17
ATOM     17  C   UNL     1      44.215   3.350  10.893  0.00  0.00    +0.000 C 
ATOM     18  C   UNL     1      43.504   1.982  11.008  0.00  0.00    +0.000 C 
ATOM     19  C   UNL     1      43.134   4.455  10.704  0.00  0.00    +0.000 C 
BRANCH  17  20
ATOM     20  C   UNL     1      45.164   3.388   9.647  0.00  0.00    +0.000 A 
ATOM     21  C   UNL     1      45.387   4.614   8.992  0.00  0.00    +0.000 A 
ATOM     22  C   UNL     1      46.175   4.698   7.838  0.00  0.00    +0.000 A 
ATOM     23  C   UNL     1      46.734   3.555   7.274  0.00  0.00    +0.000 A 
ATOM     24  C   UNL     1      46.544   2.319   7.890  0.00  0.00    +0.000 A 
ATOM     25  C   UNL     1      45.807   2.254   9.098  0.00  0.00    +0.000 A 
BRANCH  24  26
ATOM     26  C   UNL     1      47.040   1.041   7.282  0.00  0.00    +0.000 C 
ATOM     27  N   UNL     1      46.606  -0.144   7.790  0.00  0.00    +0.000 N 
ATOM     28  O   UNL     1      47.852   1.046   6.360  0.00  0.00    +0.000 OA
ATOM     29  H   UNL     1      46.003  -0.266   8.590  0.00  0.00    +0.000 HD
ATOM     30  H   UNL     1      47.033  -0.986   7.406  0.00  0.00    +0.000 HD
ENDBRANCH  24  26
ENDBRANCH  17  20
ENDBRANCH  16  17
ENDBRANCH   1  16
TORSDOF 7
ENDMDL
MODEL 4
REMARK VINA RESULT:    -7.169      2.387      7.112
REMARK INTER + INTRA:         -10.945
REMARK INTER:                 -10.070
REMARK INTRA:                  -0.875
REMARK UNBOUND:                -0.842
REMARK  Name = 
REMARK  10 active torsions:
REMARK  status: ('A' for Active; 'I' for Inactive)
REMARK    1  A    between atoms: C_1  and  C_2
REMARK    2  A    between atoms: C_3  and  C_4
REMARK    3  A    between atoms: C_7  and  C_8
REMARK    4  A    between atoms: C_11  and  S_12
REMARK    5  A    between atoms: S_12  and  C_13
REMARK    6  A    between atoms: C_13  and  C_14
REMARK    7  A    between atoms: C_14  and  C_15
REMARK    8  A    between atoms: C_14  and  C_16
REMARK    9  A    between atoms: C_14  and  C_17
REMARK   10  A    between atoms: C_21  and  C_22
REMARK                            x       y       z     vdW  Elec       q    Type
REMARK                         _______ _______ _______ _____ _____    ______ ____
ROOT
ATOM      1  S   UNL     1      46.015   3.960  13.268  0.00  0.00    +0.000 S 
ENDROOT
BRANCH   1   6
ATOM      2  C   UNL     1      48.733   6.918  13.764  0.00  0.00    +0.000 A 
ATOM      3  C   UNL     1      49.124   6.894  15.080  0.00  0.00    +0.000 A 
ATOM      4  N   UNL     1      48.627   6.010  15.935  0.00  0.00    +0.000 NA
ATOM      5  C   UNL     1      47.693   5.070  15.488  0.00  0.00    +0.000 A 
ATOM      6  C   UNL     1      47.223   4.996  14.160  0.00  0.00    +0.000 A 
ATOM      7  C   UNL     1      47.787   5.969  13.307  0.00  0.00    +0.000 A 
BRANCH   5   8
ATOM      8  C   UNL     1      47.317   4.217  16.651  0.00  0.00    +0.000 C 
ATOM      9  N   UNL     1      47.018   4.970  17.771  0.00  0.00    +0.000 N 
ATOM     10  O   UNL     1      47.368   3.001  16.700  0.00  0.00    +0.000 OA
ATOM     11  H   UNL     1      47.332   5.940  17.721  0.00  0.00    +0.000 HD
ATOM     12  H   UNL     1      47.052   4.517  18.671  0.00  0.00    +0.000 HD
ENDBRANCH   5   8
BRANCH   2  15
ATOM     13  C   UNL     1      50.391   9.914  11.263  0.00  0.00    +0.000 C 
ATOM     14  C   UNL     1      49.801   8.833  12.153  0.00  0.00    +0.000 C 
ATOM     15  C   UNL     1      49.295   7.905  12.918  0.00  0.00    +0.000 C 
ENDBRANCH   2  15
ENDBRANCH   1   6
BRANCH   1  16
ATOM     16  C   UNL     1      44.490   4.935  12.878  0.00  0.00    +0.000 C 
BRANCH  16  17
ATOM     17  C   UNL     1      44.233   5.441  11.395  0.00  0.00    +0.000 C 
ATOM     18  C   UNL     1      42.788   5.977  11.268  0.00  0.00    +0.000 C 
ATOM     19  C   UNL     1      45.220   6.591  11.038  0.00  0.00    +0.000 C 
BRANCH  17  20
ATOM     20  C   UNL     1      44.486   4.262  10.395  0.00  0.00    +0.000 A 
ATOM     21  C   UNL     1      43.922   3.000  10.664  0.00  0.00    +0.000 A 
ATOM     22  C   UNL     1      44.165   1.895   9.840  0.00  0.00    +0.000 A 
ATOM     23  C   UNL     1      45.013   2.001   8.741  0.00  0.00    +0.000 A 
ATOM     24  C   UNL     1      45.592   3.231   8.433  0.00  0.00    +0.000 A 
ATOM     25  C   UNL     1      45.282   4.361   9.229  0.00  0.00    +0.000 A 
BRANCH  24  26
ATOM     26  C   UNL     1      46.586   3.388   7.321  0.00  0.00    +0.000 C 
ATOM     27  N   UNL     1      47.360   2.324   6.973  0.00  0.00    +0.000 N 
ATOM     28  O   UNL     1      46.734   4.461   6.744  0.00  0.00    +0.000 OA
ATOM     29  H   UNL     1      47.376   1.423   7.426  0.00  0.00    +0.000 HD
ATOM     30  H   UNL     1      48.080   2.497   6.273  0.00  0.00    +0.000 HD
ENDBRANCH  24  26
ENDBRANCH  17  20
ENDBRANCH  16  17
ENDBRANCH   1  16
TORSDOF 7
ENDMDL
MODEL 5
REMARK VINA RESULT:    -7.049      1.908      2.139
REMARK INTER + INTRA:         -10.776
REMARK INTER:                 -10.060
REMARK INTRA:                  -0.716
REMARK UNBOUND:                -0.842
REMARK  Name = 
REMARK  10 active torsions:
REMARK  status: ('A' for Active; 'I' for Inactive)
REMARK    1  A    between atoms: C_1  and  C_2
REMARK    2  A    between atoms: C_3  and  C_4
REMARK    3  A    between atoms: C_7  and  C_8
REMARK    4  A    between atoms: C_11  and  S_12
REMARK    5  A    between atoms: S_12  and  C_13
REMARK    6  A    between atoms: C_13  and  C_14
REMARK    7  A    between atoms: C_14  and  C_15
REMARK    8  A    between atoms: C_14  and  C_16
REMARK    9  A    between atoms: C_14  and  C_17
REMARK   10  A    between atoms: C_21  and  C_22
REMARK                            x       y       z     vdW  Elec       q    Type
REMARK                         _______ _______ _______ _____ _____    ______ ____
ROOT
ATOM      1  S   UNL     1      45.611   6.934  11.427  0.00  0.00    +0.000 S 
ENDROOT
BRANCH   1   6
ATOM      2  C   UNL     1      45.274   3.801   8.887  0.00  0.00    +0.000 A 
ATOM      3  C   UNL     1      44.366   2.928   9.435  0.00  0.00    +0.000 A 
ATOM      4  N   UNL     1      43.774   3.183  10.594  0.00  0.00    +0.000 NA
ATOM      5  C   UNL     1      44.066   4.371  11.272  0.00  0.00    +0.000 A 
ATOM      6  C   UNL     1      44.976   5.342  10.802  0.00  0.00    +0.000 A 
ATOM      7  C   UNL     1      45.575   5.005   9.569  0.00  0.00    +0.000 A 
BRANCH   5   8
ATOM      8  C   UNL     1      43.262   4.387  12.527  0.00  0.00    +0.000 C 
ATOM      9  N   UNL     1      43.538   3.298  13.332  0.00  0.00    +0.000 N 
ATOM     10  O   UNL     1      42.373   5.171  12.803  0.00  0.00    +0.000 OA
ATOM     11  H   UNL     1      44.035   2.541  12.860  0.00  0.00    +0.000 HD
ATOM     12  H   UNL     1      42.859   3.042  14.032  0.00  0.00    +0.000 HD
ENDBRANCH   5   8
BRANCH   2  15
ATOM     13  C   UNL     1      47.098   2.801   5.192  0.00  0.00    +0.000 C 
ATOM     14  C   UNL     1      46.442   3.150   6.518  0.00  0.00    +0.000 C 
ATOM     15  C   UNL     1      45.880   3.449   7.656  0.00  0.00    +0.000 C 
ENDBRANCH   2  15
ENDBRANCH   1   6
BRANCH   1  16
ATOM     16  C   UNL     1      47.329   6.734  12.084  0.00  0.00    +0.000 C 
BRANCH  16  17
ATOM     17  C   UNL     1      48.203   8.017  12.418  0.00  0.00    +0.000 C 
ATOM     18  C   UNL     1      49.471   8.031  11.534  0.00  0.00    +0.000 C 
ATOM     19  C   UNL     1      47.388   9.314  12.135  0.00  0.00    +0.000 C 
BRANCH  17  20
ATOM     20  C   UNL     1      48.577   8.006  13.940  0.00  0.00    +0.000 A 
ATOM     21  C   UNL     1      48.009   8.973  14.792  0.00  0.00    +0.000 A 
ATOM     22  C   UNL     1      48.354   9.051  16.146  0.00  0.00    +0.000 A 
ATOM     23  C   UNL     1      49.306   8.193  16.689  0.00  0.00    +0.000 A 
ATOM     24  C   UNL     1      49.892   7.217  15.884  0.00  0.00    +0.000 A 
ATOM     25  C   UNL     1      49.484   7.097  14.533  0.00  0.00    +0.000 A 
BRANCH  24  26
ATOM     26  C   UNL     1      50.990   6.327  16.384  0.00  0.00    +0.000 C 
ATOM     27  N   UNL     1      52.284   6.717  16.219  0.00  0.00    +0.000 N 
ATOM     28  O   UNL     1      50.746   5.243  16.907  0.00  0.00    +0.000 OA
ATOM     29  H   UNL     1      52.601   7.546  15.738  0.00  0.00    +0.000 HD
ATOM     30  H   UNL     1      52.999   6.046  16.494  0.00  0.00    +0.000 HD
ENDBRANCH  24  26
ENDBRANCH  17  20
ENDBRANCH  16  17
ENDBRANCH   1  16
TORSDOF 7
ENDMDL
MODEL 6
REMARK VINA RESULT:    -6.887      2.939      3.977
REMARK INTER + INTRA:         -10.548
REMARK INTER:                  -9.873
REMARK INTRA:                  -0.675
REMARK UNBOUND:                -0.842
REMARK  Name = 
REMARK  10 active torsions:
REMARK  status: ('A' for Active; 'I' for Inactive)
REMARK    1  A    between atoms: C_1  and  C_2
REMARK    2  A    between atoms: C_3  and  C_4
REMARK    3  A    between atoms: C_7  and  C_8
REMARK    4  A    between atoms: C_11  and  S_12
REMARK    5  A    between atoms: S_12  and  C_13
REMARK    6  A    between atoms: C_13  and  C_14
REMARK    7  A    between atoms: C_14  and  C_15
REMARK    8  A    between atoms: C_14  and  C_16
REMARK    9  A    between atoms: C_14  and  C_17
REMARK   10  A    between atoms: C_21  and  C_22
REMARK                            x       y       z     vdW  Elec       q    Type
REMARK                         _______ _______ _______ _____ _____    ______ ____
ROOT
ATOM      1  S   UNL     1      45.653   7.040  11.561  0.00  0.00    +0.000 S 
ENDROOT
BRANCH   1   6
ATOM      2  C   UNL     1      45.317   3.921   9.003  0.00  0.00    +0.000 A 
ATOM      3  C   UNL     1      44.435   3.030   9.561  0.00  0.00    +0.000 A 
ATOM      4  N   UNL     1      43.862   3.265  10.734  0.00  0.00    +0.000 NA
ATOM      5  C   UNL     1      44.148   4.453  11.415  0.00  0.00    +0.000 A 
ATOM      6  C   UNL     1      45.033   5.442  10.935  0.00  0.00    +0.000 A 
ATOM      7  C   UNL     1      45.612   5.125   9.688  0.00  0.00    +0.000 A 
BRANCH   5   8
ATOM      8  C   UNL     1      43.369   4.445  12.686  0.00  0.00    +0.000 C 
ATOM      9  N   UNL     1      42.636   5.605  12.851  0.00  0.00    +0.000 N 
ATOM     10  O   UNL     1      43.429   3.602  13.563  0.00  0.00    +0.000 OA
ATOM     11  H   UNL     1      42.919   6.372  12.239  0.00  0.00    +0.000 HD
ATOM     12  H   UNL     1      42.327   5.843  13.781  0.00  0.00    +0.000 HD
ENDBRANCH   5   8
BRANCH   2  15
ATOM     13  C   UNL     1      47.078   2.875   5.290  0.00  0.00    +0.000 C 
ATOM     14  C   UNL     1      46.447   3.260   6.618  0.00  0.00    +0.000 C 
ATOM     15  C   UNL     1      45.903   3.589   7.757  0.00  0.00    +0.000 C 
ENDBRANCH   2  15
ENDBRANCH   1   6
BRANCH   1  16
ATOM     16  C   UNL     1      47.494   6.990  11.750  0.00  0.00    +0.000 C 
BRANCH  16  17
ATOM     17  C   UNL     1      48.167   7.530  13.083  0.00  0.00    +0.000 C 
ATOM     18  C   UNL     1      47.416   8.789  13.576  0.00  0.00    +0.000 C 
ATOM     19  C   UNL     1      48.100   6.446  14.199  0.00  0.00    +0.000 C 
BRANCH  17  20
ATOM     20  C   UNL     1      49.677   7.846  12.808  0.00  0.00    +0.000 A 
ATOM     21  C   UNL     1      50.466   8.376  13.847  0.00  0.00    +0.000 A 
ATOM     22  C   UNL     1      51.803   8.736  13.643  0.00  0.00    +0.000 A 
ATOM     23  C   UNL     1      52.388   8.617  12.386  0.00  0.00    +0.000 A 
ATOM     24  C   UNL     1      51.646   8.093  11.327  0.00  0.00    +0.000 A 
ATOM     25  C   UNL     1      50.317   7.664  11.560  0.00  0.00    +0.000 A 
BRANCH  24  26
ATOM     26  C   UNL     1      52.188   8.028   9.931  0.00  0.00    +0.000 C 
ATOM     27  N   UNL     1      52.768   9.136   9.395  0.00  0.00    +0.000 N 
ATOM     28  O   UNL     1      52.088   7.008   9.254  0.00  0.00    +0.000 OA
ATOM     29  H   UNL     1      52.836  10.044   9.829  0.00  0.00    +0.000 HD
ATOM     30  H   UNL     1      53.045   9.075   8.416  0.00  0.00    +0.000 HD
ENDBRANCH  24  26
ENDBRANCH  17  20
ENDBRANCH  16  17
ENDBRANCH   1  16
TORSDOF 7
ENDMDL
MODEL 7
REMARK VINA RESULT:    -6.787      3.346      5.290
REMARK INTER + INTRA:         -10.407
REMARK INTER:                  -9.683
REMARK INTRA:                  -0.724
REMARK UNBOUND:                -0.842
REMARK  Name = 
REMARK  10 active torsions:
REMARK  status: ('A' for Active; 'I' for Inactive)
REMARK    1  A    between atoms: C_1  and  C_2
REMARK    2  A    between atoms: C_3  and  C_4
REMARK    3  A    between atoms: C_7  and  C_8
REMARK    4  A    between atoms: C_11  and  S_12
REMARK    5  A    between atoms: S_12  and  C_13
REMARK    6  A    between atoms: C_13  and  C_14
REMARK    7  A    between atoms: C_14  and  C_15
REMARK    8  A    between atoms: C_14  and  C_16
REMARK    9  A    between atoms: C_14  and  C_17
REMARK   10  A    between atoms: C_21  and  C_22
REMARK                            x       y       z     vdW  Elec       q    Type
REMARK                         _______ _______ _______ _____ _____    ______ ____
ROOT
ATOM      1  S   UNL     1      46.865   4.093  14.890  0.00  0.00    +0.000 S 
ENDROOT
BRANCH   1   6
ATOM      2  C   UNL     1      47.044   7.186  12.286  0.00  0.00    +0.000 A 
ATOM      3  C   UNL     1      45.828   7.256  11.653  0.00  0.00    +0.000 A 
ATOM      4  N   UNL     1      44.851   6.404  11.934  0.00  0.00    +0.000 NA
ATOM      5  C   UNL     1      45.053   5.420  12.906  0.00  0.00    +0.000 A 
ATOM      6  C   UNL     1      46.257   5.258  13.624  0.00  0.00    +0.000 A 
ATOM      7  C   UNL     1      47.255   6.191  13.271  0.00  0.00    +0.000 A 
BRANCH   5   8
ATOM      8  C   UNL     1      43.799   4.620  13.010  0.00  0.00    +0.000 C 
ATOM      9  N   UNL     1      42.677   5.424  13.079  0.00  0.00    +0.000 N 
ATOM     10  O   UNL     1      43.724   3.412  13.143  0.00  0.00    +0.000 OA
ATOM     11  H   UNL     1      42.873   6.401  13.300  0.00  0.00    +0.000 HD
ATOM     12  H   UNL     1      41.830   5.024  13.451  0.00  0.00    +0.000 HD
ENDBRANCH   5   8
BRANCH   2  15
ATOM     13  C   UNL     1      50.010  10.018  11.208  0.00  0.00    +0.000 C 
ATOM     14  C   UNL     1      48.952   8.996  11.589  0.00  0.00    +0.000 C 
ATOM     15  C   UNL     1      48.044   8.119  11.917  0.00  0.00    +0.000 C 
ENDBRANCH   2  15
ENDBRANCH   1   6
BRANCH   1  16
ATOM     16  C   UNL     1      47.907   4.978  16.138  0.00  0.00    +0.000 C 
BRANCH  16  17
ATOM     17  C   UNL     1      48.229   4.289  17.531  0.00  0.00    +0.000 C 
ATOM     18  C   UNL     1      47.700   5.171  18.686  0.00  0.00    +0.000 C 
ATOM     19  C   UNL     1      47.538   2.896  17.617  0.00  0.00    +0.000 C 
BRANCH  17  20
ATOM     20  C   UNL     1      49.775   4.067  17.654  0.00  0.00    +0.000 A 
ATOM     21  C   UNL     1      50.632   5.185  17.632  0.00  0.00    +0.000 A 
ATOM     22  C   UNL     1      52.024   5.044  17.674  0.00  0.00    +0.000 A 
ATOM     23  C   UNL     1      52.611   3.782  17.700  0.00  0.00    +0.000 A 
ATOM     24  C   UNL     1      51.802   2.646  17.727  0.00  0.00    +0.000 A 
ATOM     25  C   UNL     1      50.395   2.800  17.758  0.00  0.00    +0.000 A 
BRANCH  24  26
ATOM     26  C   UNL     1      52.372   1.261  17.660  0.00  0.00    +0.000 C 
ATOM     27  N   UNL     1      51.623   0.216  18.108  0.00  0.00    +0.000 N 
ATOM     28  O   UNL     1      53.508   1.057  17.240  0.00  0.00    +0.000 OA
ATOM     29  H   UNL     1      50.713   0.276  18.540  0.00  0.00    +0.000 HD
ATOM     30  H   UNL     1      52.079  -0.694  18.125  0.00  0.00    +0.000 HD
ENDBRANCH  24  26
ENDBRANCH  17  20
ENDBRANCH  16  17
ENDBRANCH   1  16
TORSDOF 7
ENDMDL
MODEL 8
REMARK VINA RESULT:    -6.735      3.000      7.730
REMARK INTER + INTRA:         -10.333
REMARK INTER:                  -9.590
REMARK INTRA:                  -0.743
REMARK UNBOUND:                -0.842
REMARK  Name = 
REMARK  10 active torsions:
REMARK  status: ('A' for Active; 'I' for Inactive)
REMARK    1  A    between atoms: C_1  and  C_2
REMARK    2  A    between atoms: C_3  and  C_4
REMARK    3  A    between atoms: C_7  and  C_8
REMARK    4  A    between atoms: C_11  and  S_12
REMARK    5  A    between atoms: S_12  and  C_13
REMARK    6  A    between atoms: C_13  and  C_14
REMARK    7  A    between atoms: C_14  and  C_15
REMARK    8  A    between atoms: C_14  and  C_16
REMARK    9  A    between atoms: C_14  and  C_17
REMARK   10  A    between atoms: C_21  and  C_22
REMARK                            x       y       z     vdW  Elec       q    Type
REMARK                         _______ _______ _______ _____ _____    ______ ____
ROOT
ATOM      1  S   UNL     1      48.653   7.193  15.639  0.00  0.00    +0.000 S 
ENDROOT
BRANCH   1   6
ATOM      2  C   UNL     1      51.466   4.924  17.462  0.00  0.00    +0.000 A 
ATOM      3  C   UNL     1      50.807   3.947  18.166  0.00  0.00    +0.000 A 
ATOM      4  N   UNL     1      49.483   3.867  18.166  0.00  0.00    +0.000 NA
ATOM      5  C   UNL     1      48.736   4.788  17.424  0.00  0.00    +0.000 A 
ATOM      6  C   UNL     1      49.305   5.829  16.661  0.00  0.00    +0.000 A 
ATOM      7  C   UNL     1      50.715   5.860  16.710  0.00  0.00    +0.000 A 
BRANCH   5   8
ATOM      8  C   UNL     1      47.295   4.457  17.610  0.00  0.00    +0.000 C 
ATOM      9  N   UNL     1      46.683   5.299  18.518  0.00  0.00    +0.000 N 
ATOM     10  O   UNL     1      46.709   3.500  17.137  0.00  0.00    +0.000 OA
ATOM     11  H   UNL     1      47.331   5.835  19.098  0.00  0.00    +0.000 HD
ATOM     12  H   UNL     1      45.823   4.993  18.946  0.00  0.00    +0.000 HD
ENDBRANCH   5   8
BRANCH   2  15
ATOM     13  C   UNL     1      55.703   4.990  17.609  0.00  0.00    +0.000 C 
ATOM     14  C   UNL     1      54.184   4.971  17.565  0.00  0.00    +0.000 C 
ATOM     15  C   UNL     1      52.880   4.956  17.527  0.00  0.00    +0.000 C 
ENDBRANCH   2  15
ENDBRANCH   1   6
BRANCH   1  16
ATOM     16  C   UNL     1      48.683   6.732  13.847  0.00  0.00    +0.000 C 
BRANCH  16  17
ATOM     17  C   UNL     1      47.656   7.404  12.840  0.00  0.00    +0.000 C 
ATOM     18  C   UNL     1      46.946   8.591  13.531  0.00  0.00    +0.000 C 
ATOM     19  C   UNL     1      48.404   7.939  11.583  0.00  0.00    +0.000 C 
BRANCH  17  20
ATOM     20  C   UNL     1      46.621   6.329  12.362  0.00  0.00    +0.000 A 
ATOM     21  C   UNL     1      46.033   5.473  13.313  0.00  0.00    +0.000 A 
ATOM     22  C   UNL     1      45.150   4.454  12.938  0.00  0.00    +0.000 A 
ATOM     23  C   UNL     1      44.854   4.227  11.597  0.00  0.00    +0.000 A 
ATOM     24  C   UNL     1      45.411   5.051  10.619  0.00  0.00    +0.000 A 
ATOM     25  C   UNL     1      46.245   6.126  11.013  0.00  0.00    +0.000 A 
BRANCH  24  26
ATOM     26  C   UNL     1      45.207   4.801   9.155  0.00  0.00    +0.000 C 
ATOM     27  N   UNL     1      44.036   4.248   8.736  0.00  0.00    +0.000 N 
ATOM     28  O   UNL     1      46.086   5.053   8.336  0.00  0.00    +0.000 OA
ATOM     29  H   UNL     1      43.280   3.933   9.326  0.00  0.00    +0.000 HD
ATOM     30  H   UNL     1      43.972   4.015   7.747  0.00  0.00    +0.000 HD
ENDBRANCH  24  26
ENDBRANCH  17  20
ENDBRANCH  16  17
ENDBRANCH   1  16
TORSDOF 7
ENDMDL
MODEL 9
REMARK VINA RESULT:    -6.373      3.034      8.040
REMARK INTER + INTRA:          -9.823
REMARK INTER:                  -8.968
REMARK INTRA:                  -0.856
REMARK UNBOUND:                -0.842
REMARK  Name = 
REMARK  10 active torsions:
REMARK  status: ('A' for Active; 'I' for Inactive)
REMARK    1  A    between atoms: C_1  and  C_2
REMARK    2  A    between atoms: C_3  and  C_4
REMARK    3  A    between atoms: C_7  and  C_8
REMARK    4  A    between atoms: C_11  and  S_12
REMARK    5  A    between atoms: S_12  and  C_13
REMARK    6  A    between atoms: C_13  and  C_14
REMARK    7  A    between atoms: C_14  and  C_15
REMARK    8  A    between atoms: C_14  and  C_16
REMARK    9  A    between atoms: C_14  and  C_17
REMARK   10  A    between atoms: C_21  and  C_22
REMARK                            x       y       z     vdW  Elec       q    Type
REMARK                         _______ _______ _______ _____ _____    ______ ____
ROOT
ATOM      1  S   UNL     1      46.620   4.290  13.279  0.00  0.00    +0.000 S 
ENDROOT
BRANCH   1   6
ATOM      2  C   UNL     1      48.404   5.652  16.647  0.00  0.00    +0.000 A 
ATOM      3  C   UNL     1      49.102   6.786  16.308  0.00  0.00    +0.000 A 
ATOM      4  N   UNL     1      49.108   7.248  15.065  0.00  0.00    +0.000 NA
ATOM      5  C   UNL     1      48.380   6.580  14.076  0.00  0.00    +0.000 A 
ATOM      6  C   UNL     1      47.624   5.412  14.310  0.00  0.00    +0.000 A 
ATOM      7  C   UNL     1      47.666   4.970  15.650  0.00  0.00    +0.000 A 
BRANCH   5   8
ATOM      8  C   UNL     1      48.570   7.319  12.796  0.00  0.00    +0.000 C 
ATOM      9  N   UNL     1      49.766   6.996  12.184  0.00  0.00    +0.000 N 
ATOM     10  O   UNL     1      47.850   8.198  12.358  0.00  0.00    +0.000 OA
ATOM     11  H   UNL     1      50.434   6.519  12.791  0.00  0.00    +0.000 HD
ATOM     12  H   UNL     1      50.137   7.637  11.499  0.00  0.00    +0.000 HD
ENDBRANCH   5   8
BRANCH   2  15
ATOM     13  C   UNL     1      48.595   4.276  20.653  0.00  0.00    +0.000 C 
ATOM     14  C   UNL     1      48.523   4.778  19.220  0.00  0.00    +0.000 C 
ATOM     15  C   UNL     1      48.462   5.209  17.991  0.00  0.00    +0.000 C 
ENDBRANCH   2  15
ENDBRANCH   1   6
BRANCH   1  16
ATOM     16  C   UNL     1      44.887   4.924  13.130  0.00  0.00    +0.000 C 
BRANCH  16  17
ATOM     17  C   UNL     1      44.339   5.403  11.720  0.00  0.00    +0.000 C 
ATOM     18  C   UNL     1      42.856   5.821  11.849  0.00  0.00    +0.000 C 
ATOM     19  C   UNL     1      45.155   6.627  11.210  0.00  0.00    +0.000 C 
BRANCH  17  20
ATOM     20  C   UNL     1      44.509   4.244  10.678  0.00  0.00    +0.000 A 
ATOM     21  C   UNL     1      43.897   3.001  10.929  0.00  0.00    +0.000 A 
ATOM     22  C   UNL     1      44.065   1.912  10.067  0.00  0.00    +0.000 A 
ATOM     23  C   UNL     1      44.883   2.013   8.945  0.00  0.00    +0.000 A 
ATOM     24  C   UNL     1      45.507   3.226   8.654  0.00  0.00    +0.000 A 
ATOM     25  C   UNL     1      45.272   4.343   9.491  0.00  0.00    +0.000 A 
BRANCH  24  26
ATOM     26  C   UNL     1      46.472   3.372   7.515  0.00  0.00    +0.000 C 
ATOM     27  N   UNL     1      47.343   2.359   7.254  0.00  0.00    +0.000 N 
ATOM     28  O   UNL     1      46.512   4.396   6.839  0.00  0.00    +0.000 OA
ATOM     29  H   UNL     1      47.449   1.510   7.788  0.00  0.00    +0.000 HD
ATOM     30  H   UNL     1      48.037   2.534   6.530  0.00  0.00    +0.000 HD
ENDBRANCH  24  26
ENDBRANCH  17  20
ENDBRANCH  16  17
ENDBRANCH   1  16
TORSDOF 7
ENDMDL
