MODEL 1
REMARK VINA RESULT:    -8.125      0.000      0.000
REMARK INTER + INTRA:         -12.281
REMARK INTER:                 -11.449
REMARK INTRA:                  -0.831
REMARK UNBOUND:                -0.831
REMARK  Name = 
REMARK  7 active torsions:
REMARK  status: ('A' for Active; 'I' for Inactive)
REMARK    1  A    between atoms: C_2  and  C_3
REMARK    2  A    between atoms: C_6  and  N_7
REMARK    3  A    between atoms: N_7  and  C_8
REMARK    4  A    between atoms: C_8  and  C_9
REMARK    5  A    between atoms: C_9  and  C_12
REMARK    6  A    between atoms: C_16  and  N_17
REMARK    7  A    between atoms: N_17  and  C_18
REMARK                            x       y       z     vdW  Elec       q    Type
REMARK                         _______ _______ _______ _____ _____    ______ ____
ROOT
ATOM      1  C   UNL     1      43.510   5.486  12.196  0.00  0.00    +0.000 C 
ATOM      2  F   UNL     1      43.130   6.603  11.508  0.00  0.00    +0.000 F 
ATOM      3  F   UNL     1      42.633   5.402  13.245  0.00  0.00    +0.000 F 
ENDROOT
BRANCH   1   4
ATOM      4  C   UNL     1      44.948   5.586  12.667  0.00  0.00    +0.000 A 
ATOM      5  C   UNL     1      45.813   6.552  12.139  0.00  0.00    +0.000 A 
ATOM      6  C   UNL     1      47.134   6.631  12.580  0.00  0.00    +0.000 A 
ATOM      7  C   UNL     1      47.611   5.740  13.545  0.00  0.00    +0.000 A 
ATOM      8  C   UNL     1      46.766   4.774  14.091  0.00  0.00    +0.000 A 
ATOM      9  C   UNL     1      45.439   4.705  13.643  0.00  0.00    +0.000 A 
BRANCH   8  10
ATOM     10  N   UNL     1      47.177   3.846  15.071  0.00  0.00    +0.000 N 
ATOM     11  H   UNL     1      46.821   2.922  14.826  0.00  0.00    +0.000 HD
BRANCH  10  12
ATOM     12  C   UNL     1      47.202   4.064  16.493  0.00  0.00    +0.000 C 
ATOM     13  C   UNL     1      48.383   4.921  16.977  0.00  0.00    +0.000 C 
ATOM     14  O   UNL     1      48.817   3.879  17.889  0.00  0.00    +0.000 OA
ATOM     15  C   UNL     1      47.924   2.935  17.248  0.00  0.00    +0.000 C 
ENDBRANCH  10  12
ENDBRANCH   8  10
ENDBRANCH   1   4
BRANCH   1  16
ATOM     16  C   UNL     1      43.292   4.243  11.294  0.00  0.00    +0.000 C 
BRANCH  16  17
ATOM     17  N   UNL     1      43.522   4.527   9.864  0.00  0.00    +0.000 N 
ATOM     18  H   UNL     1      42.668   4.637   9.317  0.00  0.00    +0.000 HD
BRANCH  17  22
ATOM     19  C   UNL     1      46.543   2.657   7.590  0.00  0.00    +0.000 A 
ATOM     20  C   UNL     1      46.456   4.048   7.609  0.00  0.00    +0.000 A 
ATOM     21  C   UNL     1      45.473   4.685   8.376  0.00  0.00    +0.000 A 
ATOM     22  C   UNL     1      44.577   3.954   9.164  0.00  0.00    +0.000 A 
ATOM     23  C   UNL     1      44.673   2.554   9.125  0.00  0.00    +0.000 A 
ATOM     24  C   UNL     1      45.644   1.907   8.350  0.00  0.00    +0.000 A 
BRANCH  19  26
ATOM     25  N   UNL     1      48.335   1.479   6.126  0.00  0.00    +0.000 NA
ATOM     26  C   UNL     1      47.534   2.004   6.780  0.00  0.00    +0.000 C 
ENDBRANCH  19  26
ENDBRANCH  17  22
ENDBRANCH  16  17
ENDBRANCH   1  16
TORSDOF 7
ENDMDL
MODEL 2
REMARK VINA RESULT:    -7.473      3.853      5.592
REMARK INTER + INTRA:         -11.362
REMARK INTER:                 -10.631
REMARK INTRA:                  -0.731
REMARK UNBOUND:                -0.831
REMARK  Name = 
REMARK  7 active torsions:
REMARK  status: ('A' for Active; 'I' for Inactive)
REMARK    1  A    between atoms: C_2  and  C_3
REMARK    2  A    between atoms: C_6  and  N_7
REMARK    3  A    between atoms: N_7  and  C_8
REMARK    4  A    between atoms: C_8  and  C_9
REMARK    5  A    between atoms: C_9  and  C_12
REMARK    6  A    between atoms: C_16  and  N_17
REMARK    7  A    between atoms: N_17  and  C_18
REMARK                            x       y       z     vdW  Elec       q    Type
REMARK                         _______ _______ _______ _____ _____    ______ ____
ROOT
ATOM      1  C   UNL     1      44.605   5.259  11.936  0.00  0.00    +0.000 C 
ATOM      2  F   UNL     1      44.052   4.792  13.095  0.00  0.00    +0.000 F 
ATOM      3  F   UNL     1      45.746   4.519  11.767  0.00  0.00    +0.000 F 
ENDROOT
BRANCH   1   4
ATOM      4  C   UNL     1      44.899   6.743  12.020  0.00  0.00    +0.000 A 
ATOM      5  C   UNL     1      45.843   7.240  12.928  0.00  0.00    +0.000 A 
ATOM      6  C   UNL     1      46.103   8.610  12.996  0.00  0.00    +0.000 A 
ATOM      7  C   UNL     1      45.416   9.500  12.166  0.00  0.00    +0.000 A 
ATOM      8  C   UNL     1      44.477   9.028  11.248  0.00  0.00    +0.000 A 
ATOM      9  C   UNL     1      44.225   7.649  11.186  0.00  0.00    +0.000 A 
BRANCH   8  10
ATOM     10  N   UNL     1      43.751   9.867  10.378  0.00  0.00    +0.000 N 
ATOM     11  H   UNL     1      44.398  10.313   9.727  0.00  0.00    +0.000 HD
BRANCH  10  12
ATOM     12  C   UNL     1      42.660  10.731  10.741  0.00  0.00    +0.000 C 
ATOM     13  C   UNL     1      41.311  10.009  10.896  0.00  0.00    +0.000 C 
ATOM     14  O   UNL     1      40.686  10.883   9.919  0.00  0.00    +0.000 OA
ATOM     15  C   UNL     1      41.988  11.377   9.517  0.00  0.00    +0.000 C 
ENDBRANCH  10  12
ENDBRANCH   8  10
ENDBRANCH   1   4
BRANCH   1  16
ATOM     16  C   UNL     1      43.649   4.934  10.759  0.00  0.00    +0.000 C 
BRANCH  16  17
ATOM     17  N   UNL     1      43.734   3.526  10.324  0.00  0.00    +0.000 N 
ATOM     18  H   UNL     1      43.608   2.849  11.076  0.00  0.00    +0.000 HD
BRANCH  17  22
ATOM     19  C   UNL     1      46.605   2.437   7.432  0.00  0.00    +0.000 A 
ATOM     20  C   UNL     1      46.007   1.450   8.214  0.00  0.00    +0.000 A 
ATOM     21  C   UNL     1      45.036   1.793   9.163  0.00  0.00    +0.000 A 
ATOM     22  C   UNL     1      44.618   3.117   9.332  0.00  0.00    +0.000 A 
ATOM     23  C   UNL     1      45.238   4.099   8.543  0.00  0.00    +0.000 A 
ATOM     24  C   UNL     1      46.219   3.768   7.600  0.00  0.00    +0.000 A 
BRANCH  19  26
ATOM     25  N   UNL     1      48.439   1.804   5.708  0.00  0.00    +0.000 NA
ATOM     26  C   UNL     1      47.621   2.088   6.477  0.00  0.00    +0.000 C 
ENDBRANCH  19  26
ENDBRANCH  17  22
ENDBRANCH  16  17
ENDBRANCH   1  16
TORSDOF 7
ENDMDL
MODEL 3
REMARK VINA RESULT:    -7.436      2.488      3.564
REMARK INTER + INTRA:         -11.310
REMARK INTER:                 -10.374
REMARK INTRA:                  -0.936
REMARK UNBOUND:                -0.831
REMARK  Name = 
REMARK  7 active torsions:
REMARK  status: ('A' for Active; 'I' for Inactive)
REMARK    1  A    between atoms: C_2  and  C_3
REMARK    2  A    between atoms: C_6  and  N_7
REMARK    3  A    between atoms: N_7  and  C_8
REMARK    4  A    between atoms: C_8  and  C_9
REMARK    5  A    between atoms: C_9  and  C_12
REMARK    6  A    between atoms: C_16  and  N_17
REMARK    7  A    between atoms: N_17  and  C_18
REMARK                            x       y       z     vdW  Elec       q    Type
REMARK                         _______ _______ _______ _____ _____    ______ ____
ROOT
ATOM      1  C   UNL     1      43.834   5.264  12.093  0.00  0.00    +0.000 C 
ATOM      2  F   UNL     1      43.502   6.126  11.087  0.00  0.00    +0.000 F 
ATOM      3  F   UNL     1      42.900   5.488  13.071  0.00  0.00    +0.000 F 
ENDROOT
BRANCH   1   4
ATOM      4  C   UNL     1      45.245   5.507  12.590  0.00  0.00    +0.000 A 
ATOM      5  C   UNL     1      45.762   4.785  13.673  0.00  0.00    +0.000 A 
ATOM      6  C   UNL     1      47.062   5.020  14.122  0.00  0.00    +0.000 A 
ATOM      7  C   UNL     1      47.859   5.987  13.502  0.00  0.00    +0.000 A 
ATOM      8  C   UNL     1      47.368   6.713  12.415  0.00  0.00    +0.000 A 
ATOM      9  C   UNL     1      46.061   6.467  11.971  0.00  0.00    +0.000 A 
BRANCH   8  10
ATOM     10  N   UNL     1      48.117   7.698  11.739  0.00  0.00    +0.000 N 
ATOM     11  H   UNL     1      48.659   7.255  10.996  0.00  0.00    +0.000 HD
BRANCH  10  12
ATOM     12  C   UNL     1      48.818   8.800  12.344  0.00  0.00    +0.000 C 
ATOM     13  C   UNL     1      47.899   9.871  12.954  0.00  0.00    +0.000 C 
ATOM     14  O   UNL     1      48.506  10.911  12.144  0.00  0.00    +0.000 OA
ATOM     15  C   UNL     1      49.161   9.906  11.330  0.00  0.00    +0.000 C 
ENDBRANCH  10  12
ENDBRANCH   8  10
ENDBRANCH   1   4
BRANCH   1  16
ATOM     16  C   UNL     1      43.652   3.809  11.586  0.00  0.00    +0.000 C 
BRANCH  16  17
ATOM     17  N   UNL     1      43.519   3.727  10.119  0.00  0.00    +0.000 N 
ATOM     18  H   UNL     1      42.616   3.374   9.801  0.00  0.00    +0.000 HD
BRANCH  17  22
ATOM     19  C   UNL     1      46.595   2.503   7.505  0.00  0.00    +0.000 A 
ATOM     20  C   UNL     1      46.286   3.858   7.619  0.00  0.00    +0.000 A 
ATOM     21  C   UNL     1      45.283   4.282   8.499  0.00  0.00    +0.000 A 
ATOM     22  C   UNL     1      44.588   3.373   9.305  0.00  0.00    +0.000 A 
ATOM     23  C   UNL     1      44.906   2.013   9.170  0.00  0.00    +0.000 A 
ATOM     24  C   UNL     1      45.899   1.576   8.283  0.00  0.00    +0.000 A 
BRANCH  19  26
ATOM     25  N   UNL     1      48.419   1.712   5.836  0.00  0.00    +0.000 NA
ATOM     26  C   UNL     1      47.606   2.066   6.582  0.00  0.00    +0.000 C 
ENDBRANCH  19  26
ENDBRANCH  17  22
ENDBRANCH  16  17
ENDBRANCH   1  16
TORSDOF 7
ENDMDL
MODEL 4
REMARK VINA RESULT:    -7.430      2.262      2.630
REMARK INTER + INTRA:         -11.301
REMARK INTER:                 -10.537
REMARK INTRA:                  -0.765
REMARK UNBOUND:                -0.831
REMARK  Name = 
REMARK  7 active torsions:
REMARK  status: ('A' for Active; 'I' for Inactive)
REMARK    1  A    between atoms: C_2  and  C_3
REMARK    2  A    between atoms: C_6  and  N_7
REMARK    3  A    between atoms: N_7  and  C_8
REMARK    4  A    between atoms: C_8  and  C_9
REMARK    5  A    between atoms: C_9  and  C_12
REMARK    6  A    between atoms: C_16  and  N_17
REMARK    7  A    between atoms: N_17  and  C_18
REMARK                            x       y       z     vdW  Elec       q    Type
REMARK                         _______ _______ _______ _____ _____    ______ ____
ROOT
ATOM      1  C   UNL     1      43.283   4.868  12.318  0.00  0.00    +0.000 C 
ATOM      2  F   UNL     1      42.076   5.105  11.723  0.00  0.00    +0.000 F 
ATOM      3  F   UNL     1      42.979   4.527  13.609  0.00  0.00    +0.000 F 
ENDROOT
BRANCH   1   4
ATOM      4  C   UNL     1      44.184   6.085  12.250  0.00  0.00    +0.000 A 
ATOM      5  C   UNL     1      43.935   7.115  11.334  0.00  0.00    +0.000 A 
ATOM      6  C   UNL     1      44.774   8.229  11.281  0.00  0.00    +0.000 A 
ATOM      7  C   UNL     1      45.877   8.324  12.134  0.00  0.00    +0.000 A 
ATOM      8  C   UNL     1      46.140   7.314  13.061  0.00  0.00    +0.000 A 
ATOM      9  C   UNL     1      45.289   6.200  13.107  0.00  0.00    +0.000 A 
BRANCH   8  10
ATOM     10  N   UNL     1      47.231   7.345  13.954  0.00  0.00    +0.000 N 
ATOM     11  H   UNL     1      47.246   8.247  14.431  0.00  0.00    +0.000 HD
BRANCH  10  12
ATOM     12  C   UNL     1      48.553   6.837  13.703  0.00  0.00    +0.000 C 
ATOM     13  C   UNL     1      49.548   7.080  14.850  0.00  0.00    +0.000 C 
ATOM     14  O   UNL     1      50.464   7.774  13.962  0.00  0.00    +0.000 OA
ATOM     15  C   UNL     1      49.435   7.844  12.943  0.00  0.00    +0.000 C 
ENDBRANCH  10  12
ENDBRANCH   8  10
ENDBRANCH   1   4
BRANCH   1  16
ATOM     16  C   UNL     1      43.940   3.635  11.643  0.00  0.00    +0.000 C 
BRANCH  16  17
ATOM     17  N   UNL     1      43.752   3.616  10.179  0.00  0.00    +0.000 N 
ATOM     18  H   UNL     1      42.835   3.284   9.881  0.00  0.00    +0.000 HD
BRANCH  17  22
ATOM     19  C   UNL     1      46.721   2.470   7.411  0.00  0.00    +0.000 A 
ATOM     20  C   UNL     1      46.388   3.817   7.546  0.00  0.00    +0.000 A 
ATOM     21  C   UNL     1      45.420   4.216   8.475  0.00  0.00    +0.000 A 
ATOM     22  C   UNL     1      44.788   3.290   9.312  0.00  0.00    +0.000 A 
ATOM     23  C   UNL     1      45.129   1.937   9.156  0.00  0.00    +0.000 A 
ATOM     24  C   UNL     1      46.086   1.525   8.220  0.00  0.00    +0.000 A 
BRANCH  19  26
ATOM     25  N   UNL     1      48.477   1.727   5.650  0.00  0.00    +0.000 NA
ATOM     26  C   UNL     1      47.694   2.058   6.437  0.00  0.00    +0.000 C 
ENDBRANCH  19  26
ENDBRANCH  17  22
ENDBRANCH  16  17
ENDBRANCH   1  16
TORSDOF 7
ENDMDL
MODEL 5
REMARK VINA RESULT:    -7.392      3.058      4.328
REMARK INTER + INTRA:         -11.248
REMARK INTER:                 -10.437
REMARK INTRA:                  -0.810
REMARK UNBOUND:                -0.831
REMARK  Name = 
REMARK  7 active torsions:
REMARK  status: ('A' for Active; 'I' for Inactive)
REMARK    1  A    between atoms: C_2  and  C_3
REMARK    2  A    between atoms: C_6  and  N_7
REMARK    3  A    between atoms: N_7  and  C_8
REMARK    4  A    between atoms: C_8  and  C_9
REMARK    5  A    between atoms: C_9  and  C_12
REMARK    6  A    between atoms: C_16  and  N_17
REMARK    7  A    between atoms: N_17  and  C_18
REMARK                            x       y       z     vdW  Elec       q    Type
REMARK                         _______ _______ _______ _____ _____    ______ ____
ROOT
ATOM      1  C   UNL     1      44.485   4.138  12.331  0.00  0.00    +0.000 C 
ATOM      2  F   UNL     1      43.538   4.007  13.307  0.00  0.00    +0.000 F 
ATOM      3  F   UNL     1      45.041   2.892  12.210  0.00  0.00    +0.000 F 
ENDROOT
BRANCH   1   4
ATOM      4  C   UNL     1      45.516   5.187  12.697  0.00  0.00    +0.000 A 
ATOM      5  C   UNL     1      46.561   4.892  13.581  0.00  0.00    +0.000 A 
ATOM      6  C   UNL     1      47.503   5.868  13.910  0.00  0.00    +0.000 A 
ATOM      7  C   UNL     1      47.407   7.152  13.368  0.00  0.00    +0.000 A 
ATOM      8  C   UNL     1      46.380   7.467  12.478  0.00  0.00    +0.000 A 
ATOM      9  C   UNL     1      45.440   6.479  12.152  0.00  0.00    +0.000 A 
BRANCH   8  10
ATOM     10  N   UNL     1      46.225   8.740  11.889  0.00  0.00    +0.000 N 
ATOM     11  H   UNL     1      47.139   9.189  11.820  0.00  0.00    +0.000 HD
BRANCH  10  12
ATOM     12  C   UNL     1      45.172   9.681  12.161  0.00  0.00    +0.000 C 
ATOM     13  C   UNL     1      44.147   9.824  11.024  0.00  0.00    +0.000 C 
ATOM     14  O   UNL     1      44.378  11.254  10.941  0.00  0.00    +0.000 OA
ATOM     15  C   UNL     1      45.556  11.121  11.775  0.00  0.00    +0.000 C 
ENDBRANCH  10  12
ENDBRANCH   8  10
ENDBRANCH   1   4
BRANCH   1  16
ATOM     16  C   UNL     1      43.780   4.476  10.991  0.00  0.00    +0.000 C 
BRANCH  16  17
ATOM     17  N   UNL     1      43.768   3.340  10.049  0.00  0.00    +0.000 N 
ATOM     18  H   UNL     1      43.333   2.495  10.419  0.00  0.00    +0.000 HD
BRANCH  17  22
ATOM     19  C   UNL     1      46.804   2.456   7.257  0.00  0.00    +0.000 A 
ATOM     20  C   UNL     1      46.382   3.775   7.422  0.00  0.00    +0.000 A 
ATOM     21  C   UNL     1      45.391   4.088   8.361  0.00  0.00    +0.000 A 
ATOM     22  C   UNL     1      44.822   3.102   9.175  0.00  0.00    +0.000 A 
ATOM     23  C   UNL     1      45.251   1.779   8.988  0.00  0.00    +0.000 A 
ATOM     24  C   UNL     1      46.232   1.454   8.043  0.00  0.00    +0.000 A 
BRANCH  19  26
ATOM     25  N   UNL     1      48.603   1.872   5.480  0.00  0.00    +0.000 NA
ATOM     26  C   UNL     1      47.801   2.132   6.274  0.00  0.00    +0.000 C 
ENDBRANCH  19  26
ENDBRANCH  17  22
ENDBRANCH  16  17
ENDBRANCH   1  16
TORSDOF 7
ENDMDL
MODEL 6
REMARK VINA RESULT:    -7.383      1.336      1.956
REMARK INTER + INTRA:         -11.235
REMARK INTER:                 -10.357
REMARK INTRA:                  -0.878
REMARK UNBOUND:                -0.831
REMARK  Name = 
REMARK  7 active torsions:
REMARK  status: ('A' for Active; 'I' for Inactive)
REMARK    1  A    between atoms: C_2  and  C_3
REMARK    2  A    between atoms: C_6  and  N_7
REMARK    3  A    between atoms: N_7  and  C_8
REMARK    4  A    between atoms: C_8  and  C_9
REMARK    5  A    between atoms: C_9  and  C_12
REMARK    6  A    between atoms: C_16  and  N_17
REMARK    7  A    between atoms: N_17  and  C_18
REMARK                            x       y       z     vdW  Elec       q    Type
REMARK                         _______ _______ _______ _____ _____    ______ ____
ROOT
ATOM      1  C   UNL     1      44.887   4.757  12.375  0.00  0.00    +0.000 C 
ATOM      2  F   UNL     1      44.009   4.861  13.416  0.00  0.00    +0.000 F 
ATOM      3  F   UNL     1      45.186   3.422  12.299  0.00  0.00    +0.000 F 
ENDROOT
BRANCH   1   4
ATOM      4  C   UNL     1      46.124   5.602  12.605  0.00  0.00    +0.000 A 
ATOM      5  C   UNL     1      46.752   6.264  11.543  0.00  0.00    +0.000 A 
ATOM      6  C   UNL     1      47.891   7.037  11.769  0.00  0.00    +0.000 A 
ATOM      7  C   UNL     1      48.423   7.152  13.056  0.00  0.00    +0.000 A 
ATOM      8  C   UNL     1      47.809   6.509  14.132  0.00  0.00    +0.000 A 
ATOM      9  C   UNL     1      46.664   5.736  13.895  0.00  0.00    +0.000 A 
BRANCH   8  10
ATOM     10  N   UNL     1      48.287   6.585  15.457  0.00  0.00    +0.000 N 
ATOM     11  H   UNL     1      48.784   7.467  15.583  0.00  0.00    +0.000 HD
BRANCH  10  12
ATOM     12  C   UNL     1      48.879   5.512  16.211  0.00  0.00    +0.000 C 
ATOM     13  C   UNL     1      48.163   5.207  17.538  0.00  0.00    +0.000 C 
ATOM     14  O   UNL     1      49.388   5.404  18.291  0.00  0.00    +0.000 OA
ATOM     15  C   UNL     1      50.018   5.995  17.126  0.00  0.00    +0.000 C 
ENDBRANCH  10  12
ENDBRANCH   8  10
ENDBRANCH   1   4
BRANCH   1  16
ATOM     16  C   UNL     1      44.161   5.156  11.064  0.00  0.00    +0.000 C 
BRANCH  16  17
ATOM     17  N   UNL     1      43.806   3.992  10.229  0.00  0.00    +0.000 N 
ATOM     18  H   UNL     1      43.259   3.282  10.714  0.00  0.00    +0.000 HD
BRANCH  17  22
ATOM     19  C   UNL     1      46.645   2.594   7.440  0.00  0.00    +0.000 A 
ATOM     20  C   UNL     1      45.951   1.681   8.233  0.00  0.00    +0.000 A 
ATOM     21  C   UNL     1      44.990   2.128   9.148  0.00  0.00    +0.000 A 
ATOM     22  C   UNL     1      44.676   3.486   9.271  0.00  0.00    +0.000 A 
ATOM     23  C   UNL     1      45.392   4.391   8.471  0.00  0.00    +0.000 A 
ATOM     24  C   UNL     1      46.365   3.956   7.562  0.00  0.00    +0.000 A 
BRANCH  19  26
ATOM     25  N   UNL     1      48.461   1.768   5.779  0.00  0.00    +0.000 NA
ATOM     26  C   UNL     1      47.651   2.137   6.521  0.00  0.00    +0.000 C 
ENDBRANCH  19  26
ENDBRANCH  17  22
ENDBRANCH  16  17
ENDBRANCH   1  16
TORSDOF 7
ENDMDL
MODEL 7
REMARK VINA RESULT:    -6.717      3.091      7.892
REMARK INTER + INTRA:         -10.297
REMARK INTER:                  -9.767
REMARK INTRA:                  -0.530
REMARK UNBOUND:                -0.831
REMARK  Name = 
REMARK  7 active torsions:
REMARK  status: ('A' for Active; 'I' for Inactive)
REMARK    1  A    between atoms: C_2  and  C_3
REMARK    2  A    between atoms: C_6  and  N_7
REMARK    3  A    between atoms: N_7  and  C_8
REMARK    4  A    between atoms: C_8  and  C_9
REMARK    5  A    between atoms: C_9  and  C_12
REMARK    6  A    between atoms: C_16  and  N_17
REMARK    7  A    between atoms: N_17  and  C_18
REMARK                            x       y       z     vdW  Elec       q    Type
REMARK                         _______ _______ _______ _____ _____    ______ ____
ROOT
ATOM      1  C   UNL     1      45.262   6.185  11.320  0.00  0.00    +0.000 C 
ATOM      2  F   UNL     1      44.169   7.004  11.269  0.00  0.00    +0.000 F 
ATOM      3  F   UNL     1      46.297   6.950  10.851  0.00  0.00    +0.000 F 
ENDROOT
BRANCH   1   4
ATOM      4  C   UNL     1      45.058   4.934  10.487  0.00  0.00    +0.000 A 
ATOM      5  C   UNL     1      44.260   3.882  10.953  0.00  0.00    +0.000 A 
ATOM      6  C   UNL     1      44.083   2.735  10.177  0.00  0.00    +0.000 A 
ATOM      7  C   UNL     1      44.708   2.622   8.932  0.00  0.00    +0.000 A 
ATOM      8  C   UNL     1      45.501   3.661   8.444  0.00  0.00    +0.000 A 
ATOM      9  C   UNL     1      45.670   4.810   9.230  0.00  0.00    +0.000 A 
BRANCH   8  10
ATOM     10  N   UNL     1      46.156   3.617   7.196  0.00  0.00    +0.000 N 
ATOM     11  H   UNL     1      45.817   4.384   6.613  0.00  0.00    +0.000 HD
BRANCH  10  12
ATOM     12  C   UNL     1      46.449   2.436   6.429  0.00  0.00    +0.000 C 
ATOM     13  C   UNL     1      47.583   1.575   7.010  0.00  0.00    +0.000 C 
ATOM     14  O   UNL     1      48.331   1.651   5.769  0.00  0.00    +0.000 OA
ATOM     15  C   UNL     1      47.456   2.705   5.296  0.00  0.00    +0.000 C 
ENDBRANCH  10  12
ENDBRANCH   8  10
ENDBRANCH   1   4
BRANCH   1  16
ATOM     16  C   UNL     1      45.560   5.839  12.803  0.00  0.00    +0.000 C 
BRANCH  16  17
ATOM     17  N   UNL     1      47.002   5.865  13.117  0.00  0.00    +0.000 N 
ATOM     18  H   UNL     1      47.595   5.473  12.385  0.00  0.00    +0.000 HD
BRANCH  17  22
ATOM     19  C   UNL     1      48.539   4.998  16.948  0.00  0.00    +0.000 A 
ATOM     20  C   UNL     1      48.957   6.150  16.282  0.00  0.00    +0.000 A 
ATOM     21  C   UNL     1      48.439   6.463  15.020  0.00  0.00    +0.000 A 
ATOM     22  C   UNL     1      47.474   5.656  14.407  0.00  0.00    +0.000 A 
ATOM     23  C   UNL     1      47.073   4.496  15.087  0.00  0.00    +0.000 A 
ATOM     24  C   UNL     1      47.594   4.166  16.345  0.00  0.00    +0.000 A 
BRANCH  19  26
ATOM     25  N   UNL     1      49.538   4.394  19.266  0.00  0.00    +0.000 NA
ATOM     26  C   UNL     1      49.092   4.663  18.231  0.00  0.00    +0.000 C 
ENDBRANCH  19  26
ENDBRANCH  17  22
ENDBRANCH  16  17
ENDBRANCH   1  16
TORSDOF 7
ENDMDL
MODEL 8
REMARK VINA RESULT:    -6.543      3.184      7.912
REMARK INTER + INTRA:         -10.052
REMARK INTER:                  -9.445
REMARK INTRA:                  -0.607
REMARK UNBOUND:                -0.831
REMARK  Name = 
REMARK  7 active torsions:
REMARK  status: ('A' for Active; 'I' for Inactive)
REMARK    1  A    between atoms: C_2  and  C_3
REMARK    2  A    between atoms: C_6  and  N_7
REMARK    3  A    between atoms: N_7  and  C_8
REMARK    4  A    between atoms: C_8  and  C_9
REMARK    5  A    between atoms: C_9  and  C_12
REMARK    6  A    between atoms: C_16  and  N_17
REMARK    7  A    between atoms: N_17  and  C_18
REMARK                            x       y       z     vdW  Elec       q    Type
REMARK                         _______ _______ _______ _____ _____    ______ ____
ROOT
ATOM      1  C   UNL     1      46.676   5.430  13.459  0.00  0.00    +0.000 C 
ATOM      2  F   UNL     1      46.731   6.692  13.979  0.00  0.00    +0.000 F 
ATOM      3  F   UNL     1      47.824   5.303  12.723  0.00  0.00    +0.000 F 
ENDROOT
BRANCH   1   4
ATOM      4  C   UNL     1      45.434   5.232  12.613  0.00  0.00    +0.000 A 
ATOM      5  C   UNL     1      44.162   5.204  13.196  0.00  0.00    +0.000 A 
ATOM      6  C   UNL     1      43.027   5.018  12.405  0.00  0.00    +0.000 A 
ATOM      7  C   UNL     1      43.150   4.849  11.023  0.00  0.00    +0.000 A 
ATOM      8  C   UNL     1      44.408   4.881  10.418  0.00  0.00    +0.000 A 
ATOM      9  C   UNL     1      45.541   5.071  11.222  0.00  0.00    +0.000 A 
BRANCH   8  10
ATOM     10  N   UNL     1      44.606   4.722   9.031  0.00  0.00    +0.000 N 
ATOM     11  H   UNL     1      44.092   5.451   8.534  0.00  0.00    +0.000 HD
BRANCH  10  12
ATOM     12  C   UNL     1      44.623   3.477   8.310  0.00  0.00    +0.000 C 
ATOM     13  C   UNL     1      44.845   2.241   9.197  0.00  0.00    +0.000 C 
ATOM     14  O   UNL     1      46.001   1.839   8.417  0.00  0.00    +0.000 OA
ATOM     15  C   UNL     1      46.019   3.133   7.763  0.00  0.00    +0.000 C 
ENDBRANCH  10  12
ENDBRANCH   8  10
ENDBRANCH   1   4
BRANCH   1  16
ATOM     16  C   UNL     1      46.741   4.406  14.622  0.00  0.00    +0.000 C 
BRANCH  16  17
ATOM     17  N   UNL     1      47.137   5.021  15.904  0.00  0.00    +0.000 N 
ATOM     18  H   UNL     1      46.902   6.010  15.983  0.00  0.00    +0.000 HD
BRANCH  17  22
ATOM     19  C   UNL     1      50.745   3.759  17.688  0.00  0.00    +0.000 A 
ATOM     20  C   UNL     1      50.556   5.109  17.395  0.00  0.00    +0.000 A 
ATOM     21  C   UNL     1      49.356   5.547  16.823  0.00  0.00    +0.000 A 
ATOM     22  C   UNL     1      48.307   4.658  16.560  0.00  0.00    +0.000 A 
ATOM     23  C   UNL     1      48.518   3.302  16.853  0.00  0.00    +0.000 A 
ATOM     24  C   UNL     1      49.721   2.851  17.413  0.00  0.00    +0.000 A 
BRANCH  19  26
ATOM     25  N   UNL     1      52.991   2.943  18.702  0.00  0.00    +0.000 NA
ATOM     26  C   UNL     1      51.988   3.306  18.249  0.00  0.00    +0.000 C 
ENDBRANCH  19  26
ENDBRANCH  17  22
ENDBRANCH  16  17
ENDBRANCH   1  16
TORSDOF 7
ENDMDL
MODEL 9
REMARK VINA RESULT:    -6.260      4.117      7.324
REMARK INTER + INTRA:          -9.653
REMARK INTER:                  -9.070
REMARK INTRA:                  -0.582
REMARK UNBOUND:                -0.831
REMARK  Name = 
REMARK  7 active torsions:
REMARK  status: ('A' for Active; 'I' for Inactive)
REMARK    1  A    between atoms: C_2  and  C_3
REMARK    2  A    between atoms: C_6  and  N_7
REMARK    3  A    between atoms: N_7  and  C_8
REMARK    4  A    between atoms: C_8  and  C_9
REMARK    5  A    between atoms: C_9  and  C_12
REMARK    6  A    between atoms: C_16  and  N_17
REMARK    7  A    between atoms: N_17  and  C_18
REMARK                            x       y       z     vdW  Elec       q    Type
REMARK                         _______ _______ _______ _____ _____    ______ ____
ROOT
ATOM      1  C   UNL     1      45.029   6.145  11.621  0.00  0.00    +0.000 C 
ATOM      2  F   UNL     1      44.257   6.066  12.744  0.00  0.00    +0.000 F 
ATOM      3  F   UNL     1      44.592   7.269  10.971  0.00  0.00    +0.000 F 
ENDROOT
BRANCH   1   4
ATOM      4  C   UNL     1      44.890   4.903  10.762  0.00  0.00    +0.000 A 
ATOM      5  C   UNL     1      44.115   3.817  11.187  0.00  0.00    +0.000 A 
ATOM      6  C   UNL     1      43.997   2.680  10.388  0.00  0.00    +0.000 A 
ATOM      7  C   UNL     1      44.659   2.609   9.159  0.00  0.00    +0.000 A 
ATOM      8  C   UNL     1      45.430   3.682   8.711  0.00  0.00    +0.000 A 
ATOM      9  C   UNL     1      45.540   4.821   9.521  0.00  0.00    +0.000 A 
BRANCH   8  10
ATOM     10  N   UNL     1      46.121   3.681   7.481  0.00  0.00    +0.000 N 
ATOM     11  H   UNL     1      45.852   4.508   6.946  0.00  0.00    +0.000 HD
BRANCH  10  12
ATOM     12  C   UNL     1      46.360   2.539   6.639  0.00  0.00    +0.000 C 
ATOM     13  C   UNL     1      47.457   1.595   7.157  0.00  0.00    +0.000 C 
ATOM     14  O   UNL     1      48.204   1.717   5.919  0.00  0.00    +0.000 OA
ATOM     15  C   UNL     1      47.373   2.836   5.519  0.00  0.00    +0.000 C 
ENDBRANCH  10  12
ENDBRANCH   8  10
ENDBRANCH   1   4
BRANCH   1  16
ATOM     16  C   UNL     1      46.503   6.383  12.042  0.00  0.00    +0.000 C 
BRANCH  16  17
ATOM     17  N   UNL     1      46.847   7.815  12.137  0.00  0.00    +0.000 N 
ATOM     18  H   UNL     1      46.118   8.443  11.798  0.00  0.00    +0.000 HD
BRANCH  17  22
ATOM     19  C   UNL     1      50.772   9.076  11.246  0.00  0.00    +0.000 A 
ATOM     20  C   UNL     1      49.770  10.026  11.439  0.00  0.00    +0.000 A 
ATOM     21  C   UNL     1      48.468   9.625  11.757  0.00  0.00    +0.000 A 
ATOM     22  C   UNL     1      48.141   8.274  11.921  0.00  0.00    +0.000 A 
ATOM     23  C   UNL     1      49.160   7.331  11.714  0.00  0.00    +0.000 A 
ATOM     24  C   UNL     1      50.463   7.721  11.382  0.00  0.00    +0.000 A 
BRANCH  19  26
ATOM     25  N   UNL     1      53.175   9.819  10.604  0.00  0.00    +0.000 NA
ATOM     26  C   UNL     1      52.103   9.488  10.892  0.00  0.00    +0.000 C 
ENDBRANCH  19  26
ENDBRANCH  17  22
ENDBRANCH  16  17
ENDBRANCH   1  16
TORSDOF 7
ENDMDL
