MODEL 1
REMARK VINA RESULT:    -8.413      0.000      0.000
REMARK INTER + INTRA:         -11.437
REMARK INTER:                 -10.872
REMARK INTRA:                  -0.565
REMARK UNBOUND:                -0.565
REMARK  Name = 
REMARK  6 active torsions:
REMARK  status: ('A' for Active; 'I' for Inactive)
REMARK    1  A    between atoms: C_1  and  C_2
REMARK    2  A    between atoms: C_2  and  C_3
REMARK    3  A    between atoms: C_7  and  C_8
REMARK    4  A    between atoms: C_8  and  C_9
REMARK    5  A    between atoms: C_9  and  N_10
REMARK    6  A    between atoms: C_14  and  C_15
REMARK                            x       y       z     vdW  Elec       q    Type
REMARK                         _______ _______ _______ _____ _____    ______ ____
ROOT
ATOM      1  C   UNL     1      43.038   4.421  11.031  0.00  0.00    +0.000 C 
ENDROOT
BRANCH   1   2
ATOM      2  N   UNL     1      43.864   4.980   9.952  0.00  0.00    +0.000 N 
ATOM      3  C   UNL     1      44.650   3.996   9.317  0.00  0.00    +0.000 A 
ATOM      4  C   UNL     1      45.489   4.364   8.270  0.00  0.00    +0.000 A 
ATOM      5  C   UNL     1      46.259   3.388   7.626  0.00  0.00    +0.000 A 
ATOM      6  C   UNL     1      46.175   2.057   8.040  0.00  0.00    +0.000 A 
ATOM      7  C   UNL     1      45.311   1.780   9.082  0.00  0.00    +0.000 A 
ATOM      8  N   UNL     1      44.555   2.710   9.711  0.00  0.00    +0.000 NA
ATOM      9  H   UNL     1      44.479   5.723  10.279  0.00  0.00    +0.000 HD
BRANCH   6  10
ATOM     10  C   UNL     1      46.997   1.022   7.369  0.00  0.00    +0.000 C 
ATOM     11  N   UNL     1      46.773  -0.297   7.656  0.00  0.00    +0.000 N 
ATOM     12  O   UNL     1      47.873   1.331   6.568  0.00  0.00    +0.000 OA
ATOM     13  H   UNL     1      46.080  -0.661   8.297  0.00  0.00    +0.000 HD
ATOM     14  H   UNL     1      47.353  -0.969   7.175  0.00  0.00    +0.000 HD
ENDBRANCH   6  10
ENDBRANCH   1   2
BRANCH   1  15
ATOM     15  C   UNL     1      43.278   5.145  12.363  0.00  0.00    +0.000 C 
BRANCH  15  20
ATOM     16  C   UNL     1      46.772   6.618  12.932  0.00  0.00    +0.000 A 
ATOM     17  C   UNL     1      47.436   5.477  13.425  0.00  0.00    +0.000 A 
ATOM     18  C   UNL     1      46.787   4.247  13.539  0.00  0.00    +0.000 A 
ATOM     19  C   UNL     1      45.449   4.126  13.173  0.00  0.00    +0.000 A 
ATOM     20  C   UNL     1      44.759   5.231  12.668  0.00  0.00    +0.000 A 
ATOM     21  C   UNL     1      45.434   6.460  12.533  0.00  0.00    +0.000 A 
BRANCH  16  23
ATOM     22  C   UNL     1      46.427   9.088  12.850  0.00  0.00    +0.000 C 
ATOM     23  C   UNL     1      47.492   7.979  12.941  0.00  0.00    +0.000 C 
ATOM     24  C   UNL     1      48.380   8.136  14.180  0.00  0.00    +0.000 C 
ATOM     25  C   UNL     1      49.770   7.719  13.721  0.00  0.00    +0.000 C 
ATOM     26  O   UNL     1      49.748   7.596  12.295  0.00  0.00    +0.000 OA
ATOM     27  C   UNL     1      48.537   8.207  11.838  0.00  0.00    +0.000 C 
ENDBRANCH  16  23
ENDBRANCH  15  20
ENDBRANCH   1  15
TORSDOF 5
ENDMDL
MODEL 2
REMARK VINA RESULT:    -7.576      1.606      2.523
REMARK INTER + INTRA:         -10.356
REMARK INTER:                  -9.597
REMARK INTRA:                  -0.759
REMARK UNBOUND:                -0.565
REMARK  Name = 
REMARK  6 active torsions:
REMARK  status: ('A' for Active; 'I' for Inactive)
REMARK    1  A    between atoms: C_1  and  C_2
REMARK    2  A    between atoms: C_2  and  C_3
REMARK    3  A    between atoms: C_7  and  C_8
REMARK    4  A    between atoms: C_8  and  C_9
REMARK    5  A    between atoms: C_9  and  N_10
REMARK    6  A    between atoms: C_14  and  C_15
REMARK                            x       y       z     vdW  Elec       q    Type
REMARK                         _______ _______ _______ _____ _____    ______ ____
ROOT
ATOM      1  C   UNL     1      43.623   4.987  10.945  0.00  0.00    +0.000 C 
ENDROOT
BRANCH   1   2
ATOM      2  N   UNL     1      43.767   3.546  10.700  0.00  0.00    +0.000 N 
ATOM      3  C   UNL     1      44.660   3.270   9.643  0.00  0.00    +0.000 A 
ATOM      4  C   UNL     1      44.907   1.948   9.286  0.00  0.00    +0.000 A 
ATOM      5  C   UNL     1      45.805   1.669   8.249  0.00  0.00    +0.000 A 
ATOM      6  C   UNL     1      46.443   2.720   7.586  0.00  0.00    +0.000 A 
ATOM      7  C   UNL     1      46.145   4.000   8.011  0.00  0.00    +0.000 A 
ATOM      8  N   UNL     1      45.284   4.287   9.016  0.00  0.00    +0.000 NA
ATOM      9  H   UNL     1      42.876   3.096  10.495  0.00  0.00    +0.000 HD
BRANCH   6  10
ATOM     10  C   UNL     1      47.386   2.430   6.479  0.00  0.00    +0.000 C 
ATOM     11  N   UNL     1      47.292   3.148   5.318  0.00  0.00    +0.000 N 
ATOM     12  O   UNL     1      48.241   1.558   6.588  0.00  0.00    +0.000 OA
ATOM     13  H   UNL     1      46.629   3.887   5.123  0.00  0.00    +0.000 HD
ATOM     14  H   UNL     1      47.955   2.920   4.592  0.00  0.00    +0.000 HD
ENDBRANCH   6  10
ENDBRANCH   1   2
BRANCH   1  15
ATOM     15  C   UNL     1      44.095   5.374  12.352  0.00  0.00    +0.000 C 
BRANCH  15  20
ATOM     16  C   UNL     1      46.960   7.895  12.733  0.00  0.00    +0.000 A 
ATOM     17  C   UNL     1      46.383   9.012  12.096  0.00  0.00    +0.000 A 
ATOM     18  C   UNL     1      45.084   8.971  11.586  0.00  0.00    +0.000 A 
ATOM     19  C   UNL     1      44.329   7.805  11.688  0.00  0.00    +0.000 A 
ATOM     20  C   UNL     1      44.862   6.680  12.323  0.00  0.00    +0.000 A 
ATOM     21  C   UNL     1      46.164   6.744  12.857  0.00  0.00    +0.000 A 
BRANCH  16  23
ATOM     22  C   UNL     1      49.310   7.590  11.950  0.00  0.00    +0.000 C 
ATOM     23  C   UNL     1      48.436   7.947  13.167  0.00  0.00    +0.000 C 
ATOM     24  C   UNL     1      48.800   9.315  13.755  0.00  0.00    +0.000 C 
ATOM     25  C   UNL     1      48.653   9.146  15.260  0.00  0.00    +0.000 C 
ATOM     26  O   UNL     1      48.488   7.751  15.536  0.00  0.00    +0.000 OA
ATOM     27  C   UNL     1      48.834   7.041  14.343  0.00  0.00    +0.000 C 
ENDBRANCH  16  23
ENDBRANCH  15  20
ENDBRANCH   1  15
TORSDOF 5
ENDMDL
MODEL 3
REMARK VINA RESULT:    -6.889      4.106      7.326
REMARK INTER + INTRA:          -9.468
REMARK INTER:                  -8.470
REMARK INTRA:                  -0.998
REMARK UNBOUND:                -0.565
REMARK  Name = 
REMARK  6 active torsions:
REMARK  status: ('A' for Active; 'I' for Inactive)
REMARK    1  A    between atoms: C_1  and  C_2
REMARK    2  A    between atoms: C_2  and  C_3
REMARK    3  A    between atoms: C_7  and  C_8
REMARK    4  A    between atoms: C_8  and  C_9
REMARK    5  A    between atoms: C_9  and  N_10
REMARK    6  A    between atoms: C_14  and  C_15
REMARK                            x       y       z     vdW  Elec       q    Type
REMARK                         _______ _______ _______ _____ _____    ______ ____
ROOT
ATOM      1  C   UNL     1      49.156   7.498  13.078  0.00  0.00    +0.000 C 
ENDROOT
BRANCH   1   2
ATOM      2  N   UNL     1      49.696   7.539  14.443  0.00  0.00    +0.000 N 
ATOM      3  C   UNL     1      49.142   6.538  15.268  0.00  0.00    +0.000 A 
ATOM      4  C   UNL     1      49.552   6.441  16.594  0.00  0.00    +0.000 A 
ATOM      5  C   UNL     1      49.017   5.439  17.411  0.00  0.00    +0.000 A 
ATOM      6  C   UNL     1      48.080   4.545  16.886  0.00  0.00    +0.000 A 
ATOM      7  C   UNL     1      47.737   4.708  15.558  0.00  0.00    +0.000 A 
ATOM      8  N   UNL     1      48.249   5.669  14.752  0.00  0.00    +0.000 NA
ATOM      9  H   UNL     1      49.550   8.443  14.892  0.00  0.00    +0.000 HD
BRANCH   6  10
ATOM     10  C   UNL     1      47.502   3.489  17.751  0.00  0.00    +0.000 C 
ATOM     11  N   UNL     1      48.138   3.160  18.917  0.00  0.00    +0.000 N 
ATOM     12  O   UNL     1      46.470   2.907  17.434  0.00  0.00    +0.000 OA
ATOM     13  H   UNL     1      48.990   3.575  19.272  0.00  0.00    +0.000 HD
ATOM     14  H   UNL     1      47.709   2.437  19.476  0.00  0.00    +0.000 HD
ENDBRANCH   6  10
ENDBRANCH   1   2
BRANCH   1  15
ATOM     15  C   UNL     1      48.466   8.815  12.699  0.00  0.00    +0.000 C 
BRANCH  15  20
ATOM     16  C   UNL     1      45.364   6.950  11.433  0.00  0.00    +0.000 A 
ATOM     17  C   UNL     1      44.438   8.013  11.410  0.00  0.00    +0.000 A 
ATOM     18  C   UNL     1      44.810   9.313  11.758  0.00  0.00    +0.000 A 
ATOM     19  C   UNL     1      46.118   9.584  12.152  0.00  0.00    +0.000 A 
ATOM     20  C   UNL     1      47.068   8.560  12.177  0.00  0.00    +0.000 A 
ATOM     21  C   UNL     1      46.686   7.258  11.796  0.00  0.00    +0.000 A 
BRANCH  16  23
ATOM     22  C   UNL     1      45.445   5.064   9.802  0.00  0.00    +0.000 C 
ATOM     23  C   UNL     1      44.880   5.515  11.162  0.00  0.00    +0.000 C 
ATOM     24  C   UNL     1      45.280   4.563  12.295  0.00  0.00    +0.000 C 
ATOM     25  C   UNL     1      44.062   4.504  13.206  0.00  0.00    +0.000 C 
ATOM     26  O   UNL     1      42.971   5.137  12.529  0.00  0.00    +0.000 OA
ATOM     27  C   UNL     1      43.358   5.296  11.160  0.00  0.00    +0.000 C 
ENDBRANCH  16  23
ENDBRANCH  15  20
ENDBRANCH   1  15
TORSDOF 5
ENDMDL
MODEL 4
REMARK VINA RESULT:    -6.793      4.665      6.207
REMARK INTER + INTRA:          -9.343
REMARK INTER:                  -8.748
REMARK INTRA:                  -0.596
REMARK UNBOUND:                -0.565
REMARK  Name = 
REMARK  6 active torsions:
REMARK  status: ('A' for Active; 'I' for Inactive)
REMARK    1  A    between atoms: C_1  and  C_2
REMARK    2  A    between atoms: C_2  and  C_3
REMARK    3  A    between atoms: C_7  and  C_8
REMARK    4  A    between atoms: C_8  and  C_9
REMARK    5  A    between atoms: C_9  and  N_10
REMARK    6  A    between atoms: C_14  and  C_15
REMARK                            x       y       z     vdW  Elec       q    Type
REMARK                         _______ _______ _______ _____ _____    ______ ____
ROOT
ATOM      1  C   UNL     1      47.073   4.167  15.711  0.00  0.00    +0.000 C 
ENDROOT
BRANCH   1   2
ATOM      2  N   UNL     1      47.000   5.242  14.712  0.00  0.00    +0.000 N 
ATOM      3  C   UNL     1      46.344   4.831  13.533  0.00  0.00    +0.000 A 
ATOM      4  C   UNL     1      46.191   5.736  12.487  0.00  0.00    +0.000 A 
ATOM      5  C   UNL     1      45.525   5.338  11.321  0.00  0.00    +0.000 A 
ATOM      6  C   UNL     1      45.021   4.039  11.222  0.00  0.00    +0.000 A 
ATOM      7  C   UNL     1      45.211   3.210  12.311  0.00  0.00    +0.000 A 
ATOM      8  N   UNL     1      45.847   3.581  13.448  0.00  0.00    +0.000 NA
ATOM      9  H   UNL     1      47.920   5.602  14.461  0.00  0.00    +0.000 HD
BRANCH   6  10
ATOM     10  C   UNL     1      44.327   3.609   9.985  0.00  0.00    +0.000 C 
ATOM     11  N   UNL     1      44.036   4.541   9.026  0.00  0.00    +0.000 N 
ATOM     12  O   UNL     1      44.008   2.438   9.814  0.00  0.00    +0.000 OA
ATOM     13  H   UNL     1      44.253   5.528   9.065  0.00  0.00    +0.000 HD
ATOM     14  H   UNL     1      43.565   4.205   8.199  0.00  0.00    +0.000 HD
ENDBRANCH   6  10
ENDBRANCH   1   2
BRANCH   1  15
ATOM     15  C   UNL     1      47.810   4.619  16.979  0.00  0.00    +0.000 C 
BRANCH  15  20
ATOM     16  C   UNL     1      51.479   3.907  17.839  0.00  0.00    +0.000 A 
ATOM     17  C   UNL     1      51.512   2.516  17.618  0.00  0.00    +0.000 A 
ATOM     18  C   UNL     1      50.388   1.822  17.165  0.00  0.00    +0.000 A 
ATOM     19  C   UNL     1      49.195   2.500  16.931  0.00  0.00    +0.000 A 
ATOM     20  C   UNL     1      49.125   3.882  17.128  0.00  0.00    +0.000 A 
ATOM     21  C   UNL     1      50.273   4.574  17.560  0.00  0.00    +0.000 A 
BRANCH  16  23
ATOM     22  C   UNL     1      52.971   3.981  19.838  0.00  0.00    +0.000 C 
ATOM     23  C   UNL     1      52.703   4.607  18.457  0.00  0.00    +0.000 C 
ATOM     24  C   UNL     1      53.926   4.516  17.537  0.00  0.00    +0.000 C 
ATOM     25  C   UNL     1      53.925   5.820  16.753  0.00  0.00    +0.000 C 
ATOM     26  O   UNL     1      52.962   6.695  17.350  0.00  0.00    +0.000 OA
ATOM     27  C   UNL     1      52.608   6.133  18.617  0.00  0.00    +0.000 C 
ENDBRANCH  16  23
ENDBRANCH  15  20
ENDBRANCH   1  15
TORSDOF 5
ENDMDL
MODEL 5
REMARK VINA RESULT:    -6.757      3.554      5.625
REMARK INTER + INTRA:          -9.297
REMARK INTER:                  -8.374
REMARK INTRA:                  -0.923
REMARK UNBOUND:                -0.565
REMARK  Name = 
REMARK  6 active torsions:
REMARK  status: ('A' for Active; 'I' for Inactive)
REMARK    1  A    between atoms: C_1  and  C_2
REMARK    2  A    between atoms: C_2  and  C_3
REMARK    3  A    between atoms: C_7  and  C_8
REMARK    4  A    between atoms: C_8  and  C_9
REMARK    5  A    between atoms: C_9  and  N_10
REMARK    6  A    between atoms: C_14  and  C_15
REMARK                            x       y       z     vdW  Elec       q    Type
REMARK                         _______ _______ _______ _____ _____    ______ ____
ROOT
ATOM      1  C   UNL     1      47.618   7.854  13.637  0.00  0.00    +0.000 C 
ENDROOT
BRANCH   1   2
ATOM      2  N   UNL     1      47.183   7.705  12.242  0.00  0.00    +0.000 N 
ATOM      3  C   UNL     1      46.409   6.542  12.046  0.00  0.00    +0.000 A 
ATOM      4  C   UNL     1      45.917   6.256  10.776  0.00  0.00    +0.000 A 
ATOM      5  C   UNL     1      45.136   5.111  10.580  0.00  0.00    +0.000 A 
ATOM      6  C   UNL     1      44.857   4.271  11.660  0.00  0.00    +0.000 A 
ATOM      7  C   UNL     1      45.378   4.636  12.886  0.00  0.00    +0.000 A 
ATOM      8  N   UNL     1      46.132   5.742  13.094  0.00  0.00    +0.000 NA
ATOM      9  H   UNL     1      47.965   7.686  11.591  0.00  0.00    +0.000 HD
BRANCH   6  10
ATOM     10  C   UNL     1      44.040   3.052  11.455  0.00  0.00    +0.000 C 
ATOM     11  N   UNL     1      43.664   2.310  12.542  0.00  0.00    +0.000 N 
ATOM     12  O   UNL     1      43.701   2.699  10.330  0.00  0.00    +0.000 OA
ATOM     13  H   UNL     1      43.886   2.510  13.509  0.00  0.00    +0.000 HD
ATOM     14  H   UNL     1      43.106   1.489  12.357  0.00  0.00    +0.000 HD
ENDBRANCH   6  10
ENDBRANCH   1   2
BRANCH   1  15
ATOM     15  C   UNL     1      49.148   7.871  13.756  0.00  0.00    +0.000 C 
BRANCH  15  20
ATOM     16  C   UNL     1      49.100   5.683  16.906  0.00  0.00    +0.000 A 
ATOM     17  C   UNL     1      50.441   5.821  17.314  0.00  0.00    +0.000 A 
ATOM     18  C   UNL     1      51.338   6.631  16.614  0.00  0.00    +0.000 A 
ATOM     19  C   UNL     1      50.919   7.317  15.477  0.00  0.00    +0.000 A 
ATOM     20  C   UNL     1      49.594   7.215  15.046  0.00  0.00    +0.000 A 
ATOM     21  C   UNL     1      48.693   6.416  15.777  0.00  0.00    +0.000 A 
BRANCH  16  23
ATOM     22  C   UNL     1      47.213   5.482  18.526  0.00  0.00    +0.000 C 
ATOM     23  C   UNL     1      48.183   4.684  17.634  0.00  0.00    +0.000 C 
ATOM     24  C   UNL     1      47.441   3.778  16.645  0.00  0.00    +0.000 C 
ATOM     25  C   UNL     1      48.285   2.515  16.561  0.00  0.00    +0.000 C 
ATOM     26  O   UNL     1      49.267   2.568  17.601  0.00  0.00    +0.000 OA
ATOM     27  C   UNL     1      48.881   3.618  18.493  0.00  0.00    +0.000 C 
ENDBRANCH  16  23
ENDBRANCH  15  20
ENDBRANCH   1  15
TORSDOF 5
ENDMDL
MODEL 6
REMARK VINA RESULT:    -6.528      4.120      6.359
REMARK INTER + INTRA:          -9.001
REMARK INTER:                  -8.150
REMARK INTRA:                  -0.851
REMARK UNBOUND:                -0.565
REMARK  Name = 
REMARK  6 active torsions:
REMARK  status: ('A' for Active; 'I' for Inactive)
REMARK    1  A    between atoms: C_1  and  C_2
REMARK    2  A    between atoms: C_2  and  C_3
REMARK    3  A    between atoms: C_7  and  C_8
REMARK    4  A    between atoms: C_8  and  C_9
REMARK    5  A    between atoms: C_9  and  N_10
REMARK    6  A    between atoms: C_14  and  C_15
REMARK                            x       y       z     vdW  Elec       q    Type
REMARK                         _______ _______ _______ _____ _____    ______ ____
ROOT
ATOM      1  C   UNL     1      49.661   7.349  14.325  0.00  0.00    +0.000 C 
ENDROOT
BRANCH   1   2
ATOM      2  N   UNL     1      48.802   7.635  13.169  0.00  0.00    +0.000 N 
ATOM      3  C   UNL     1      47.840   6.626  12.955  0.00  0.00    +0.000 A 
ATOM      4  C   UNL     1      46.946   6.749  11.896  0.00  0.00    +0.000 A 
ATOM      5  C   UNL     1      45.979   5.757  11.690  0.00  0.00    +0.000 A 
ATOM      6  C   UNL     1      45.922   4.658  12.550  0.00  0.00    +0.000 A 
ATOM      7  C   UNL     1      46.842   4.621  13.580  0.00  0.00    +0.000 A 
ATOM      8  N   UNL     1      47.780   5.574  13.796  0.00  0.00    +0.000 NA
ATOM      9  H   UNL     1      49.336   7.760  12.310  0.00  0.00    +0.000 HD
BRANCH   6  10
ATOM     10  C   UNL     1      44.908   3.600  12.329  0.00  0.00    +0.000 C 
ATOM     11  N   UNL     1      44.984   2.828  11.202  0.00  0.00    +0.000 N 
ATOM     12  O   UNL     1      44.004   3.411  13.136  0.00  0.00    +0.000 OA
ATOM     13  H   UNL     1      45.685   2.898  10.475  0.00  0.00    +0.000 HD
ATOM     14  H   UNL     1      44.275   2.118  11.092  0.00  0.00    +0.000 HD
ENDBRANCH   6  10
ENDBRANCH   1   2
BRANCH   1  15
ATOM     15  C   UNL     1      49.522   8.420  15.415  0.00  0.00    +0.000 C 
BRANCH  15  20
ATOM     16  C   UNL     1      48.458   5.922  18.124  0.00  0.00    +0.000 A 
ATOM     17  C   UNL     1      47.807   6.798  19.016  0.00  0.00    +0.000 A 
ATOM     18  C   UNL     1      47.678   8.160  18.738  0.00  0.00    +0.000 A 
ATOM     19  C   UNL     1      48.208   8.687  17.562  0.00  0.00    +0.000 A 
ATOM     20  C   UNL     1      48.850   7.849  16.647  0.00  0.00    +0.000 A 
ATOM     21  C   UNL     1      48.950   6.472  16.928  0.00  0.00    +0.000 A 
BRANCH  16  23
ATOM     22  C   UNL     1      48.764   4.388  20.068  0.00  0.00    +0.000 C 
ATOM     23  C   UNL     1      48.685   4.456  18.531  0.00  0.00    +0.000 C 
ATOM     24  C   UNL     1      47.590   3.541  17.971  0.00  0.00    +0.000 C 
ATOM     25  C   UNL     1      48.169   2.981  16.680  0.00  0.00    +0.000 C 
ATOM     26  O   UNL     1      49.560   3.318  16.635  0.00  0.00    +0.000 OA
ATOM     27  C   UNL     1      49.928   3.768  17.943  0.00  0.00    +0.000 C 
ENDBRANCH  16  23
ENDBRANCH  15  20
ENDBRANCH   1  15
TORSDOF 5
ENDMDL
MODEL 7
REMARK VINA RESULT:    -5.923      3.905      5.948
REMARK INTER + INTRA:          -8.219
REMARK INTER:                  -7.385
REMARK INTRA:                  -0.834
REMARK UNBOUND:                -0.565
REMARK  Name = 
REMARK  6 active torsions:
REMARK  status: ('A' for Active; 'I' for Inactive)
REMARK    1  A    between atoms: C_1  and  C_2
REMARK    2  A    between atoms: C_2  and  C_3
REMARK    3  A    between atoms: C_7  and  C_8
REMARK    4  A    between atoms: C_8  and  C_9
REMARK    5  A    between atoms: C_9  and  N_10
REMARK    6  A    between atoms: C_14  and  C_15
REMARK                            x       y       z     vdW  Elec       q    Type
REMARK                         _______ _______ _______ _____ _____    ______ ____
ROOT
ATOM      1  C   UNL     1      48.320   7.737  13.093  0.00  0.00    +0.000 C 
ENDROOT
BRANCH   1   2
ATOM      2  N   UNL     1      46.980   7.966  12.536  0.00  0.00    +0.000 N 
ATOM      3  C   UNL     1      46.245   6.770  12.405  0.00  0.00    +0.000 A 
ATOM      4  C   UNL     1      44.952   6.816  11.892  0.00  0.00    +0.000 A 
ATOM      5  C   UNL     1      44.212   5.633  11.775  0.00  0.00    +0.000 A 
ATOM      6  C   UNL     1      44.779   4.421  12.176  0.00  0.00    +0.000 A 
ATOM      7  C   UNL     1      46.064   4.469  12.681  0.00  0.00    +0.000 A 
ATOM      8  N   UNL     1      46.791   5.605  12.806  0.00  0.00    +0.000 NA
ATOM      9  H   UNL     1      47.011   8.427  11.628  0.00  0.00    +0.000 HD
BRANCH   6  10
ATOM     10  C   UNL     1      44.004   3.165  12.044  0.00  0.00    +0.000 C 
ATOM     11  N   UNL     1      43.971   2.526  10.834  0.00  0.00    +0.000 N 
ATOM     12  O   UNL     1      43.393   2.695  12.997  0.00  0.00    +0.000 OA
ATOM     13  H   UNL     1      44.438   2.824   9.987  0.00  0.00    +0.000 HD
ATOM     14  H   UNL     1      43.434   1.672  10.789  0.00  0.00    +0.000 HD
ENDBRANCH   6  10
ENDBRANCH   1   2
BRANCH   1  15
ATOM     15  C   UNL     1      48.501   8.439  14.445  0.00  0.00    +0.000 C 
BRANCH  15  20
ATOM     16  C   UNL     1      49.474   5.793  17.044  0.00  0.00    +0.000 A 
ATOM     17  C   UNL     1      50.878   5.882  16.963  0.00  0.00    +0.000 A 
ATOM     18  C   UNL     1      51.504   6.800  16.117  0.00  0.00    +0.000 A 
ATOM     19  C   UNL     1      50.741   7.648  15.319  0.00  0.00    +0.000 A 
ATOM     20  C   UNL     1      49.345   7.598  15.379  0.00  0.00    +0.000 A 
ATOM     21  C   UNL     1      48.727   6.686  16.257  0.00  0.00    +0.000 A 
BRANCH  16  23
ATOM     22  C   UNL     1      49.364   3.326  17.401  0.00  0.00    +0.000 C 
ATOM     23  C   UNL     1      48.831   4.684  17.896  0.00  0.00    +0.000 C 
ATOM     24  C   UNL     1      49.099   4.896  19.390  0.00  0.00    +0.000 C 
ATOM     25  C   UNL     1      47.867   5.623  19.910  0.00  0.00    +0.000 C 
ATOM     26  O   UNL     1      46.869   5.592  18.885  0.00  0.00    +0.000 OA
ATOM     27  C   UNL     1      47.295   4.636  17.909  0.00  0.00    +0.000 C 
ENDBRANCH  16  23
ENDBRANCH  15  20
ENDBRANCH   1  15
TORSDOF 5
ENDMDL
MODEL 8
REMARK VINA RESULT:    -5.700      4.636      8.105
REMARK INTER + INTRA:          -7.931
REMARK INTER:                  -7.273
REMARK INTRA:                  -0.659
REMARK UNBOUND:                -0.565
REMARK  Name = 
REMARK  6 active torsions:
REMARK  status: ('A' for Active; 'I' for Inactive)
REMARK    1  A    between atoms: C_1  and  C_2
REMARK    2  A    between atoms: C_2  and  C_3
REMARK    3  A    between atoms: C_7  and  C_8
REMARK    4  A    between atoms: C_8  and  C_9
REMARK    5  A    between atoms: C_9  and  N_10
REMARK    6  A    between atoms: C_14  and  C_15
REMARK                            x       y       z     vdW  Elec       q    Type
REMARK                         _______ _______ _______ _____ _____    ______ ____
ROOT
ATOM      1  C   UNL     1      48.309   7.545  14.301  0.00  0.00    +0.000 C 
ENDROOT
BRANCH   1   2
ATOM      2  N   UNL     1      49.727   7.794  14.598  0.00  0.00    +0.000 N 
ATOM      3  C   UNL     1      50.235   6.900  15.564  0.00  0.00    +0.000 A 
ATOM      4  C   UNL     1      51.566   7.004  15.955  0.00  0.00    +0.000 A 
ATOM      5  C   UNL     1      52.080   6.109  16.901  0.00  0.00    +0.000 A 
ATOM      6  C   UNL     1      51.251   5.122  17.440  0.00  0.00    +0.000 A 
ATOM      7  C   UNL     1      49.946   5.087  16.989  0.00  0.00    +0.000 A 
ATOM      8  N   UNL     1      49.435   5.941  16.071  0.00  0.00    +0.000 NA
ATOM      9  H   UNL     1      49.895   8.746  14.919  0.00  0.00    +0.000 HD
BRANCH   6  10
ATOM     10  C   UNL     1      51.787   4.180  18.451  0.00  0.00    +0.000 C 
ATOM     11  N   UNL     1      51.472   2.851  18.357  0.00  0.00    +0.000 N 
ATOM     12  O   UNL     1      52.500   4.573  19.367  0.00  0.00    +0.000 OA
ATOM     13  H   UNL     1      50.896   2.421  17.645  0.00  0.00    +0.000 HD
ATOM     14  H   UNL     1      51.860   2.244  19.065  0.00  0.00    +0.000 HD
ENDBRANCH   6  10
ENDBRANCH   1   2
BRANCH   1  15
ATOM     15  C   UNL     1      47.543   8.850  14.054  0.00  0.00    +0.000 C 
BRANCH  15  20
ATOM     16  C   UNL     1      45.025   7.110  11.743  0.00  0.00    +0.000 A 
ATOM     17  C   UNL     1      44.335   8.235  11.250  0.00  0.00    +0.000 A 
ATOM     18  C   UNL     1      44.692   9.532  11.622  0.00  0.00    +0.000 A 
ATOM     19  C   UNL     1      45.746   9.740  12.509  0.00  0.00    +0.000 A 
ATOM     20  C   UNL     1      46.463   8.651  13.011  0.00  0.00    +0.000 A 
ATOM     21  C   UNL     1      46.109   7.348  12.606  0.00  0.00    +0.000 A 
BRANCH  16  23
ATOM     22  C   UNL     1      45.381   5.136  10.258  0.00  0.00    +0.000 C 
ATOM     23  C   UNL     1      44.517   5.698  11.403  0.00  0.00    +0.000 C 
ATOM     24  C   UNL     1      44.530   4.784  12.634  0.00  0.00    +0.000 C 
ATOM     25  C   UNL     1      43.115   4.857  13.192  0.00  0.00    +0.000 C 
ATOM     26  O   UNL     1      42.293   5.524  12.228  0.00  0.00    +0.000 OA
ATOM     27  C   UNL     1      43.036   5.582  11.007  0.00  0.00    +0.000 C 
ENDBRANCH  16  23
ENDBRANCH  15  20
ENDBRANCH   1  15
TORSDOF 5
ENDMDL
MODEL 9
REMARK VINA RESULT:    -5.557      4.646      7.416
REMARK INTER + INTRA:          -7.746
REMARK INTER:                  -7.060
REMARK INTRA:                  -0.686
REMARK UNBOUND:                -0.565
REMARK  Name = 
REMARK  6 active torsions:
REMARK  status: ('A' for Active; 'I' for Inactive)
REMARK    1  A    between atoms: C_1  and  C_2
REMARK    2  A    between atoms: C_2  and  C_3
REMARK    3  A    between atoms: C_7  and  C_8
REMARK    4  A    between atoms: C_8  and  C_9
REMARK    5  A    between atoms: C_9  and  N_10
REMARK    6  A    between atoms: C_14  and  C_15
REMARK                            x       y       z     vdW  Elec       q    Type
REMARK                         _______ _______ _______ _____ _____    ______ ____
ROOT
ATOM      1  C   UNL     1      46.219   4.439  14.379  0.00  0.00    +0.000 C 
ENDROOT
BRANCH   1   2
ATOM      2  N   UNL     1      47.150   3.394  14.827  0.00  0.00    +0.000 N 
ATOM      3  C   UNL     1      47.620   3.623  16.136  0.00  0.00    +0.000 A 
ATOM      4  C   UNL     1      48.512   2.721  16.709  0.00  0.00    +0.000 A 
ATOM      5  C   UNL     1      48.969   2.935  18.014  0.00  0.00    +0.000 A 
ATOM      6  C   UNL     1      48.525   4.051  18.728  0.00  0.00    +0.000 A 
ATOM      7  C   UNL     1      47.635   4.890  18.085  0.00  0.00    +0.000 A 
ATOM      8  N   UNL     1      47.178   4.694  16.825  0.00  0.00    +0.000 NA
ATOM      9  H   UNL     1      47.953   3.297  14.207  0.00  0.00    +0.000 HD
BRANCH   6  10
ATOM     10  C   UNL     1      49.015   4.289  20.106  0.00  0.00    +0.000 C 
ATOM     11  N   UNL     1      50.356   4.464  20.315  0.00  0.00    +0.000 N 
ATOM     12  O   UNL     1      48.240   4.328  21.055  0.00  0.00    +0.000 OA
ATOM     13  H   UNL     1      51.079   4.453  19.608  0.00  0.00    +0.000 HD
ATOM     14  H   UNL     1      50.647   4.626  21.269  0.00  0.00    +0.000 HD
ENDBRANCH   6  10
ENDBRANCH   1   2
BRANCH   1  15
ATOM     15  C   UNL     1      46.414   4.776  12.895  0.00  0.00    +0.000 C 
BRANCH  15  20
ATOM     16  C   UNL     1      48.383   8.032  12.421  0.00  0.00    +0.000 A 
ATOM     17  C   UNL     1      47.319   8.921  12.169  0.00  0.00    +0.000 A 
ATOM     18  C   UNL     1      45.990   8.494  12.187  0.00  0.00    +0.000 A 
ATOM     19  C   UNL     1      45.689   7.159  12.447  0.00  0.00    +0.000 A 
ATOM     20  C   UNL     1      46.715   6.249  12.713  0.00  0.00    +0.000 A 
ATOM     21  C   UNL     1      48.050   6.699  12.718  0.00  0.00    +0.000 A 
BRANCH  16  23
ATOM     22  C   UNL     1      50.514   7.679  11.170  0.00  0.00    +0.000 C 
ATOM     23  C   UNL     1      49.834   8.521  12.267  0.00  0.00    +0.000 C 
ATOM     24  C   UNL     1      49.891  10.022  11.957  0.00  0.00    +0.000 C 
ATOM     25  C   UNL     1      50.103  10.693  13.306  0.00  0.00    +0.000 C 
ATOM     26  O   UNL     1      50.412   9.675  14.264  0.00  0.00    +0.000 OA
ATOM     27  C   UNL     1      50.706   8.481  13.532  0.00  0.00    +0.000 C 
ENDBRANCH  16  23
ENDBRANCH  15  20
ENDBRANCH   1  15
TORSDOF 5
ENDMDL
