MODEL 1
REMARK VINA RESULT:    -7.745      0.000      0.000
REMARK INTER + INTRA:          -9.918
REMARK INTER:                  -9.556
REMARK INTRA:                  -0.362
REMARK UNBOUND:                -0.362
REMARK  Name = 
REMARK  4 active torsions:
REMARK  status: ('A' for Active; 'I' for Inactive)
REMARK    1  A    between atoms: C_2  and  C_4
REMARK    2  A    between atoms: C_7  and  O_8
REMARK    3  A    between atoms: O_8  and  C_9
REMARK    4  A    between atoms: C_9  and  C_10
REMARK                            x       y       z     vdW  Elec       q    Type
REMARK                         _______ _______ _______ _____ _____    ______ ____
ROOT
ATOM      1  C   UNL     1      46.401   2.518   7.659  0.00  0.00    +0.000 A 
ATOM      2  C   UNL     1      45.497   1.840   8.478  0.00  0.00    +0.000 A 
ATOM      3  C   UNL     1      44.571   2.573   9.228  0.00  0.00    +0.000 A 
ATOM      4  C   UNL     1      44.603   3.958   9.146  0.00  0.00    +0.000 A 
ATOM      5  N   UNL     1      45.462   4.636   8.353  0.00  0.00    +0.000 NA
ATOM      6  C   UNL     1      46.345   3.902   7.633  0.00  0.00    +0.000 A 
ENDROOT
BRANCH   1   8
ATOM      7  N   UNL     1      48.506   2.581   6.446  0.00  0.00    +0.000 N 
ATOM      8  C   UNL     1      47.437   1.836   6.850  0.00  0.00    +0.000 C 
ATOM      9  O   UNL     1      47.352   0.646   6.580  0.00  0.00    +0.000 OA
ATOM     10  H   UNL     1      49.254   2.080   5.980  0.00  0.00    +0.000 HD
ATOM     11  H   UNL     1      48.737   3.471   6.866  0.00  0.00    +0.000 HD
ENDBRANCH   1   8
BRANCH   4  12
ATOM     12  O   UNL     1      43.694   4.674   9.902  0.00  0.00    +0.000 OA
BRANCH  12  13
ATOM     13  C   UNL     1      43.529   4.095  11.203  0.00  0.00    +0.000 C 
BRANCH  13  14
ATOM     14  C   UNL     1      44.721   4.397  12.073  0.00  0.00    +0.000 A 
ATOM     15  C   UNL     1      45.094   5.710  12.380  0.00  0.00    +0.000 A 
ATOM     16  C   UNL     1      46.157   5.942  13.249  0.00  0.00    +0.000 A 
ATOM     17  C   UNL     1      46.816   4.850  13.788  0.00  0.00    +0.000 A 
ATOM     18  N   UNL     1      46.490   3.570  13.513  0.00  0.00    +0.000 NA
ATOM     19  C   UNL     1      45.454   3.373  12.662  0.00  0.00    +0.000 A 
ENDBRANCH  13  14
ENDBRANCH  12  13
ENDBRANCH   4  12
TORSDOF 4
ENDMDL
MODEL 2
REMARK VINA RESULT:    -7.237      2.215      5.958
REMARK INTER + INTRA:          -9.292
REMARK INTER:                  -8.906
REMARK INTRA:                  -0.385
REMARK UNBOUND:                -0.362
REMARK  Name = 
REMARK  4 active torsions:
REMARK  status: ('A' for Active; 'I' for Inactive)
REMARK    1  A    between atoms: C_2  and  C_4
REMARK    2  A    between atoms: C_7  and  O_8
REMARK    3  A    between atoms: O_8  and  C_9
REMARK    4  A    between atoms: C_9  and  C_10
REMARK                            x       y       z     vdW  Elec       q    Type
REMARK                         _______ _______ _______ _____ _____    ______ ____
ROOT
ATOM      1  C   UNL     1      46.488   5.382  12.952  0.00  0.00    +0.000 A 
ATOM      2  C   UNL     1      46.173   6.097  11.797  0.00  0.00    +0.000 A 
ATOM      3  C   UNL     1      45.384   5.493  10.812  0.00  0.00    +0.000 A 
ATOM      4  C   UNL     1      44.963   4.186  11.013  0.00  0.00    +0.000 A 
ATOM      5  N   UNL     1      45.247   3.477  12.128  0.00  0.00    +0.000 NA
ATOM      6  C   UNL     1      46.008   4.087  13.068  0.00  0.00    +0.000 A 
ENDROOT
BRANCH   1   8
ATOM      7  N   UNL     1      47.463   7.277  14.122  0.00  0.00    +0.000 N 
ATOM      8  C   UNL     1      47.339   5.921  14.038  0.00  0.00    +0.000 C 
ATOM      9  O   UNL     1      47.887   5.181  14.843  0.00  0.00    +0.000 OA
ATOM     10  H   UNL     1      47.966   7.634  14.927  0.00  0.00    +0.000 HD
ATOM     11  H   UNL     1      46.828   7.909  13.655  0.00  0.00    +0.000 HD
ENDBRANCH   1   8
BRANCH   4  12
ATOM     12  O   UNL     1      44.196   3.592  10.027  0.00  0.00    +0.000 OA
BRANCH  12  13
ATOM     13  C   UNL     1      44.579   4.050   8.725  0.00  0.00    +0.000 C 
BRANCH  13  14
ATOM     14  C   UNL     1      45.508   3.064   8.067  0.00  0.00    +0.000 A 
ATOM     15  C   UNL     1      46.332   3.429   6.998  0.00  0.00    +0.000 A 
ATOM     16  C   UNL     1      47.230   2.506   6.469  0.00  0.00    +0.000 A 
ATOM     17  C   UNL     1      47.279   1.241   7.029  0.00  0.00    +0.000 A 
ATOM     18  N   UNL     1      46.498   0.849   8.057  0.00  0.00    +0.000 NA
ATOM     19  C   UNL     1      45.631   1.766   8.550  0.00  0.00    +0.000 A 
ENDBRANCH  13  14
ENDBRANCH  12  13
ENDBRANCH   4  12
TORSDOF 4
ENDMDL
MODEL 3
REMARK VINA RESULT:    -5.895      4.058      6.454
REMARK INTER + INTRA:          -7.636
REMARK INTER:                  -7.278
REMARK INTRA:                  -0.358
REMARK UNBOUND:                -0.362
REMARK  Name = 
REMARK  4 active torsions:
REMARK  status: ('A' for Active; 'I' for Inactive)
REMARK    1  A    between atoms: C_2  and  C_4
REMARK    2  A    between atoms: C_7  and  O_8
REMARK    3  A    between atoms: O_8  and  C_9
REMARK    4  A    between atoms: C_9  and  C_10
REMARK                            x       y       z     vdW  Elec       q    Type
REMARK                         _______ _______ _______ _____ _____    ______ ____
ROOT
ATOM      1  C   UNL     1      45.395   5.476  12.298  0.00  0.00    +0.000 A 
ATOM      2  C   UNL     1      46.300   6.037  13.199  0.00  0.00    +0.000 A 
ATOM      3  C   UNL     1      47.039   5.196  14.038  0.00  0.00    +0.000 A 
ATOM      4  C   UNL     1      46.824   3.828  13.959  0.00  0.00    +0.000 A 
ATOM      5  N   UNL     1      45.961   3.261  13.087  0.00  0.00    +0.000 NA
ATOM      6  C   UNL     1      45.261   4.097  12.282  0.00  0.00    +0.000 A 
ENDROOT
BRANCH   1   8
ATOM      7  N   UNL     1      43.626   5.610  10.637  0.00  0.00    +0.000 N 
ATOM      8  C   UNL     1      44.545   6.280  11.390  0.00  0.00    +0.000 C 
ATOM      9  O   UNL     1      44.644   7.498  11.338  0.00  0.00    +0.000 OA
ATOM     10  H   UNL     1      42.986   6.180  10.095  0.00  0.00    +0.000 HD
ATOM     11  H   UNL     1      43.339   4.664  10.845  0.00  0.00    +0.000 HD
ENDBRANCH   1   8
BRANCH   4  12
ATOM     12  O   UNL     1      47.548   3.006  14.802  0.00  0.00    +0.000 OA
BRANCH  12  13
ATOM     13  C   UNL     1      47.558   3.516  16.142  0.00  0.00    +0.000 C 
BRANCH  13  14
ATOM     14  C   UNL     1      48.914   3.329  16.771  0.00  0.00    +0.000 A 
ATOM     15  C   UNL     1      49.578   2.099  16.736  0.00  0.00    +0.000 A 
ATOM     16  C   UNL     1      50.862   1.990  17.263  0.00  0.00    +0.000 A 
ATOM     17  C   UNL     1      51.446   3.120  17.809  0.00  0.00    +0.000 A 
ATOM     18  N   UNL     1      50.837   4.323  17.866  0.00  0.00    +0.000 NA
ATOM     19  C   UNL     1      49.587   4.399  17.349  0.00  0.00    +0.000 A 
ENDBRANCH  13  14
ENDBRANCH  12  13
ENDBRANCH   4  12
TORSDOF 4
ENDMDL
MODEL 4
REMARK VINA RESULT:    -5.892      3.389      5.724
REMARK INTER + INTRA:          -7.632
REMARK INTER:                  -7.285
REMARK INTRA:                  -0.346
REMARK UNBOUND:                -0.362
REMARK  Name = 
REMARK  4 active torsions:
REMARK  status: ('A' for Active; 'I' for Inactive)
REMARK    1  A    between atoms: C_2  and  C_4
REMARK    2  A    between atoms: C_7  and  O_8
REMARK    3  A    between atoms: O_8  and  C_9
REMARK    4  A    between atoms: C_9  and  C_10
REMARK                            x       y       z     vdW  Elec       q    Type
REMARK                         _______ _______ _______ _____ _____    ______ ____
ROOT
ATOM      1  C   UNL     1      44.870   4.262  11.830  0.00  0.00    +0.000 A 
ATOM      2  C   UNL     1      45.100   5.589  12.195  0.00  0.00    +0.000 A 
ATOM      3  C   UNL     1      45.990   5.866  13.237  0.00  0.00    +0.000 A 
ATOM      4  C   UNL     1      46.598   4.802  13.889  0.00  0.00    +0.000 A 
ATOM      5  N   UNL     1      46.399   3.510  13.546  0.00  0.00    +0.000 NA
ATOM      6  C   UNL     1      45.535   3.269  12.530  0.00  0.00    +0.000 A 
ENDROOT
BRANCH   1   8
ATOM      7  N   UNL     1      43.796   4.702   9.694  0.00  0.00    +0.000 N 
ATOM      8  C   UNL     1      43.925   3.863  10.762  0.00  0.00    +0.000 C 
ATOM      9  O   UNL     1      43.307   2.809  10.821  0.00  0.00    +0.000 OA
ATOM     10  H   UNL     1      43.223   4.370   8.926  0.00  0.00    +0.000 HD
ATOM     11  H   UNL     1      44.470   5.426   9.488  0.00  0.00    +0.000 HD
ENDBRANCH   1   8
BRANCH   4  12
ATOM     12  O   UNL     1      47.465   5.087  14.928  0.00  0.00    +0.000 OA
BRANCH  12  13
ATOM     13  C   UNL     1      47.217   4.242  16.058  0.00  0.00    +0.000 C 
BRANCH  13  14
ATOM     14  C   UNL     1      48.494   3.597  16.529  0.00  0.00    +0.000 A 
ATOM     15  C   UNL     1      49.401   4.275  17.351  0.00  0.00    +0.000 A 
ATOM     16  C   UNL     1      50.532   3.617  17.824  0.00  0.00    +0.000 A 
ATOM     17  C   UNL     1      50.723   2.294  17.461  0.00  0.00    +0.000 A 
ATOM     18  N   UNL     1      49.876   1.607  16.667  0.00  0.00    +0.000 NA
ATOM     19  C   UNL     1      48.785   2.273  16.218  0.00  0.00    +0.000 A 
ENDBRANCH  13  14
ENDBRANCH  12  13
ENDBRANCH   4  12
TORSDOF 4
ENDMDL
MODEL 5
REMARK VINA RESULT:    -5.509      4.590      8.487
REMARK INTER + INTRA:          -7.159
REMARK INTER:                  -6.837
REMARK INTRA:                  -0.322
REMARK UNBOUND:                -0.362
REMARK  Name = 
REMARK  4 active torsions:
REMARK  status: ('A' for Active; 'I' for Inactive)
REMARK    1  A    between atoms: C_2  and  C_4
REMARK    2  A    between atoms: C_7  and  O_8
REMARK    3  A    between atoms: O_8  and  C_9
REMARK    4  A    between atoms: C_9  and  C_10
REMARK                            x       y       z     vdW  Elec       q    Type
REMARK                         _______ _______ _______ _____ _____    ______ ____
ROOT
ATOM      1  C   UNL     1      48.159   4.757  18.301  0.00  0.00    +0.000 A 
ATOM      2  C   UNL     1      48.529   5.545  17.211  0.00  0.00    +0.000 A 
ATOM      3  C   UNL     1      48.056   5.215  15.937  0.00  0.00    +0.000 A 
ATOM      4  C   UNL     1      47.250   4.093  15.801  0.00  0.00    +0.000 A 
ATOM      5  N   UNL     1      46.871   3.321  16.843  0.00  0.00    +0.000 NA
ATOM      6  C   UNL     1      47.339   3.665  18.067  0.00  0.00    +0.000 A 
ENDROOT
BRANCH   1   8
ATOM      7  N   UNL     1      48.612   3.950  20.549  0.00  0.00    +0.000 N 
ATOM      8  C   UNL     1      48.630   5.004  19.683  0.00  0.00    +0.000 C 
ATOM      9  O   UNL     1      49.045   6.103  20.027  0.00  0.00    +0.000 OA
ATOM     10  H   UNL     1      49.029   4.108  21.460  0.00  0.00    +0.000 HD
ATOM     11  H   UNL     1      48.533   2.993  20.236  0.00  0.00    +0.000 HD
ENDBRANCH   1   8
BRANCH   4  12
ATOM     12  O   UNL     1      46.800   3.767  14.535  0.00  0.00    +0.000 OA
BRANCH  12  13
ATOM     13  C   UNL     1      46.501   4.941  13.771  0.00  0.00    +0.000 C 
BRANCH  13  14
ATOM     14  C   UNL     1      45.267   4.729  12.933  0.00  0.00    +0.000 A 
ATOM     15  C   UNL     1      45.114   3.600  12.123  0.00  0.00    +0.000 A 
ATOM     16  C   UNL     1      43.926   3.405  11.424  0.00  0.00    +0.000 A 
ATOM     17  C   UNL     1      42.922   4.350  11.558  0.00  0.00    +0.000 A 
ATOM     18  N   UNL     1      43.033   5.455  12.325  0.00  0.00    +0.000 NA
ATOM     19  C   UNL     1      44.201   5.620  12.992  0.00  0.00    +0.000 A 
ENDBRANCH  13  14
ENDBRANCH  12  13
ENDBRANCH   4  12
TORSDOF 4
ENDMDL
MODEL 6
REMARK VINA RESULT:    -5.465      4.077      6.139
REMARK INTER + INTRA:          -7.105
REMARK INTER:                  -6.775
REMARK INTRA:                  -0.330
REMARK UNBOUND:                -0.362
REMARK  Name = 
REMARK  4 active torsions:
REMARK  status: ('A' for Active; 'I' for Inactive)
REMARK    1  A    between atoms: C_2  and  C_4
REMARK    2  A    between atoms: C_7  and  O_8
REMARK    3  A    between atoms: O_8  and  C_9
REMARK    4  A    between atoms: C_9  and  C_10
REMARK                            x       y       z     vdW  Elec       q    Type
REMARK                         _______ _______ _______ _____ _____    ______ ____
ROOT
ATOM      1  C   UNL     1      44.707   5.466  11.939  0.00  0.00    +0.000 A 
ATOM      2  C   UNL     1      45.791   6.343  11.963  0.00  0.00    +0.000 A 
ATOM      3  C   UNL     1      46.849   6.100  12.846  0.00  0.00    +0.000 A 
ATOM      4  C   UNL     1      46.767   5.000  13.688  0.00  0.00    +0.000 A 
ATOM      5  N   UNL     1      45.732   4.131  13.676  0.00  0.00    +0.000 NA
ATOM      6  C   UNL     1      44.723   4.386  12.808  0.00  0.00    +0.000 A 
ENDROOT
BRANCH   1   8
ATOM      7  N   UNL     1      42.798   6.792  11.230  0.00  0.00    +0.000 N 
ATOM      8  C   UNL     1      43.527   5.652  11.064  0.00  0.00    +0.000 C 
ATOM      9  O   UNL     1      43.235   4.829  10.208  0.00  0.00    +0.000 OA
ATOM     10  H   UNL     1      42.054   6.953  10.560  0.00  0.00    +0.000 HD
ATOM     11  H   UNL     1      43.154   7.596  11.727  0.00  0.00    +0.000 HD
ENDBRANCH   1   8
BRANCH   4  12
ATOM     12  O   UNL     1      47.810   4.776  14.567  0.00  0.00    +0.000 OA
BRANCH  12  13
ATOM     13  C   UNL     1      47.347   4.173  15.781  0.00  0.00    +0.000 C 
BRANCH  13  14
ATOM     14  C   UNL     1      47.876   4.917  16.979  0.00  0.00    +0.000 A 
ATOM     15  C   UNL     1      47.141   5.022  18.164  0.00  0.00    +0.000 A 
ATOM     16  C   UNL     1      47.699   5.654  19.272  0.00  0.00    +0.000 A 
ATOM     17  C   UNL     1      48.982   6.161  19.161  0.00  0.00    +0.000 A 
ATOM     18  N   UNL     1      49.722   6.084  18.035  0.00  0.00    +0.000 NA
ATOM     19  C   UNL     1      49.153   5.467  16.972  0.00  0.00    +0.000 A 
ENDBRANCH  13  14
ENDBRANCH  12  13
ENDBRANCH   4  12
TORSDOF 4
ENDMDL
MODEL 7
REMARK VINA RESULT:    -5.397      3.368      4.934
REMARK INTER + INTRA:          -7.021
REMARK INTER:                  -6.598
REMARK INTRA:                  -0.422
REMARK UNBOUND:                -0.362
REMARK  Name = 
REMARK  4 active torsions:
REMARK  status: ('A' for Active; 'I' for Inactive)
REMARK    1  A    between atoms: C_2  and  C_4
REMARK    2  A    between atoms: C_7  and  O_8
REMARK    3  A    between atoms: O_8  and  C_9
REMARK    4  A    between atoms: C_9  and  C_10
REMARK                            x       y       z     vdW  Elec       q    Type
REMARK                         _______ _______ _______ _____ _____    ______ ____
ROOT
ATOM      1  C   UNL     1      44.366   4.208  11.441  0.00  0.00    +0.000 A 
ATOM      2  C   UNL     1      45.101   5.065  10.622  0.00  0.00    +0.000 A 
ATOM      3  C   UNL     1      45.505   6.308  11.120  0.00  0.00    +0.000 A 
ATOM      4  C   UNL     1      45.134   6.655  12.412  0.00  0.00    +0.000 A 
ATOM      5  N   UNL     1      44.431   5.838  13.227  0.00  0.00    +0.000 NA
ATOM      6  C   UNL     1      44.057   4.637  12.722  0.00  0.00    +0.000 A 
ENDROOT
BRANCH   1   8
ATOM      7  N   UNL     1      44.572   2.246  10.021  0.00  0.00    +0.000 N 
ATOM      8  C   UNL     1      43.867   2.885  10.999  0.00  0.00    +0.000 C 
ATOM      9  O   UNL     1      42.880   2.375  11.509  0.00  0.00    +0.000 OA
ATOM     10  H   UNL     1      44.278   1.301   9.799  0.00  0.00    +0.000 HD
ATOM     11  H   UNL     1      45.516   2.507   9.774  0.00  0.00    +0.000 HD
ENDBRANCH   1   8
BRANCH   4  12
ATOM     12  O   UNL     1      45.525   7.891  12.889  0.00  0.00    +0.000 OA
BRANCH  12  13
ATOM     13  C   UNL     1      46.911   8.139  12.620  0.00  0.00    +0.000 C 
BRANCH  13  14
ATOM     14  C   UNL     1      47.742   7.890  13.851  0.00  0.00    +0.000 A 
ATOM     15  C   UNL     1      47.875   8.854  14.856  0.00  0.00    +0.000 A 
ATOM     16  C   UNL     1      48.591   8.555  16.012  0.00  0.00    +0.000 A 
ATOM     17  C   UNL     1      49.155   7.295  16.128  0.00  0.00    +0.000 A 
ATOM     18  N   UNL     1      49.054   6.341  15.180  0.00  0.00    +0.000 NA
ATOM     19  C   UNL     1      48.354   6.660  14.065  0.00  0.00    +0.000 A 
ENDBRANCH  13  14
ENDBRANCH  12  13
ENDBRANCH   4  12
TORSDOF 4
ENDMDL
MODEL 8
REMARK VINA RESULT:    -5.281      3.602      5.434
REMARK INTER + INTRA:          -6.878
REMARK INTER:                  -6.483
REMARK INTRA:                  -0.395
REMARK UNBOUND:                -0.362
REMARK  Name = 
REMARK  4 active torsions:
REMARK  status: ('A' for Active; 'I' for Inactive)
REMARK    1  A    between atoms: C_2  and  C_4
REMARK    2  A    between atoms: C_7  and  O_8
REMARK    3  A    between atoms: O_8  and  C_9
REMARK    4  A    between atoms: C_9  and  C_10
REMARK                            x       y       z     vdW  Elec       q    Type
REMARK                         _______ _______ _______ _____ _____    ______ ____
ROOT
ATOM      1  C   UNL     1      44.855   4.070  11.403  0.00  0.00    +0.000 A 
ATOM      2  C   UNL     1      45.269   5.139  10.609  0.00  0.00    +0.000 A 
ATOM      3  C   UNL     1      45.969   6.197  11.198  0.00  0.00    +0.000 A 
ATOM      4  C   UNL     1      46.205   6.154  12.565  0.00  0.00    +0.000 A 
ATOM      5  N   UNL     1      45.822   5.124  13.353  0.00  0.00    +0.000 NA
ATOM      6  C   UNL     1      45.151   4.110  12.756  0.00  0.00    +0.000 A 
ENDROOT
BRANCH   1   8
ATOM      7  N   UNL     1      44.633   2.212   9.851  0.00  0.00    +0.000 N 
ATOM      8  C   UNL     1      44.084   2.918  10.881  0.00  0.00    +0.000 C 
ATOM      9  O   UNL     1      43.011   2.596  11.372  0.00  0.00    +0.000 OA
ATOM     10  H   UNL     1      44.143   1.369   9.571  0.00  0.00    +0.000 HD
ATOM     11  H   UNL     1      45.611   2.281   9.607  0.00  0.00    +0.000 HD
ENDBRANCH   1   8
BRANCH   4  12
ATOM     12  O   UNL     1      46.884   7.212  13.141  0.00  0.00    +0.000 OA
BRANCH  12  13
ATOM     13  C   UNL     1      48.034   6.758  13.865  0.00  0.00    +0.000 C 
BRANCH  13  14
ATOM     14  C   UNL     1      49.293   7.351  13.288  0.00  0.00    +0.000 A 
ATOM     15  C   UNL     1      49.472   7.495  11.908  0.00  0.00    +0.000 A 
ATOM     16  C   UNL     1      50.618   8.117  11.420  0.00  0.00    +0.000 A 
ATOM     17  C   UNL     1      51.553   8.580  12.330  0.00  0.00    +0.000 A 
ATOM     18  N   UNL     1      51.419   8.457  13.667  0.00  0.00    +0.000 NA
ATOM     19  C   UNL     1      50.296   7.845  14.114  0.00  0.00    +0.000 A 
ENDBRANCH  13  14
ENDBRANCH  12  13
ENDBRANCH   4  12
TORSDOF 4
ENDMDL
MODEL 9
REMARK VINA RESULT:    -5.148      3.699      5.814
REMARK INTER + INTRA:          -6.714
REMARK INTER:                  -6.255
REMARK INTRA:                  -0.460
REMARK UNBOUND:                -0.362
REMARK  Name = 
REMARK  4 active torsions:
REMARK  status: ('A' for Active; 'I' for Inactive)
REMARK    1  A    between atoms: C_2  and  C_4
REMARK    2  A    between atoms: C_7  and  O_8
REMARK    3  A    between atoms: O_8  and  C_9
REMARK    4  A    between atoms: C_9  and  C_10
REMARK                            x       y       z     vdW  Elec       q    Type
REMARK                         _______ _______ _______ _____ _____    ______ ____
ROOT
ATOM      1  C   UNL     1      44.983   4.377  11.744  0.00  0.00    +0.000 A 
ATOM      2  C   UNL     1      45.259   5.277  10.716  0.00  0.00    +0.000 A 
ATOM      3  C   UNL     1      46.211   6.281  10.922  0.00  0.00    +0.000 A 
ATOM      4  C   UNL     1      46.832   6.358  12.161  0.00  0.00    +0.000 A 
ATOM      5  N   UNL     1      46.589   5.491  13.169  0.00  0.00    +0.000 NA
ATOM      6  C   UNL     1      45.666   4.525  12.941  0.00  0.00    +0.000 A 
ENDROOT
BRANCH   1   8
ATOM      7  N   UNL     1      43.796   2.495  12.723  0.00  0.00    +0.000 N 
ATOM      8  C   UNL     1      43.973   3.299  11.636  0.00  0.00    +0.000 C 
ATOM      9  O   UNL     1      43.304   3.154  10.622  0.00  0.00    +0.000 OA
ATOM     10  H   UNL     1      43.035   1.828  12.671  0.00  0.00    +0.000 HD
ATOM     11  H   UNL     1      44.128   2.747  13.644  0.00  0.00    +0.000 HD
ENDBRANCH   1   8
BRANCH   4  12
ATOM     12  O   UNL     1      47.761   7.362  12.360  0.00  0.00    +0.000 OA
BRANCH  12  13
ATOM     13  C   UNL     1      47.288   8.327  13.308  0.00  0.00    +0.000 C 
BRANCH  13  14
ATOM     14  C   UNL     1      46.617   9.477  12.604  0.00  0.00    +0.000 A 
ATOM     15  C   UNL     1      47.346  10.412  11.862  0.00  0.00    +0.000 A 
ATOM     16  C   UNL     1      46.679  11.416  11.165  0.00  0.00    +0.000 A 
ATOM     17  C   UNL     1      45.296  11.453  11.230  0.00  0.00    +0.000 A 
ATOM     18  N   UNL     1      44.557  10.573  11.938  0.00  0.00    +0.000 NA
ATOM     19  C   UNL     1      45.233   9.609  12.608  0.00  0.00    +0.000 A 
ENDBRANCH  13  14
ENDBRANCH  12  13
ENDBRANCH   4  12
TORSDOF 4
ENDMDL
