MODEL 1
REMARK VINA RESULT:    -6.764      0.000      0.000
REMARK INTER + INTRA:          -8.755
REMARK INTER:                  -8.543
REMARK INTRA:                  -0.211
REMARK UNBOUND:                -0.211
REMARK  Name = 
REMARK  6 active torsions:
REMARK  status: ('A' for Active; 'I' for Inactive)
REMARK    1  A    between atoms: C_1  and  O_2
REMARK    2  A    between atoms: O_2  and  C_3
REMARK    3  A    between atoms: C_5  and  C_6
REMARK    4  A    between atoms: C_6  and  N_7
REMARK    5  A    between atoms: C_14  and  C_15
REMARK    6  A    between atoms: C_21  and  O_22
REMARK                            x       y       z     vdW  Elec       q    Type
REMARK                         _______ _______ _______ _____ _____    ______ ____
ROOT
ATOM      1  N   UNL     1      46.233   7.213  11.983  0.00  0.00    +0.000 N 
ATOM      2  C   UNL     1      46.965   6.114  12.399  0.00  0.00    +0.000 A 
ATOM      3  C   UNL     1      48.196   6.545  12.818  0.00  0.00    +0.000 A 
ATOM      4  C   UNL     1      48.204   7.948  12.701  0.00  0.00    +0.000 A 
ATOM      5  N   UNL     1      49.235   8.769  13.009  0.00  0.00    +0.000 NA
ATOM      6  C   UNL     1      49.000  10.076  12.863  0.00  0.00    +0.000 A 
ATOM      7  C   UNL     1      47.806  10.617  12.437  0.00  0.00    +0.000 A 
ATOM      8  C   UNL     1      46.738   9.771  12.094  0.00  0.00    +0.000 A 
ATOM      9  C   UNL     1      46.951   8.379  12.227  0.00  0.00    +0.000 A 
ENDROOT
BRANCH   8  10
ATOM     10  C   UNL     1      45.458  10.409  11.709  0.00  0.00    +0.000 C 
ATOM     11  N   UNL     1      44.384  10.195  12.533  0.00  0.00    +0.000 N 
ATOM     12  O   UNL     1      45.330  11.077  10.696  0.00  0.00    +0.000 OA
ATOM     13  H   UNL     1      44.430   9.698  13.412  0.00  0.00    +0.000 HD
ATOM     14  H   UNL     1      43.497  10.598  12.258  0.00  0.00    +0.000 HD
ENDBRANCH   8  10
BRANCH   1  15
ATOM     15  C   UNL     1      44.930   7.028  11.346  0.00  0.00    +0.000 C 
BRANCH  15  18
ATOM     16  C   UNL     1      44.043   3.413  10.444  0.00  0.00    +0.000 A 
ATOM     17  C   UNL     1      44.529   4.723  10.358  0.00  0.00    +0.000 A 
ATOM     18  C   UNL     1      44.455   5.598  11.461  0.00  0.00    +0.000 A 
ATOM     19  C   UNL     1      43.905   5.131  12.660  0.00  0.00    +0.000 A 
ATOM     20  C   UNL     1      43.413   3.830  12.758  0.00  0.00    +0.000 A 
ATOM     21  C   UNL     1      43.482   2.982  11.653  0.00  0.00    +0.000 A 
BRANCH  16  23
ATOM     22  C   UNL     1      45.322   2.081   8.929  0.00  0.00    +0.000 C 
ATOM     23  O   UNL     1      44.058   2.494   9.428  0.00  0.00    +0.000 OA
ENDBRANCH  16  23
BRANCH  21  24
ATOM     24  O   UNL     1      42.988   1.708  11.747  0.00  0.00    +0.000 OA
ATOM     25  H   UNL     1      43.455   1.141  11.115  0.00  0.00    +0.000 HD
ENDBRANCH  21  24
ENDBRANCH  15  18
ENDBRANCH   1  15
TORSDOF 5
ENDMDL
MODEL 2
REMARK VINA RESULT:    -6.622      2.213      3.452
REMARK INTER + INTRA:          -8.576
REMARK INTER:                  -7.885
REMARK INTRA:                  -0.691
REMARK UNBOUND:                -0.211
REMARK  Name = 
REMARK  6 active torsions:
REMARK  status: ('A' for Active; 'I' for Inactive)
REMARK    1  A    between atoms: C_1  and  O_2
REMARK    2  A    between atoms: O_2  and  C_3
REMARK    3  A    between atoms: C_5  and  C_6
REMARK    4  A    between atoms: C_6  and  N_7
REMARK    5  A    between atoms: C_14  and  C_15
REMARK    6  A    between atoms: C_21  and  O_22
REMARK                            x       y       z     vdW  Elec       q    Type
REMARK                         _______ _______ _______ _____ _____    ______ ____
ROOT
ATOM      1  N   UNL     1      45.191   6.897  12.546  0.00  0.00    +0.000 N 
ATOM      2  C   UNL     1      44.920   8.059  11.843  0.00  0.00    +0.000 A 
ATOM      3  C   UNL     1      46.002   8.893  11.947  0.00  0.00    +0.000 A 
ATOM      4  C   UNL     1      46.981   8.208  12.693  0.00  0.00    +0.000 A 
ATOM      5  N   UNL     1      48.203   8.680  13.028  0.00  0.00    +0.000 NA
ATOM      6  C   UNL     1      48.988   7.834  13.702  0.00  0.00    +0.000 A 
ATOM      7  C   UNL     1      48.635   6.549  14.057  0.00  0.00    +0.000 A 
ATOM      8  C   UNL     1      47.359   6.060  13.733  0.00  0.00    +0.000 A 
ATOM      9  C   UNL     1      46.497   6.929  13.026  0.00  0.00    +0.000 A 
ENDROOT
BRANCH   8  10
ATOM     10  C   UNL     1      47.061   4.651  14.079  0.00  0.00    +0.000 C 
ATOM     11  N   UNL     1      46.351   4.431  15.231  0.00  0.00    +0.000 N 
ATOM     12  O   UNL     1      47.440   3.708  13.404  0.00  0.00    +0.000 OA
ATOM     13  H   UNL     1      45.961   5.162  15.808  0.00  0.00    +0.000 HD
ATOM     14  H   UNL     1      46.173   3.469  15.493  0.00  0.00    +0.000 HD
ENDBRANCH   8  10
BRANCH   1  15
ATOM     15  C   UNL     1      44.148   5.888  12.727  0.00  0.00    +0.000 C 
BRANCH  15  18
ATOM     16  C   UNL     1      44.681   4.053   9.408  0.00  0.00    +0.000 A 
ATOM     17  C   UNL     1      44.623   5.067  10.370  0.00  0.00    +0.000 A 
ATOM     18  C   UNL     1      44.264   4.782  11.704  0.00  0.00    +0.000 A 
ATOM     19  C   UNL     1      43.985   3.458  12.061  0.00  0.00    +0.000 A 
ATOM     20  C   UNL     1      44.034   2.439  11.111  0.00  0.00    +0.000 A 
ATOM     21  C   UNL     1      44.378   2.740   9.794  0.00  0.00    +0.000 A 
BRANCH  16  23
ATOM     22  C   UNL     1      46.360   4.031   7.709  0.00  0.00    +0.000 C 
ATOM     23  O   UNL     1      45.006   4.230   8.088  0.00  0.00    +0.000 OA
ENDBRANCH  16  23
BRANCH  21  24
ATOM     24  O   UNL     1      44.415   1.740   8.859  0.00  0.00    +0.000 OA
ATOM     25  H   UNL     1      44.392   2.135   7.974  0.00  0.00    +0.000 HD
ENDBRANCH  21  24
ENDBRANCH  15  18
ENDBRANCH   1  15
TORSDOF 5
ENDMDL
MODEL 3
REMARK VINA RESULT:    -6.616      2.647      4.000
REMARK INTER + INTRA:          -8.568
REMARK INTER:                  -8.276
REMARK INTRA:                  -0.291
REMARK UNBOUND:                -0.211
REMARK  Name = 
REMARK  6 active torsions:
REMARK  status: ('A' for Active; 'I' for Inactive)
REMARK    1  A    between atoms: C_1  and  O_2
REMARK    2  A    between atoms: O_2  and  C_3
REMARK    3  A    between atoms: C_5  and  C_6
REMARK    4  A    between atoms: C_6  and  N_7
REMARK    5  A    between atoms: C_14  and  C_15
REMARK    6  A    between atoms: C_21  and  O_22
REMARK                            x       y       z     vdW  Elec       q    Type
REMARK                         _______ _______ _______ _____ _____    ______ ____
ROOT
ATOM      1  N   UNL     1      45.394   3.988  12.076  0.00  0.00    +0.000 N 
ATOM      2  C   UNL     1      46.260   3.168  12.780  0.00  0.00    +0.000 A 
ATOM      3  C   UNL     1      47.078   3.956  13.547  0.00  0.00    +0.000 A 
ATOM      4  C   UNL     1      46.674   5.290  13.345  0.00  0.00    +0.000 A 
ATOM      5  N   UNL     1      47.225   6.386  13.916  0.00  0.00    +0.000 NA
ATOM      6  C   UNL     1      46.645   7.551  13.614  0.00  0.00    +0.000 A 
ATOM      7  C   UNL     1      45.551   7.694  12.788  0.00  0.00    +0.000 A 
ATOM      8  C   UNL     1      44.987   6.563  12.173  0.00  0.00    +0.000 A 
ATOM      9  C   UNL     1      45.579   5.312  12.462  0.00  0.00    +0.000 A 
ENDROOT
BRANCH   8  10
ATOM     10  C   UNL     1      43.773   6.769  11.351  0.00  0.00    +0.000 C 
ATOM     11  N   UNL     1      43.555   8.033  10.868  0.00  0.00    +0.000 N 
ATOM     12  O   UNL     1      42.970   5.879  11.121  0.00  0.00    +0.000 OA
ATOM     13  H   UNL     1      44.202   8.802  10.974  0.00  0.00    +0.000 HD
ATOM     14  H   UNL     1      42.709   8.190  10.334  0.00  0.00    +0.000 HD
ENDBRANCH   8  10
BRANCH   1  15
ATOM     15  C   UNL     1      44.506   3.419  11.063  0.00  0.00    +0.000 C 
BRANCH  15  18
ATOM     16  C   UNL     1      46.277   2.230   7.882  0.00  0.00    +0.000 A 
ATOM     17  C   UNL     1      45.633   2.225   9.125  0.00  0.00    +0.000 A 
ATOM     18  C   UNL     1      45.151   3.421   9.697  0.00  0.00    +0.000 A 
ATOM     19  C   UNL     1      45.307   4.620   8.992  0.00  0.00    +0.000 A 
ATOM     20  C   UNL     1      45.952   4.640   7.756  0.00  0.00    +0.000 A 
ATOM     21  C   UNL     1      46.434   3.450   7.210  0.00  0.00    +0.000 A 
BRANCH  16  23
ATOM     22  C   UNL     1      46.531  -0.144   7.829  0.00  0.00    +0.000 C 
ATOM     23  O   UNL     1      46.789   1.128   7.251  0.00  0.00    +0.000 OA
ENDBRANCH  16  23
BRANCH  21  24
ATOM     24  O   UNL     1      47.077   3.472   6.001  0.00  0.00    +0.000 OA
ATOM     25  H   UNL     1      47.778   2.804   6.005  0.00  0.00    +0.000 HD
ENDBRANCH  21  24
ENDBRANCH  15  18
ENDBRANCH   1  15
TORSDOF 5
ENDMDL
MODEL 4
REMARK VINA RESULT:    -6.523      3.071      6.390
REMARK INTER + INTRA:          -8.450
REMARK INTER:                  -7.600
REMARK INTRA:                  -0.850
REMARK UNBOUND:                -0.211
REMARK  Name = 
REMARK  6 active torsions:
REMARK  status: ('A' for Active; 'I' for Inactive)
REMARK    1  A    between atoms: C_1  and  O_2
REMARK    2  A    between atoms: O_2  and  C_3
REMARK    3  A    between atoms: C_5  and  C_6
REMARK    4  A    between atoms: C_6  and  N_7
REMARK    5  A    between atoms: C_14  and  C_15
REMARK    6  A    between atoms: C_21  and  O_22
REMARK                            x       y       z     vdW  Elec       q    Type
REMARK                         _______ _______ _______ _____ _____    ______ ____
ROOT
ATOM      1  N   UNL     1      45.268   5.625  10.360  0.00  0.00    +0.000 N 
ATOM      2  C   UNL     1      45.921   5.543   9.141  0.00  0.00    +0.000 A 
ATOM      3  C   UNL     1      45.765   4.273   8.649  0.00  0.00    +0.000 A 
ATOM      4  C   UNL     1      44.956   3.572   9.564  0.00  0.00    +0.000 A 
ATOM      5  N   UNL     1      44.563   2.282   9.457  0.00  0.00    +0.000 NA
ATOM      6  C   UNL     1      43.755   1.838  10.424  0.00  0.00    +0.000 A 
ATOM      7  C   UNL     1      43.311   2.597  11.485  0.00  0.00    +0.000 A 
ATOM      8  C   UNL     1      43.733   3.931  11.617  0.00  0.00    +0.000 A 
ATOM      9  C   UNL     1      44.596   4.434  10.617  0.00  0.00    +0.000 A 
ENDROOT
BRANCH   8  10
ATOM     10  C   UNL     1      43.170   4.717  12.739  0.00  0.00    +0.000 C 
ATOM     11  N   UNL     1      42.396   5.800  12.412  0.00  0.00    +0.000 N 
ATOM     12  O   UNL     1      43.391   4.454  13.909  0.00  0.00    +0.000 OA
ATOM     13  H   UNL     1      42.128   6.045  11.469  0.00  0.00    +0.000 HD
ATOM     14  H   UNL     1      42.036   6.364  13.172  0.00  0.00    +0.000 HD
ENDBRANCH   8  10
BRANCH   1  15
ATOM     15  C   UNL     1      45.397   6.828  11.181  0.00  0.00    +0.000 C 
BRANCH  15  18
ATOM     16  C   UNL     1      47.883   6.041  13.986  0.00  0.00    +0.000 A 
ATOM     17  C   UNL     1      46.733   6.029  13.187  0.00  0.00    +0.000 A 
ATOM     18  C   UNL     1      46.659   6.801  12.009  0.00  0.00    +0.000 A 
ATOM     19  C   UNL     1      47.767   7.569  11.633  0.00  0.00    +0.000 A 
ATOM     20  C   UNL     1      48.916   7.595  12.423  0.00  0.00    +0.000 A 
ATOM     21  C   UNL     1      48.968   6.836  13.591  0.00  0.00    +0.000 A 
BRANCH  16  23
ATOM     22  C   UNL     1      47.119   4.300  15.430  0.00  0.00    +0.000 C 
ATOM     23  O   UNL     1      48.046   5.339  15.150  0.00  0.00    +0.000 OA
ENDBRANCH  16  23
BRANCH  21  24
ATOM     24  O   UNL     1      50.093   6.871  14.371  0.00  0.00    +0.000 OA
ATOM     25  H   UNL     1      50.546   6.017  14.309  0.00  0.00    +0.000 HD
ENDBRANCH  21  24
ENDBRANCH  15  18
ENDBRANCH   1  15
TORSDOF 5
ENDMDL
MODEL 5
REMARK VINA RESULT:    -6.225      3.497      4.964
REMARK INTER + INTRA:          -8.074
REMARK INTER:                  -7.721
REMARK INTRA:                  -0.353
REMARK UNBOUND:                -0.211
REMARK  Name = 
REMARK  6 active torsions:
REMARK  status: ('A' for Active; 'I' for Inactive)
REMARK    1  A    between atoms: C_1  and  O_2
REMARK    2  A    between atoms: O_2  and  C_3
REMARK    3  A    between atoms: C_5  and  C_6
REMARK    4  A    between atoms: C_6  and  N_7
REMARK    5  A    between atoms: C_14  and  C_15
REMARK    6  A    between atoms: C_21  and  O_22
REMARK                            x       y       z     vdW  Elec       q    Type
REMARK                         _______ _______ _______ _____ _____    ______ ____
ROOT
ATOM      1  N   UNL     1      47.622   5.110  14.206  0.00  0.00    +0.000 N 
ATOM      2  C   UNL     1      47.973   6.105  13.309  0.00  0.00    +0.000 A 
ATOM      3  C   UNL     1      48.591   7.115  14.000  0.00  0.00    +0.000 A 
ATOM      4  C   UNL     1      48.664   6.709  15.346  0.00  0.00    +0.000 A 
ATOM      5  N   UNL     1      49.199   7.420  16.366  0.00  0.00    +0.000 NA
ATOM      6  C   UNL     1      49.202   6.815  17.557  0.00  0.00    +0.000 A 
ATOM      7  C   UNL     1      48.711   5.549  17.796  0.00  0.00    +0.000 A 
ATOM      8  C   UNL     1      48.132   4.814  16.748  0.00  0.00    +0.000 A 
ATOM      9  C   UNL     1      48.104   5.425  15.473  0.00  0.00    +0.000 A 
ENDROOT
BRANCH   8  10
ATOM     10  C   UNL     1      47.684   3.434  17.048  0.00  0.00    +0.000 C 
ATOM     11  N   UNL     1      48.624   2.441  16.954  0.00  0.00    +0.000 N 
ATOM     12  O   UNL     1      46.532   3.161  17.341  0.00  0.00    +0.000 OA
ATOM     13  H   UNL     1      49.605   2.600  16.769  0.00  0.00    +0.000 HD
ATOM     14  H   UNL     1      48.318   1.491  17.123  0.00  0.00    +0.000 HD
ENDBRANCH   8  10
BRANCH   1  15
ATOM     15  C   UNL     1      46.814   3.975  13.763  0.00  0.00    +0.000 C 
BRANCH  15  18
ATOM     16  C   UNL     1      44.419   4.171  10.780  0.00  0.00    +0.000 A 
ATOM     17  C   UNL     1      45.426   3.734  11.650  0.00  0.00    +0.000 A 
ATOM     18  C   UNL     1      45.690   4.417  12.855  0.00  0.00    +0.000 A 
ATOM     19  C   UNL     1      44.914   5.534  13.184  0.00  0.00    +0.000 A 
ATOM     20  C   UNL     1      43.912   5.983  12.324  0.00  0.00    +0.000 A 
ATOM     21  C   UNL     1      43.672   5.304  11.131  0.00  0.00    +0.000 A 
BRANCH  16  23
ATOM     22  C   UNL     1      44.632   2.298   9.314  0.00  0.00    +0.000 C 
ATOM     23  O   UNL     1      44.095   3.585   9.585  0.00  0.00    +0.000 OA
ENDBRANCH  16  23
BRANCH  21  24
ATOM     24  O   UNL     1      42.696   5.752  10.282  0.00  0.00    +0.000 OA
ATOM     25  H   UNL     1      41.878   5.263  10.456  0.00  0.00    +0.000 HD
ENDBRANCH  21  24
ENDBRANCH  15  18
ENDBRANCH   1  15
TORSDOF 5
ENDMDL
MODEL 6
REMARK VINA RESULT:    -6.091      3.154      4.249
REMARK INTER + INTRA:          -7.904
REMARK INTER:                  -7.009
REMARK INTRA:                  -0.895
REMARK UNBOUND:                -0.211
REMARK  Name = 
REMARK  6 active torsions:
REMARK  status: ('A' for Active; 'I' for Inactive)
REMARK    1  A    between atoms: C_1  and  O_2
REMARK    2  A    between atoms: O_2  and  C_3
REMARK    3  A    between atoms: C_5  and  C_6
REMARK    4  A    between atoms: C_6  and  N_7
REMARK    5  A    between atoms: C_14  and  C_15
REMARK    6  A    between atoms: C_21  and  O_22
REMARK                            x       y       z     vdW  Elec       q    Type
REMARK                         _______ _______ _______ _____ _____    ______ ____
ROOT
ATOM      1  N   UNL     1      48.615   8.013  12.704  0.00  0.00    +0.000 N 
ATOM      2  C   UNL     1      49.130   7.874  11.426  0.00  0.00    +0.000 A 
ATOM      3  C   UNL     1      50.475   8.135  11.469  0.00  0.00    +0.000 A 
ATOM      4  C   UNL     1      50.802   8.395  12.814  0.00  0.00    +0.000 A 
ATOM      5  N   UNL     1      52.031   8.701  13.291  0.00  0.00    +0.000 NA
ATOM      6  C   UNL     1      52.116   8.861  14.615  0.00  0.00    +0.000 A 
ATOM      7  C   UNL     1      51.060   8.730  15.492  0.00  0.00    +0.000 A 
ATOM      8  C   UNL     1      49.777   8.435  15.002  0.00  0.00    +0.000 A 
ATOM      9  C   UNL     1      49.645   8.266  13.604  0.00  0.00    +0.000 A 
ENDROOT
BRANCH   8  10
ATOM     10  C   UNL     1      48.696   8.238  15.995  0.00  0.00    +0.000 C 
ATOM     11  N   UNL     1      47.777   9.248  16.121  0.00  0.00    +0.000 N 
ATOM     12  O   UNL     1      48.618   7.247  16.701  0.00  0.00    +0.000 OA
ATOM     13  H   UNL     1      47.750  10.070  15.535  0.00  0.00    +0.000 HD
ATOM     14  H   UNL     1      47.055   9.137  16.823  0.00  0.00    +0.000 HD
ENDBRANCH   8  10
BRANCH   1  15
ATOM     15  C   UNL     1      47.172   7.936  12.925  0.00  0.00    +0.000 C 
BRANCH  15  18
ATOM     16  C   UNL     1      46.818   4.199  13.686  0.00  0.00    +0.000 A 
ATOM     17  C   UNL     1      47.232   5.535  13.750  0.00  0.00    +0.000 A 
ATOM     18  C   UNL     1      46.682   6.508  12.890  0.00  0.00    +0.000 A 
ATOM     19  C   UNL     1      45.692   6.122  11.978  0.00  0.00    +0.000 A 
ATOM     20  C   UNL     1      45.275   4.794  11.900  0.00  0.00    +0.000 A 
ATOM     21  C   UNL     1      45.839   3.843  12.749  0.00  0.00    +0.000 A 
BRANCH  16  23
ATOM     22  C   UNL     1      47.653   3.489  15.808  0.00  0.00    +0.000 C 
ATOM     23  O   UNL     1      47.300   3.182  14.467  0.00  0.00    +0.000 OA
ENDBRANCH  16  23
BRANCH  21  24
ATOM     24  O   UNL     1      45.436   2.537  12.664  0.00  0.00    +0.000 OA
ATOM     25  H   UNL     1      45.643   2.088  13.497  0.00  0.00    +0.000 HD
ENDBRANCH  21  24
ENDBRANCH  15  18
ENDBRANCH   1  15
TORSDOF 5
ENDMDL
MODEL 7
REMARK VINA RESULT:    -5.989      1.853      2.599
REMARK INTER + INTRA:          -7.777
REMARK INTER:                  -7.853
REMARK INTRA:                   0.077
REMARK UNBOUND:                -0.211
REMARK  Name = 
REMARK  6 active torsions:
REMARK  status: ('A' for Active; 'I' for Inactive)
REMARK    1  A    between atoms: C_1  and  O_2
REMARK    2  A    between atoms: O_2  and  C_3
REMARK    3  A    between atoms: C_5  and  C_6
REMARK    4  A    between atoms: C_6  and  N_7
REMARK    5  A    between atoms: C_14  and  C_15
REMARK    6  A    between atoms: C_21  and  O_22
REMARK                            x       y       z     vdW  Elec       q    Type
REMARK                         _______ _______ _______ _____ _____    ______ ____
ROOT
ATOM      1  N   UNL     1      46.289   6.334  12.857  0.00  0.00    +0.000 N 
ATOM      2  C   UNL     1      46.044   5.155  13.541  0.00  0.00    +0.000 A 
ATOM      3  C   UNL     1      47.067   4.947  14.429  0.00  0.00    +0.000 A 
ATOM      4  C   UNL     1      47.937   6.049  14.321  0.00  0.00    +0.000 A 
ATOM      5  N   UNL     1      49.078   6.235  15.023  0.00  0.00    +0.000 NA
ATOM      6  C   UNL     1      49.723   7.382  14.790  0.00  0.00    +0.000 A 
ATOM      7  C   UNL     1      49.302   8.354  13.908  0.00  0.00    +0.000 A 
ATOM      8  C   UNL     1      48.131   8.158  13.158  0.00  0.00    +0.000 A 
ATOM      9  C   UNL     1      47.425   6.952  13.372  0.00  0.00    +0.000 A 
ENDROOT
BRANCH   8  10
ATOM     10  C   UNL     1      47.691   9.265  12.278  0.00  0.00    +0.000 C 
ATOM     11  N   UNL     1      48.605   9.743  11.376  0.00  0.00    +0.000 N 
ATOM     12  O   UNL     1      46.581   9.766  12.349  0.00  0.00    +0.000 OA
ATOM     13  H   UNL     1      49.520   9.342  11.225  0.00  0.00    +0.000 HD
ATOM     14  H   UNL     1      48.324  10.523  10.794  0.00  0.00    +0.000 HD
ENDBRANCH   8  10
BRANCH   1  15
ATOM     15  C   UNL     1      45.431   6.726  11.740  0.00  0.00    +0.000 C 
BRANCH  15  18
ATOM     16  C   UNL     1      45.433   4.413   8.688  0.00  0.00    +0.000 A 
ATOM     17  C   UNL     1      45.740   5.467   9.556  0.00  0.00    +0.000 A 
ATOM     18  C   UNL     1      45.139   5.557  10.829  0.00  0.00    +0.000 A 
ATOM     19  C   UNL     1      44.241   4.559  11.226  0.00  0.00    +0.000 A 
ATOM     20  C   UNL     1      43.923   3.507  10.368  0.00  0.00    +0.000 A 
ATOM     21  C   UNL     1      44.516   3.440   9.108  0.00  0.00    +0.000 A 
BRANCH  16  23
ATOM     22  C   UNL     1      47.060   3.370   7.286  0.00  0.00    +0.000 C 
ATOM     23  O   UNL     1      45.951   4.245   7.431  0.00  0.00    +0.000 OA
ENDBRANCH  16  23
BRANCH  21  24
ATOM     24  O   UNL     1      44.193   2.412   8.263  0.00  0.00    +0.000 OA
ATOM     25  H   UNL     1      43.492   2.706   7.662  0.00  0.00    +0.000 HD
ENDBRANCH  21  24
ENDBRANCH  15  18
ENDBRANCH   1  15
TORSDOF 5
ENDMDL
MODEL 8
REMARK VINA RESULT:    -5.870      2.803      3.620
REMARK INTER + INTRA:          -7.626
REMARK INTER:                  -6.823
REMARK INTRA:                  -0.802
REMARK UNBOUND:                -0.211
REMARK  Name = 
REMARK  6 active torsions:
REMARK  status: ('A' for Active; 'I' for Inactive)
REMARK    1  A    between atoms: C_1  and  O_2
REMARK    2  A    between atoms: O_2  and  C_3
REMARK    3  A    between atoms: C_5  and  C_6
REMARK    4  A    between atoms: C_6  and  N_7
REMARK    5  A    between atoms: C_14  and  C_15
REMARK    6  A    between atoms: C_21  and  O_22
REMARK                            x       y       z     vdW  Elec       q    Type
REMARK                         _______ _______ _______ _____ _____    ______ ____
ROOT
ATOM      1  N   UNL     1      48.542   7.929  12.667  0.00  0.00    +0.000 N 
ATOM      2  C   UNL     1      49.042   7.774  11.385  0.00  0.00    +0.000 A 
ATOM      3  C   UNL     1      50.382   8.061  11.404  0.00  0.00    +0.000 A 
ATOM      4  C   UNL     1      50.723   8.352  12.739  0.00  0.00    +0.000 A 
ATOM      5  N   UNL     1      51.952   8.691  13.192  0.00  0.00    +0.000 NA
ATOM      6  C   UNL     1      52.053   8.878  14.512  0.00  0.00    +0.000 A 
ATOM      7  C   UNL     1      51.012   8.745  15.406  0.00  0.00    +0.000 A 
ATOM      8  C   UNL     1      49.728   8.417  14.940  0.00  0.00    +0.000 A 
ATOM      9  C   UNL     1      49.580   8.219  13.548  0.00  0.00    +0.000 A 
ENDROOT
BRANCH   8  10
ATOM     10  C   UNL     1      48.665   8.221  15.952  0.00  0.00    +0.000 C 
ATOM     11  N   UNL     1      47.698   9.189  16.034  0.00  0.00    +0.000 N 
ATOM     12  O   UNL     1      48.640   7.265  16.710  0.00  0.00    +0.000 OA
ATOM     13  H   UNL     1      47.626   9.977  15.405  0.00  0.00    +0.000 HD
ATOM     14  H   UNL     1      46.987   9.080  16.747  0.00  0.00    +0.000 HD
ENDBRANCH   8  10
BRANCH   1  15
ATOM     15  C   UNL     1      47.103   7.831  12.910  0.00  0.00    +0.000 C 
BRANCH  15  18
ATOM     16  C   UNL     1      45.225   4.737  11.658  0.00  0.00    +0.000 A 
ATOM     17  C   UNL     1      45.720   6.043  11.752  0.00  0.00    +0.000 A 
ATOM     18  C   UNL     1      46.616   6.407  12.778  0.00  0.00    +0.000 A 
ATOM     19  C   UNL     1      47.026   5.432  13.696  0.00  0.00    +0.000 A 
ATOM     20  C   UNL     1      46.537   4.129  13.616  0.00  0.00    +0.000 A 
ATOM     21  C   UNL     1      45.641   3.790  12.603  0.00  0.00    +0.000 A 
BRANCH  16  23
ATOM     22  C   UNL     1      44.798   4.223   9.365  0.00  0.00    +0.000 C 
ATOM     23  O   UNL     1      44.344   4.290  10.709  0.00  0.00    +0.000 OA
ENDBRANCH  16  23
BRANCH  21  24
ATOM     24  O   UNL     1      45.152   2.512  12.532  0.00  0.00    +0.000 OA
ATOM     25  H   UNL     1      45.421   2.118  11.689  0.00  0.00    +0.000 HD
ENDBRANCH  21  24
ENDBRANCH  15  18
ENDBRANCH   1  15
TORSDOF 5
ENDMDL
MODEL 9
REMARK VINA RESULT:    -5.761      3.491      4.530
REMARK INTER + INTRA:          -7.488
REMARK INTER:                  -6.743
REMARK INTRA:                  -0.745
REMARK UNBOUND:                -0.211
REMARK  Name = 
REMARK  6 active torsions:
REMARK  status: ('A' for Active; 'I' for Inactive)
REMARK    1  A    between atoms: C_1  and  O_2
REMARK    2  A    between atoms: O_2  and  C_3
REMARK    3  A    between atoms: C_5  and  C_6
REMARK    4  A    between atoms: C_6  and  N_7
REMARK    5  A    between atoms: C_14  and  C_15
REMARK    6  A    between atoms: C_21  and  O_22
REMARK                            x       y       z     vdW  Elec       q    Type
REMARK                         _______ _______ _______ _____ _____    ______ ____
ROOT
ATOM      1  N   UNL     1      47.698   5.317  14.537  0.00  0.00    +0.000 N 
ATOM      2  C   UNL     1      47.186   4.048  14.754  0.00  0.00    +0.000 A 
ATOM      3  C   UNL     1      47.325   3.745  16.083  0.00  0.00    +0.000 A 
ATOM      4  C   UNL     1      47.892   4.873  16.707  0.00  0.00    +0.000 A 
ATOM      5  N   UNL     1      48.198   4.989  18.020  0.00  0.00    +0.000 NA
ATOM      6  C   UNL     1      48.687   6.173  18.400  0.00  0.00    +0.000 A 
ATOM      7  C   UNL     1      48.884   7.248  17.559  0.00  0.00    +0.000 A 
ATOM      8  C   UNL     1      48.591   7.127  16.190  0.00  0.00    +0.000 A 
ATOM      9  C   UNL     1      48.079   5.886  15.748  0.00  0.00    +0.000 A 
ENDROOT
BRANCH   8  10
ATOM     10  C   UNL     1      48.759   8.334  15.348  0.00  0.00    +0.000 C 
ATOM     11  N   UNL     1      47.738   9.249  15.362  0.00  0.00    +0.000 N 
ATOM     12  O   UNL     1      49.736   8.519  14.641  0.00  0.00    +0.000 OA
ATOM     13  H   UNL     1      46.926   9.187  15.961  0.00  0.00    +0.000 HD
ATOM     14  H   UNL     1      47.829  10.060  14.762  0.00  0.00    +0.000 HD
ENDBRANCH   8  10
BRANCH   1  15
ATOM     15  C   UNL     1      47.813   5.838  13.176  0.00  0.00    +0.000 C 
BRANCH  15  18
ATOM     16  C   UNL     1      44.459   5.717  11.332  0.00  0.00    +0.000 A 
ATOM     17  C   UNL     1      45.682   5.329  11.891  0.00  0.00    +0.000 A 
ATOM     18  C   UNL     1      46.467   6.244  12.623  0.00  0.00    +0.000 A 
ATOM     19  C   UNL     1      45.994   7.549  12.804  0.00  0.00    +0.000 A 
ATOM     20  C   UNL     1      44.779   7.949  12.248  0.00  0.00    +0.000 A 
ATOM     21  C   UNL     1      44.022   7.035  11.516  0.00  0.00    +0.000 A 
BRANCH  16  23
ATOM     22  C   UNL     1      44.201   4.206   9.500  0.00  0.00    +0.000 C 
ATOM     23  O   UNL     1      43.633   4.908  10.596  0.00  0.00    +0.000 OA
ENDBRANCH  16  23
BRANCH  21  24
ATOM     24  O   UNL     1      42.834   7.433  10.961  0.00  0.00    +0.000 OA
ATOM     25  H   UNL     1      43.017   7.947  10.161  0.00  0.00    +0.000 HD
ENDBRANCH  21  24
ENDBRANCH  15  18
ENDBRANCH   1  15
TORSDOF 5
ENDMDL
