MODEL 1
REMARK VINA RESULT:    -7.596      0.000      0.000
REMARK INTER + INTRA:         -11.269
REMARK INTER:                 -10.261
REMARK INTRA:                  -1.009
REMARK UNBOUND:                -1.009
REMARK  Name = 
REMARK  6 active torsions:
REMARK  status: ('A' for Active; 'I' for Inactive)
REMARK    1  A    between atoms: C_2  and  C_3
REMARK    2  A    between atoms: N_10  and  C_11
REMARK    3  A    between atoms: C_11  and  C_12
REMARK    4  A    between atoms: C_15  and  C_16
REMARK    5  A    between atoms: C_16  and  N_17
REMARK    6  A    between atoms: C_18  and  C_20
REMARK                            x       y       z     vdW  Elec       q    Type
REMARK                         _______ _______ _______ _____ _____    ______ ____
ROOT
ATOM      1  C   UNL     1      49.742   6.585  16.446  0.00  0.00    +0.000 A 
ATOM      2  C   UNL     1      50.407   7.595  15.750  0.00  0.00    +0.000 A 
ATOM      3  C   UNL     1      49.973   7.953  14.475  0.00  0.00    +0.000 A 
ATOM      4  C   UNL     1      48.873   7.307  13.908  0.00  0.00    +0.000 A 
ATOM      5  C   UNL     1      48.279   6.301  14.663  0.00  0.00    +0.000 A 
ATOM      6  N   UNL     1      48.674   5.939  15.912  0.00  0.00    +0.000 NA
ENDROOT
BRANCH   1   7
ATOM      7  C   UNL     1      50.212   6.148  17.821  0.00  0.00    +0.000 C 
BRANCH   7  15
ATOM      8  C   UNL     1      51.528   1.918  17.467  0.00  0.00    +0.000 A 
ATOM      9  C   UNL     1      52.286   0.831  17.865  0.00  0.00    +0.000 A 
ATOM     10  C   UNL     1      53.490   1.320  18.416  0.00  0.00    +0.000 A 
ATOM     11  C   UNL     1      53.450   2.689  18.308  0.00  0.00    +0.000 A 
ATOM     12  N   UNL     1      52.234   3.080  17.762  0.00  0.00    +0.000 N 
ATOM     13  C   UNL     1      51.906   4.416  17.487  0.00  0.00    +0.000 C 
ATOM     14  O   UNL     1      52.759   5.163  17.029  0.00  0.00    +0.000 OA
ATOM     15  N   UNL     1      50.638   4.757  17.890  0.00  0.00    +0.000 N 
ATOM     16  H   UNL     1      50.130   4.160  18.532  0.00  0.00    +0.000 HD
BRANCH   8  18
ATOM     17  N   UNL     1      49.312   1.835  16.144  0.00  0.00    +0.000 NA
ATOM     18  C   UNL     1      50.302   1.863  16.749  0.00  0.00    +0.000 C 
ENDBRANCH   8  18
ENDBRANCH   7  15
ENDBRANCH   1   7
BRANCH   4  19
ATOM     19  C   UNL     1      48.372   7.654  12.538  0.00  0.00    +0.000 C 
BRANCH  19  20
ATOM     20  N   UNL     1      47.575   6.593  11.974  0.00  0.00    +0.000 N 
ATOM     21  C   UNL     1      46.289   6.825  11.543  0.00  0.00    +0.000 C 
ATOM     22  O   UNL     1      45.717   7.891  11.748  0.00  0.00    +0.000 OA
ATOM     23  H   UNL     1      48.074   5.786  11.611  0.00  0.00    +0.000 HD
BRANCH  21  24
ATOM     24  C   UNL     1      45.626   5.722  10.839  0.00  0.00    +0.000 A 
ATOM     25  C   UNL     1      45.848   5.529   9.482  0.00  0.00    +0.000 A 
ATOM     26  S   UNL     1      45.042   4.169   8.843  0.00  0.00    +0.000 S 
ATOM     27  C   UNL     1      44.428   3.747  10.374  0.00  0.00    +0.000 A 
ATOM     28  N   UNL     1      43.720   2.599  10.557  0.00  0.00    +0.000 NA
ATOM     29  C   UNL     1      43.340   2.397  11.774  0.00  0.00    +0.000 A 
ATOM     30  N   UNL     1      43.571   3.254  12.818  0.00  0.00    +0.000 N 
ATOM     31  C   UNL     1      44.240   4.444  12.670  0.00  0.00    +0.000 A 
ATOM     32  O   UNL     1      44.356   5.232  13.604  0.00  0.00    +0.000 OA
ATOM     33  C   UNL     1      44.756   4.685  11.337  0.00  0.00    +0.000 A 
ATOM     34  H   UNL     1      43.202   3.061  13.737  0.00  0.00    +0.000 HD
ENDBRANCH  21  24
ENDBRANCH  19  20
ENDBRANCH   4  19
TORSDOF 6
ENDMDL
MODEL 2
REMARK VINA RESULT:    -7.443      1.521      1.604
REMARK INTER + INTRA:         -11.063
REMARK INTER:                 -10.048
REMARK INTRA:                  -1.015
REMARK UNBOUND:                -1.009
REMARK  Name = 
REMARK  6 active torsions:
REMARK  status: ('A' for Active; 'I' for Inactive)
REMARK    1  A    between atoms: C_2  and  C_3
REMARK    2  A    between atoms: N_10  and  C_11
REMARK    3  A    between atoms: C_11  and  C_12
REMARK    4  A    between atoms: C_15  and  C_16
REMARK    5  A    between atoms: C_16  and  N_17
REMARK    6  A    between atoms: C_18  and  C_20
REMARK                            x       y       z     vdW  Elec       q    Type
REMARK                         _______ _______ _______ _____ _____    ______ ____
ROOT
ATOM      1  C   UNL     1      49.198   6.312  17.645  0.00  0.00    +0.000 A 
ATOM      2  C   UNL     1      49.060   7.699  17.664  0.00  0.00    +0.000 A 
ATOM      3  C   UNL     1      48.671   8.368  16.503  0.00  0.00    +0.000 A 
ATOM      4  C   UNL     1      48.416   7.645  15.337  0.00  0.00    +0.000 A 
ATOM      5  C   UNL     1      48.594   6.267  15.401  0.00  0.00    +0.000 A 
ATOM      6  N   UNL     1      48.961   5.588  16.521  0.00  0.00    +0.000 NA
ENDROOT
BRANCH   1   7
ATOM      7  C   UNL     1      49.653   5.559  18.882  0.00  0.00    +0.000 C 
BRANCH   7  15
ATOM      8  C   UNL     1      51.601   1.819  17.480  0.00  0.00    +0.000 A 
ATOM      9  C   UNL     1      52.513   0.787  17.610  0.00  0.00    +0.000 A 
ATOM     10  C   UNL     1      53.625   1.279  18.328  0.00  0.00    +0.000 A 
ATOM     11  C   UNL     1      53.378   2.605  18.585  0.00  0.00    +0.000 A 
ATOM     12  N   UNL     1      52.120   2.948  18.105  0.00  0.00    +0.000 N 
ATOM     13  C   UNL     1      51.593   4.246  18.180  0.00  0.00    +0.000 C 
ATOM     14  O   UNL     1      52.325   5.205  17.977  0.00  0.00    +0.000 OA
ATOM     15  N   UNL     1      50.286   4.278  18.599  0.00  0.00    +0.000 N 
ATOM     16  H   UNL     1      49.871   3.462  19.035  0.00  0.00    +0.000 HD
BRANCH   8  18
ATOM     17  N   UNL     1      49.437   1.765  16.072  0.00  0.00    +0.000 NA
ATOM     18  C   UNL     1      50.402   1.781  16.717  0.00  0.00    +0.000 C 
ENDBRANCH   8  18
ENDBRANCH   7  15
ENDBRANCH   1   7
BRANCH   4  19
ATOM     19  C   UNL     1      48.001   8.319  14.063  0.00  0.00    +0.000 C 
BRANCH  19  20
ATOM     20  N   UNL     1      46.751   7.800  13.564  0.00  0.00    +0.000 N 
ATOM     21  C   UNL     1      46.713   7.001  12.445  0.00  0.00    +0.000 C 
ATOM     22  O   UNL     1      47.704   6.813  11.745  0.00  0.00    +0.000 OA
ATOM     23  H   UNL     1      45.975   7.764  14.217  0.00  0.00    +0.000 HD
BRANCH  21  24
ATOM     24  C   UNL     1      45.418   6.395  12.118  0.00  0.00    +0.000 A 
ATOM     25  C   UNL     1      44.417   7.161  11.537  0.00  0.00    +0.000 A 
ATOM     26  S   UNL     1      43.003   6.280  11.174  0.00  0.00    +0.000 S 
ATOM     27  C   UNL     1      43.706   4.827  11.715  0.00  0.00    +0.000 A 
ATOM     28  N   UNL     1      43.053   3.639  11.587  0.00  0.00    +0.000 NA
ATOM     29  C   UNL     1      43.718   2.618  12.017  0.00  0.00    +0.000 A 
ATOM     30  N   UNL     1      44.959   2.680  12.595  0.00  0.00    +0.000 N 
ATOM     31  C   UNL     1      45.634   3.861  12.785  0.00  0.00    +0.000 A 
ATOM     32  O   UNL     1      46.704   3.896  13.384  0.00  0.00    +0.000 OA
ATOM     33  C   UNL     1      44.965   5.031  12.251  0.00  0.00    +0.000 A 
ATOM     34  H   UNL     1      45.403   1.850  12.956  0.00  0.00    +0.000 HD
ENDBRANCH  21  24
ENDBRANCH  19  20
ENDBRANCH   4  19
TORSDOF 6
ENDMDL
MODEL 3
REMARK VINA RESULT:    -6.974      3.096      8.507
REMARK INTER + INTRA:         -10.429
REMARK INTER:                  -9.323
REMARK INTRA:                  -1.106
REMARK UNBOUND:                -1.009
REMARK  Name = 
REMARK  6 active torsions:
REMARK  status: ('A' for Active; 'I' for Inactive)
REMARK    1  A    between atoms: C_2  and  C_3
REMARK    2  A    between atoms: N_10  and  C_11
REMARK    3  A    between atoms: C_11  and  C_12
REMARK    4  A    between atoms: C_15  and  C_16
REMARK    5  A    between atoms: C_16  and  N_17
REMARK    6  A    between atoms: C_18  and  C_20
REMARK                            x       y       z     vdW  Elec       q    Type
REMARK                         _______ _______ _______ _____ _____    ______ ____
ROOT
ATOM      1  C   UNL     1      48.442   7.765  13.917  0.00  0.00    +0.000 A 
ATOM      2  C   UNL     1      48.358   8.973  14.609  0.00  0.00    +0.000 A 
ATOM      3  C   UNL     1      48.839   9.052  15.916  0.00  0.00    +0.000 A 
ATOM      4  C   UNL     1      49.407   7.928  16.517  0.00  0.00    +0.000 A 
ATOM      5  C   UNL     1      49.436   6.760  15.762  0.00  0.00    +0.000 A 
ATOM      6  N   UNL     1      48.985   6.657  14.484  0.00  0.00    +0.000 NA
ENDROOT
BRANCH   1   7
ATOM      7  C   UNL     1      47.896   7.637  12.507  0.00  0.00    +0.000 C 
BRANCH   7  15
ATOM      8  C   UNL     1      45.342   4.002  12.389  0.00  0.00    +0.000 A 
ATOM      9  C   UNL     1      44.371   3.202  11.813  0.00  0.00    +0.000 A 
ATOM     10  C   UNL     1      43.475   4.041  11.115  0.00  0.00    +0.000 A 
ATOM     11  C   UNL     1      43.902   5.331  11.314  0.00  0.00    +0.000 A 
ATOM     12  N   UNL     1      45.072   5.327  12.064  0.00  0.00    +0.000 N 
ATOM     13  C   UNL     1      45.733   6.497  12.469  0.00  0.00    +0.000 C 
ATOM     14  O   UNL     1      45.077   7.462  12.837  0.00  0.00    +0.000 OA
ATOM     15  N   UNL     1      47.093   6.442  12.286  0.00  0.00    +0.000 N 
ATOM     16  H   UNL     1      47.499   5.727  11.694  0.00  0.00    +0.000 HD
BRANCH   8  18
ATOM     17  N   UNL     1      47.198   3.239  14.013  0.00  0.00    +0.000 NA
ATOM     18  C   UNL     1      46.359   3.567  13.281  0.00  0.00    +0.000 C 
ENDBRANCH   8  18
ENDBRANCH   7  15
ENDBRANCH   1   7
BRANCH   4  19
ATOM     19  C   UNL     1      49.933   7.963  17.921  0.00  0.00    +0.000 C 
BRANCH  19  20
ATOM     20  N   UNL     1      50.932   6.947  18.145  0.00  0.00    +0.000 N 
ATOM     21  C   UNL     1      50.624   5.789  18.821  0.00  0.00    +0.000 C 
ATOM     22  O   UNL     1      49.545   5.630  19.383  0.00  0.00    +0.000 OA
ATOM     23  H   UNL     1      51.741   6.955  17.533  0.00  0.00    +0.000 HD
BRANCH  21  24
ATOM     24  C   UNL     1      51.663   4.754  18.851  0.00  0.00    +0.000 A 
ATOM     25  C   UNL     1      52.816   4.947  19.600  0.00  0.00    +0.000 A 
ATOM     26  S   UNL     1      53.885   3.619  19.565  0.00  0.00    +0.000 S 
ATOM     27  C   UNL     1      52.811   2.711  18.607  0.00  0.00    +0.000 A 
ATOM     28  N   UNL     1      53.074   1.413  18.291  0.00  0.00    +0.000 NA
ATOM     29  C   UNL     1      52.159   0.843  17.580  0.00  0.00    +0.000 A 
ATOM     30  N   UNL     1      51.023   1.460  17.127  0.00  0.00    +0.000 N 
ATOM     31  C   UNL     1      50.739   2.779  17.384  0.00  0.00    +0.000 A 
ATOM     32  O   UNL     1      49.758   3.329  16.892  0.00  0.00    +0.000 OA
ATOM     33  C   UNL     1      51.697   3.446  18.242  0.00  0.00    +0.000 A 
ATOM     34  H   UNL     1      50.371   0.971  16.532  0.00  0.00    +0.000 HD
ENDBRANCH  21  24
ENDBRANCH  19  20
ENDBRANCH   4  19
TORSDOF 6
ENDMDL
MODEL 4
REMARK VINA RESULT:    -6.652      5.170      6.106
REMARK INTER + INTRA:          -9.995
REMARK INTER:                  -9.018
REMARK INTRA:                  -0.977
REMARK UNBOUND:                -1.009
REMARK  Name = 
REMARK  6 active torsions:
REMARK  status: ('A' for Active; 'I' for Inactive)
REMARK    1  A    between atoms: C_2  and  C_3
REMARK    2  A    between atoms: N_10  and  C_11
REMARK    3  A    between atoms: C_11  and  C_12
REMARK    4  A    between atoms: C_15  and  C_16
REMARK    5  A    between atoms: C_16  and  N_17
REMARK    6  A    between atoms: C_18  and  C_20
REMARK                            x       y       z     vdW  Elec       q    Type
REMARK                         _______ _______ _______ _____ _____    ______ ____
ROOT
ATOM      1  C   UNL     1      50.186   8.858  11.474  0.00  0.00    +0.000 A 
ATOM      2  C   UNL     1      49.698   7.555  11.559  0.00  0.00    +0.000 A 
ATOM      3  C   UNL     1      48.411   7.332  12.048  0.00  0.00    +0.000 A 
ATOM      4  C   UNL     1      47.620   8.413  12.442  0.00  0.00    +0.000 A 
ATOM      5  C   UNL     1      48.191   9.678  12.339  0.00  0.00    +0.000 A 
ATOM      6  N   UNL     1      49.437   9.925  11.856  0.00  0.00    +0.000 NA
ENDROOT
BRANCH   1   7
ATOM      7  C   UNL     1      51.594   9.131  10.978  0.00  0.00    +0.000 C 
BRANCH   7  15
ATOM      8  C   UNL     1      53.785   5.982   8.735  0.00  0.00    +0.000 A 
ATOM      9  C   UNL     1      54.560   4.838   8.665  0.00  0.00    +0.000 A 
ATOM     10  C   UNL     1      55.368   4.791   9.823  0.00  0.00    +0.000 A 
ATOM     11  C   UNL     1      55.090   5.924  10.548  0.00  0.00    +0.000 A 
ATOM     12  N   UNL     1      54.090   6.651   9.915  0.00  0.00    +0.000 N 
ATOM     13  C   UNL     1      53.614   7.883  10.390  0.00  0.00    +0.000 C 
ATOM     14  O   UNL     1      54.401   8.693  10.858  0.00  0.00    +0.000 OA
ATOM     15  N   UNL     1      52.244   7.979  10.367  0.00  0.00    +0.000 N 
ATOM     16  H   UNL     1      51.676   7.147  10.254  0.00  0.00    +0.000 HD
BRANCH   8  18
ATOM     17  N   UNL     1      52.248   6.865   6.857  0.00  0.00    +0.000 NA
ATOM     18  C   UNL     1      52.927   6.471   7.712  0.00  0.00    +0.000 C 
ENDBRANCH   8  18
ENDBRANCH   7  15
ENDBRANCH   1   7
BRANCH   4  19
ATOM     19  C   UNL     1      46.233   8.225  12.979  0.00  0.00    +0.000 C 
BRANCH  19  20
ATOM     20  N   UNL     1      45.746   6.887  12.750  0.00  0.00    +0.000 N 
ATOM     21  C   UNL     1      44.747   6.644  11.836  0.00  0.00    +0.000 C 
ATOM     22  O   UNL     1      44.131   7.553  11.288  0.00  0.00    +0.000 OA
ATOM     23  H   UNL     1      46.357   6.123  13.021  0.00  0.00    +0.000 HD
BRANCH  21  24
ATOM     24  C   UNL     1      44.441   5.236  11.562  0.00  0.00    +0.000 A 
ATOM     25  C   UNL     1      43.689   4.498  12.466  0.00  0.00    +0.000 A 
ATOM     26  S   UNL     1      43.382   2.899  11.957  0.00  0.00    +0.000 S 
ATOM     27  C   UNL     1      44.182   3.160  10.477  0.00  0.00    +0.000 A 
ATOM     28  N   UNL     1      44.200   2.204   9.508  0.00  0.00    +0.000 NA
ATOM     29  C   UNL     1      44.821   2.550   8.430  0.00  0.00    +0.000 A 
ATOM     30  N   UNL     1      45.456   3.751   8.245  0.00  0.00    +0.000 N 
ATOM     31  C   UNL     1      45.502   4.726   9.212  0.00  0.00    +0.000 A 
ATOM     32  O   UNL     1      46.152   5.754   9.051  0.00  0.00    +0.000 OA
ATOM     33  C   UNL     1      44.755   4.418  10.415  0.00  0.00    +0.000 A 
ATOM     34  H   UNL     1      45.967   3.940   7.396  0.00  0.00    +0.000 HD
ENDBRANCH  21  24
ENDBRANCH  19  20
ENDBRANCH   4  19
TORSDOF 6
ENDMDL
MODEL 5
REMARK VINA RESULT:    -6.295      1.771      2.390
REMARK INTER + INTRA:          -9.512
REMARK INTER:                  -8.747
REMARK INTRA:                  -0.765
REMARK UNBOUND:                -1.009
REMARK  Name = 
REMARK  6 active torsions:
REMARK  status: ('A' for Active; 'I' for Inactive)
REMARK    1  A    between atoms: C_2  and  C_3
REMARK    2  A    between atoms: N_10  and  C_11
REMARK    3  A    between atoms: C_11  and  C_12
REMARK    4  A    between atoms: C_15  and  C_16
REMARK    5  A    between atoms: C_16  and  N_17
REMARK    6  A    between atoms: C_18  and  C_20
REMARK                            x       y       z     vdW  Elec       q    Type
REMARK                         _______ _______ _______ _____ _____    ______ ____
ROOT
ATOM      1  C   UNL     1      49.944   7.989  16.099  0.00  0.00    +0.000 A 
ATOM      2  C   UNL     1      49.893   7.075  15.048  0.00  0.00    +0.000 A 
ATOM      3  C   UNL     1      48.845   7.138  14.130  0.00  0.00    +0.000 A 
ATOM      4  C   UNL     1      47.860   8.118  14.266  0.00  0.00    +0.000 A 
ATOM      5  C   UNL     1      47.978   8.979  15.352  0.00  0.00    +0.000 A 
ATOM      6  N   UNL     1      48.994   8.948  16.254  0.00  0.00    +0.000 NA
ENDROOT
BRANCH   1   7
ATOM      7  C   UNL     1      51.053   7.926  17.133  0.00  0.00    +0.000 C 
BRANCH   7  15
ATOM      8  C   UNL     1      52.022   3.648  17.847  0.00  0.00    +0.000 A 
ATOM      9  C   UNL     1      52.794   2.639  18.395  0.00  0.00    +0.000 A 
ATOM     10  C   UNL     1      54.119   3.116  18.501  0.00  0.00    +0.000 A 
ATOM     11  C   UNL     1      54.127   4.387  17.982  0.00  0.00    +0.000 A 
ATOM     12  N   UNL     1      52.838   4.749  17.609  0.00  0.00    +0.000 N 
ATOM     13  C   UNL     1      52.525   5.977  17.007  0.00  0.00    +0.000 C 
ATOM     14  O   UNL     1      53.283   6.447  16.170  0.00  0.00    +0.000 OA
ATOM     15  N   UNL     1      51.409   6.574  17.541  0.00  0.00    +0.000 N 
ATOM     16  H   UNL     1      51.037   6.257  18.429  0.00  0.00    +0.000 HD
BRANCH   8  18
ATOM     17  N   UNL     1      49.555   3.427  17.118  0.00  0.00    +0.000 NA
ATOM     18  C   UNL     1      50.659   3.537  17.457  0.00  0.00    +0.000 C 
ENDBRANCH   8  18
ENDBRANCH   7  15
ENDBRANCH   1   7
BRANCH   4  19
ATOM     19  C   UNL     1      46.711   8.222  13.308  0.00  0.00    +0.000 C 
BRANCH  19  20
ATOM     20  N   UNL     1      46.096   6.940  13.066  0.00  0.00    +0.000 N 
ATOM     21  C   UNL     1      45.157   6.781  12.075  0.00  0.00    +0.000 C 
ATOM     22  O   UNL     1      44.696   7.736  11.455  0.00  0.00    +0.000 OA
ATOM     23  H   UNL     1      46.592   6.122  13.406  0.00  0.00    +0.000 HD
BRANCH  21  24
ATOM     24  C   UNL     1      44.716   5.408  11.805  0.00  0.00    +0.000 A 
ATOM     25  C   UNL     1      43.989   4.710  12.760  0.00  0.00    +0.000 A 
ATOM     26  S   UNL     1      43.513   3.153  12.253  0.00  0.00    +0.000 S 
ATOM     27  C   UNL     1      44.200   3.385  10.713  0.00  0.00    +0.000 A 
ATOM     28  N   UNL     1      44.057   2.454   9.731  0.00  0.00    +0.000 NA
ATOM     29  C   UNL     1      44.609   2.776   8.608  0.00  0.00    +0.000 A 
ATOM     30  N   UNL     1      45.318   3.927   8.388  0.00  0.00    +0.000 N 
ATOM     31  C   UNL     1      45.525   4.872   9.362  0.00  0.00    +0.000 A 
ATOM     32  O   UNL     1      46.239   5.851   9.162  0.00  0.00    +0.000 OA
ATOM     33  C   UNL     1      44.863   4.596  10.621  0.00  0.00    +0.000 A 
ATOM     34  H   UNL     1      45.768   4.096   7.500  0.00  0.00    +0.000 HD
ENDBRANCH  21  24
ENDBRANCH  19  20
ENDBRANCH   4  19
TORSDOF 6
ENDMDL
MODEL 6
REMARK VINA RESULT:    -6.157      1.878      2.481
REMARK INTER + INTRA:          -9.326
REMARK INTER:                  -8.233
REMARK INTRA:                  -1.092
REMARK UNBOUND:                -1.009
REMARK  Name = 
REMARK  6 active torsions:
REMARK  status: ('A' for Active; 'I' for Inactive)
REMARK    1  A    between atoms: C_2  and  C_3
REMARK    2  A    between atoms: N_10  and  C_11
REMARK    3  A    between atoms: C_11  and  C_12
REMARK    4  A    between atoms: C_15  and  C_16
REMARK    5  A    between atoms: C_16  and  N_17
REMARK    6  A    between atoms: C_18  and  C_20
REMARK                            x       y       z     vdW  Elec       q    Type
REMARK                         _______ _______ _______ _____ _____    ______ ____
ROOT
ATOM      1  C   UNL     1      51.755   6.216  17.305  0.00  0.00    +0.000 A 
ATOM      2  C   UNL     1      50.384   6.081  17.093  0.00  0.00    +0.000 A 
ATOM      3  C   UNL     1      49.798   6.675  15.976  0.00  0.00    +0.000 A 
ATOM      4  C   UNL     1      50.587   7.393  15.076  0.00  0.00    +0.000 A 
ATOM      5  C   UNL     1      51.943   7.493  15.372  0.00  0.00    +0.000 A 
ATOM      6  N   UNL     1      52.542   6.915  16.447  0.00  0.00    +0.000 NA
ENDROOT
BRANCH   1   7
ATOM      7  C   UNL     1      52.417   5.611  18.529  0.00  0.00    +0.000 C 
BRANCH   7  15
ATOM      8  C   UNL     1      52.773   1.238  17.818  0.00  0.00    +0.000 A 
ATOM      9  C   UNL     1      53.320  -0.007  18.074  0.00  0.00    +0.000 A 
ATOM     10  C   UNL     1      54.647   0.185  18.515  0.00  0.00    +0.000 A 
ATOM     11  C   UNL     1      54.886   1.537  18.481  0.00  0.00    +0.000 A 
ATOM     12  N   UNL     1      53.732   2.207  18.092  0.00  0.00    +0.000 N 
ATOM     13  C   UNL     1      53.668   3.599  17.924  0.00  0.00    +0.000 C 
ATOM     14  O   UNL     1      54.611   4.187  17.414  0.00  0.00    +0.000 OA
ATOM     15  N   UNL     1      52.546   4.160  18.480  0.00  0.00    +0.000 N 
ATOM     16  H   UNL     1      51.987   3.634  19.142  0.00  0.00    +0.000 HD
BRANCH   8  18
ATOM     17  N   UNL     1      50.458   1.713  16.776  0.00  0.00    +0.000 NA
ATOM     18  C   UNL     1      51.499   1.486  17.236  0.00  0.00    +0.000 C 
ENDBRANCH   8  18
ENDBRANCH   7  15
ENDBRANCH   1   7
BRANCH   4  19
ATOM     19  C   UNL     1      50.003   8.055  13.864  0.00  0.00    +0.000 C 
BRANCH  19  20
ATOM     20  N   UNL     1      48.844   7.350  13.374  0.00  0.00    +0.000 N 
ATOM     21  C   UNL     1      47.573   7.798  13.652  0.00  0.00    +0.000 C 
ATOM     22  O   UNL     1      47.364   8.718  14.437  0.00  0.00    +0.000 OA
ATOM     23  H   UNL     1      48.983   6.735  12.579  0.00  0.00    +0.000 HD
BRANCH  21  24
ATOM     24  C   UNL     1      46.473   7.104  12.973  0.00  0.00    +0.000 A 
ATOM     25  C   UNL     1      45.604   7.812  12.154  0.00  0.00    +0.000 A 
ATOM     26  S   UNL     1      44.424   6.837  11.403  0.00  0.00    +0.000 S 
ATOM     27  C   UNL     1      45.078   5.424  12.089  0.00  0.00    +0.000 A 
ATOM     28  N   UNL     1      44.591   4.194  11.767  0.00  0.00    +0.000 NA
ATOM     29  C   UNL     1      45.201   3.213  12.345  0.00  0.00    +0.000 A 
ATOM     30  N   UNL     1      46.229   3.349  13.240  0.00  0.00    +0.000 N 
ATOM     31  C   UNL     1      46.721   4.571  13.628  0.00  0.00    +0.000 A 
ATOM     32  O   UNL     1      47.582   4.666  14.498  0.00  0.00    +0.000 OA
ATOM     33  C   UNL     1      46.122   5.705  12.953  0.00  0.00    +0.000 A 
ATOM     34  H   UNL     1      46.629   2.542  13.695  0.00  0.00    +0.000 HD
ENDBRANCH  21  24
ENDBRANCH  19  20
ENDBRANCH   4  19
TORSDOF 6
ENDMDL
MODEL 7
REMARK VINA RESULT:    -5.961      4.775      6.941
REMARK INTER + INTRA:          -9.061
REMARK INTER:                  -8.058
REMARK INTRA:                  -1.003
REMARK UNBOUND:                -1.009
REMARK  Name = 
REMARK  6 active torsions:
REMARK  status: ('A' for Active; 'I' for Inactive)
REMARK    1  A    between atoms: C_2  and  C_3
REMARK    2  A    between atoms: N_10  and  C_11
REMARK    3  A    between atoms: C_11  and  C_12
REMARK    4  A    between atoms: C_15  and  C_16
REMARK    5  A    between atoms: C_16  and  N_17
REMARK    6  A    between atoms: C_18  and  C_20
REMARK                            x       y       z     vdW  Elec       q    Type
REMARK                         _______ _______ _______ _____ _____    ______ ____
ROOT
ATOM      1  C   UNL     1      50.211   8.709  12.441  0.00  0.00    +0.000 A 
ATOM      2  C   UNL     1      49.301   8.798  11.389  0.00  0.00    +0.000 A 
ATOM      3  C   UNL     1      47.939   8.637  11.642  0.00  0.00    +0.000 A 
ATOM      4  C   UNL     1      47.497   8.396  12.944  0.00  0.00    +0.000 A 
ATOM      5  C   UNL     1      48.473   8.306  13.931  0.00  0.00    +0.000 A 
ATOM      6  N   UNL     1      49.805   8.469  13.715  0.00  0.00    +0.000 NA
ENDROOT
BRANCH   1   7
ATOM      7  C   UNL     1      51.702   8.845  12.194  0.00  0.00    +0.000 C 
BRANCH   7  15
ATOM      8  C   UNL     1      53.338   9.286   8.085  0.00  0.00    +0.000 A 
ATOM      9  C   UNL     1      53.389   8.957   6.742  0.00  0.00    +0.000 A 
ATOM     10  C   UNL     1      53.013   7.602   6.613  0.00  0.00    +0.000 A 
ATOM     11  C   UNL     1      52.780   7.131   7.881  0.00  0.00    +0.000 A 
ATOM     12  N   UNL     1      52.936   8.162   8.800  0.00  0.00    +0.000 N 
ATOM     13  C   UNL     1      52.804   7.987  10.186  0.00  0.00    +0.000 C 
ATOM     14  O   UNL     1      53.245   6.974  10.709  0.00  0.00    +0.000 OA
ATOM     15  N   UNL     1      52.063   8.974  10.788  0.00  0.00    +0.000 N 
ATOM     16  H   UNL     1      51.488   9.593  10.229  0.00  0.00    +0.000 HD
BRANCH   8  18
ATOM     17  N   UNL     1      54.089  11.516   9.148  0.00  0.00    +0.000 NA
ATOM     18  C   UNL     1      53.762  10.515   8.659  0.00  0.00    +0.000 C 
ENDBRANCH   8  18
ENDBRANCH   7  15
ENDBRANCH   1   7
BRANCH   4  19
ATOM     19  C   UNL     1      46.044   8.211  13.264  0.00  0.00    +0.000 C 
BRANCH  19  20
ATOM     20  N   UNL     1      45.591   6.878  12.951  0.00  0.00    +0.000 N 
ATOM     21  C   UNL     1      44.704   6.655  11.924  0.00  0.00    +0.000 C 
ATOM     22  O   UNL     1      44.150   7.576  11.330  0.00  0.00    +0.000 OA
ATOM     23  H   UNL     1      46.170   6.109  13.272  0.00  0.00    +0.000 HD
BRANCH  21  24
ATOM     24  C   UNL     1      44.435   5.253  11.585  0.00  0.00    +0.000 A 
ATOM     25  C   UNL     1      43.654   4.471  12.424  0.00  0.00    +0.000 A 
ATOM     26  S   UNL     1      43.400   2.887  11.843  0.00  0.00    +0.000 S 
ATOM     27  C   UNL     1      44.265   3.215  10.415  0.00  0.00    +0.000 A 
ATOM     28  N   UNL     1      44.346   2.296   9.414  0.00  0.00    +0.000 NA
ATOM     29  C   UNL     1      45.013   2.691   8.381  0.00  0.00    +0.000 A 
ATOM     30  N   UNL     1      45.634   3.907   8.270  0.00  0.00    +0.000 N 
ATOM     31  C   UNL     1      45.617   4.847   9.272  0.00  0.00    +0.000 A 
ATOM     32  O   UNL     1      46.255   5.891   9.180  0.00  0.00    +0.000 OA
ATOM     33  C   UNL     1      44.818   4.483  10.426  0.00  0.00    +0.000 A 
ATOM     34  H   UNL     1      46.182   4.136   7.454  0.00  0.00    +0.000 HD
ENDBRANCH  21  24
ENDBRANCH  19  20
ENDBRANCH   4  19
TORSDOF 6
ENDMDL
MODEL 8
REMARK VINA RESULT:    -5.862      2.792      3.854
REMARK INTER + INTRA:          -8.927
REMARK INTER:                  -8.076
REMARK INTRA:                  -0.851
REMARK UNBOUND:                -1.009
REMARK  Name = 
REMARK  6 active torsions:
REMARK  status: ('A' for Active; 'I' for Inactive)
REMARK    1  A    between atoms: C_2  and  C_3
REMARK    2  A    between atoms: N_10  and  C_11
REMARK    3  A    between atoms: C_11  and  C_12
REMARK    4  A    between atoms: C_15  and  C_16
REMARK    5  A    between atoms: C_16  and  N_17
REMARK    6  A    between atoms: C_18  and  C_20
REMARK                            x       y       z     vdW  Elec       q    Type
REMARK                         _______ _______ _______ _____ _____    ______ ____
ROOT
ATOM      1  C   UNL     1      49.928   8.882  13.413  0.00  0.00    +0.000 A 
ATOM      2  C   UNL     1      49.395   8.849  12.125  0.00  0.00    +0.000 A 
ATOM      3  C   UNL     1      48.022   8.684  11.952  0.00  0.00    +0.000 A 
ATOM      4  C   UNL     1      47.190   8.562  13.067  0.00  0.00    +0.000 A 
ATOM      5  C   UNL     1      47.806   8.589  14.314  0.00  0.00    +0.000 A 
ATOM      6  N   UNL     1      49.140   8.759  14.512  0.00  0.00    +0.000 NA
ENDROOT
BRANCH   1   7
ATOM      7  C   UNL     1      51.423   9.026  13.633  0.00  0.00    +0.000 C 
BRANCH   7  15
ATOM      8  C   UNL     1      52.866   6.605  17.069  0.00  0.00    +0.000 A 
ATOM      9  C   UNL     1      53.700   6.383  18.150  0.00  0.00    +0.000 A 
ATOM     10  C   UNL     1      54.931   7.024  17.887  0.00  0.00    +0.000 A 
ATOM     11  C   UNL     1      54.827   7.587  16.639  0.00  0.00    +0.000 A 
ATOM     12  N   UNL     1      53.550   7.374  16.134  0.00  0.00    +0.000 N 
ATOM     13  C   UNL     1      53.145   7.795  14.858  0.00  0.00    +0.000 C 
ATOM     14  O   UNL     1      53.921   7.698  13.918  0.00  0.00    +0.000 OA
ATOM     15  N   UNL     1      51.909   8.393  14.852  0.00  0.00    +0.000 N 
ATOM     16  H   UNL     1      51.487   8.700  15.721  0.00  0.00    +0.000 HD
BRANCH   8  18
ATOM     17  N   UNL     1      50.542   5.543  16.694  0.00  0.00    +0.000 NA
ATOM     18  C   UNL     1      51.581   6.028  16.875  0.00  0.00    +0.000 C 
ENDBRANCH   8  18
ENDBRANCH   7  15
ENDBRANCH   1   7
BRANCH   4  19
ATOM     19  C   UNL     1      45.708   8.377  12.933  0.00  0.00    +0.000 C 
BRANCH  19  20
ATOM     20  N   UNL     1      45.357   6.995  12.716  0.00  0.00    +0.000 N 
ATOM     21  C   UNL     1      44.480   6.635  11.720  0.00  0.00    +0.000 C 
ATOM     22  O   UNL     1      43.852   7.468  11.073  0.00  0.00    +0.000 OA
ATOM     23  H   UNL     1      45.997   6.296  13.081  0.00  0.00    +0.000 HD
BRANCH  21  24
ATOM     24  C   UNL     1      44.318   5.197  11.480  0.00  0.00    +0.000 A 
ATOM     25  C   UNL     1      43.594   4.419  12.373  0.00  0.00    +0.000 A 
ATOM     26  S   UNL     1      43.462   2.785  11.905  0.00  0.00    +0.000 S 
ATOM     27  C   UNL     1      44.304   3.075  10.456  0.00  0.00    +0.000 A 
ATOM     28  N   UNL     1      44.457   2.097   9.522  0.00  0.00    +0.000 NA
ATOM     29  C   UNL     1      45.095   2.468   8.462  0.00  0.00    +0.000 A 
ATOM     30  N   UNL     1      45.625   3.716   8.265  0.00  0.00    +0.000 N 
ATOM     31  C   UNL     1      45.534   4.719   9.199  0.00  0.00    +0.000 A 
ATOM     32  O   UNL     1      46.094   5.799   9.033  0.00  0.00    +0.000 OA
ATOM     33  C   UNL     1      44.761   4.379  10.376  0.00  0.00    +0.000 A 
ATOM     34  H   UNL     1      46.157   3.927   7.434  0.00  0.00    +0.000 HD
ENDBRANCH  21  24
ENDBRANCH  19  20
ENDBRANCH   4  19
TORSDOF 6
ENDMDL
MODEL 9
REMARK VINA RESULT:    -5.802      2.076      2.713
REMARK INTER + INTRA:          -8.846
REMARK INTER:                  -7.620
REMARK INTRA:                  -1.226
REMARK UNBOUND:                -1.009
REMARK  Name = 
REMARK  6 active torsions:
REMARK  status: ('A' for Active; 'I' for Inactive)
REMARK    1  A    between atoms: C_2  and  C_3
REMARK    2  A    between atoms: N_10  and  C_11
REMARK    3  A    between atoms: C_11  and  C_12
REMARK    4  A    between atoms: C_15  and  C_16
REMARK    5  A    between atoms: C_16  and  N_17
REMARK    6  A    between atoms: C_18  and  C_20
REMARK                            x       y       z     vdW  Elec       q    Type
REMARK                         _______ _______ _______ _____ _____    ______ ____
ROOT
ATOM      1  C   UNL     1      50.362   8.189  16.789  0.00  0.00    +0.000 A 
ATOM      2  C   UNL     1      51.037   8.671  15.668  0.00  0.00    +0.000 A 
ATOM      3  C   UNL     1      50.314   9.256  14.629  0.00  0.00    +0.000 A 
ATOM      4  C   UNL     1      48.925   9.361  14.721  0.00  0.00    +0.000 A 
ATOM      5  C   UNL     1      48.331   8.839  15.866  0.00  0.00    +0.000 A 
ATOM      6  N   UNL     1      49.011   8.274  16.898  0.00  0.00    +0.000 NA
ENDROOT
BRANCH   1   7
ATOM      7  C   UNL     1      51.117   7.516  17.922  0.00  0.00    +0.000 C 
BRANCH   7  15
ATOM      8  C   UNL     1      51.776   3.122  17.920  0.00  0.00    +0.000 A 
ATOM      9  C   UNL     1      51.511   1.840  17.468  0.00  0.00    +0.000 A 
ATOM     10  C   UNL     1      50.158   1.792  17.070  0.00  0.00    +0.000 A 
ATOM     11  C   UNL     1      49.624   3.032  17.322  0.00  0.00    +0.000 A 
ATOM     12  N   UNL     1      50.614   3.877  17.809  0.00  0.00    +0.000 N 
ATOM     13  C   UNL     1      50.372   5.203  18.200  0.00  0.00    +0.000 C 
ATOM     14  O   UNL     1      49.343   5.476  18.802  0.00  0.00    +0.000 OA
ATOM     15  N   UNL     1      51.317   6.085  17.736  0.00  0.00    +0.000 N 
ATOM     16  H   UNL     1      51.952   5.810  16.996  0.00  0.00    +0.000 HD
BRANCH   8  18
ATOM     17  N   UNL     1      53.974   3.888  19.037  0.00  0.00    +0.000 NA
ATOM     18  C   UNL     1      52.984   3.558  18.528  0.00  0.00    +0.000 C 
ENDBRANCH   8  18
ENDBRANCH   7  15
ENDBRANCH   1   7
BRANCH   4  19
ATOM     19  C   UNL     1      48.104   9.976  13.627  0.00  0.00    +0.000 C 
BRANCH  19  20
ATOM     20  N   UNL     1      46.999   9.132  13.246  0.00  0.00    +0.000 N 
ATOM     21  C   UNL     1      47.175   8.088  12.369  0.00  0.00    +0.000 C 
ATOM     22  O   UNL     1      48.230   7.916  11.764  0.00  0.00    +0.000 OA
ATOM     23  H   UNL     1      46.196   9.118  13.867  0.00  0.00    +0.000 HD
BRANCH  21  24
ATOM     24  C   UNL     1      46.027   7.195  12.175  0.00  0.00    +0.000 A 
ATOM     25  C   UNL     1      44.902   7.644  11.497  0.00  0.00    +0.000 A 
ATOM     26  S   UNL     1      43.692   6.456  11.317  0.00  0.00    +0.000 S 
ATOM     27  C   UNL     1      44.660   5.279  12.075  0.00  0.00    +0.000 A 
ATOM     28  N   UNL     1      44.254   3.982  12.160  0.00  0.00    +0.000 NA
ATOM     29  C   UNL     1      45.101   3.197  12.739  0.00  0.00    +0.000 A 
ATOM     30  N   UNL     1      46.300   3.595  13.270  0.00  0.00    +0.000 N 
ATOM     31  C   UNL     1      46.728   4.900  13.247  0.00  0.00    +0.000 A 
ATOM     32  O   UNL     1      47.764   5.242  13.809  0.00  0.00    +0.000 OA
ATOM     33  C   UNL     1      45.849   5.811  12.542  0.00  0.00    +0.000 A 
ATOM     34  H   UNL     1      46.894   2.939  13.755  0.00  0.00    +0.000 HD
ENDBRANCH  21  24
ENDBRANCH  19  20
ENDBRANCH   4  19
TORSDOF 6
ENDMDL
