MODEL 1
REMARK VINA RESULT:    -8.530      0.000      0.000
REMARK INTER + INTRA:         -12.930
REMARK INTER:                 -12.271
REMARK INTRA:                  -0.659
REMARK UNBOUND:                -0.659
REMARK  Name = 
REMARK  8 active torsions:
REMARK  status: ('A' for Active; 'I' for Inactive)
REMARK    1  A    between atoms: N_1  and  C_2
REMARK    2  A    between atoms: C_2  and  C_3
REMARK    3  A    between atoms: C_3  and  N_4
REMARK    4  A    between atoms: C_3  and  C_17
REMARK    5  A    between atoms: C_5  and  C_7
REMARK    6  A    between atoms: C_20  and  O_21
REMARK    7  A    between atoms: O_21  and  C_22
REMARK    8  A    between atoms: C_22  and  C_23
REMARK                            x       y       z     vdW  Elec       q    Type
REMARK                         _______ _______ _______ _____ _____    ______ ____
ROOT
ATOM      1  C   UNL     1      46.617   7.810  12.819  0.00  0.00    +0.000 C 
ENDROOT
BRANCH   1   2
ATOM      2  C   UNL     1      46.033   6.553  12.177  0.00  0.00    +0.000 A 
ATOM      3  C   UNL     1      46.129   6.319  10.798  0.00  0.00    +0.000 A 
ATOM      4  C   UNL     1      45.616   5.141  10.244  0.00  0.00    +0.000 A 
ATOM      5  C   UNL     1      45.016   4.178  11.060  0.00  0.00    +0.000 A 
ATOM      6  C   UNL     1      44.871   4.428  12.423  0.00  0.00    +0.000 A 
ATOM      7  C   UNL     1      45.392   5.593  12.979  0.00  0.00    +0.000 A 
BRANCH   5   8
ATOM      8  O   UNL     1      44.618   3.022  10.440  0.00  0.00    +0.000 OA
BRANCH   8   9
ATOM      9  C   UNL     1      44.389   3.159   9.030  0.00  0.00    +0.000 C 
BRANCH   9  10
ATOM     10  C   UNL     1      45.527   2.594   8.214  0.00  0.00    +0.000 A 
ATOM     11  C   UNL     1      46.170   3.354   7.242  0.00  0.00    +0.000 A 
ATOM     12  C   UNL     1      47.197   2.769   6.505  0.00  0.00    +0.000 A 
ATOM     13  C   UNL     1      47.543   1.445   6.747  0.00  0.00    +0.000 A 
ATOM     14  C   UNL     1      46.841   0.751   7.716  0.00  0.00    +0.000 A 
ATOM     15  N   UNL     1      45.843   1.291   8.446  0.00  0.00    +0.000 NA
ENDBRANCH   9  10
ENDBRANCH   8   9
ENDBRANCH   5   8
ENDBRANCH   1   2
BRANCH   1  16
ATOM     16  N   UNL     1      47.123   7.432  14.135  0.00  0.00    +0.000 N 
ATOM     17  C   UNL     1      48.250   6.682  14.343  0.00  0.00    +0.000 C 
ATOM     18  O   UNL     1      49.004   6.344  13.438  0.00  0.00    +0.000 OA
ATOM     19  H   UNL     1      46.429   7.449  14.876  0.00  0.00    +0.000 HD
BRANCH  17  20
ATOM     20  C   UNL     1      48.549   6.352  15.743  0.00  0.00    +0.000 A 
ATOM     21  C   UNL     1      49.204   7.276  16.547  0.00  0.00    +0.000 A 
ATOM     22  S   UNL     1      49.470   6.725  18.140  0.00  0.00    +0.000 S 
ATOM     23  C   UNL     1      48.760   5.218  17.798  0.00  0.00    +0.000 A 
ATOM     24  N   UNL     1      48.705   4.239  18.740  0.00  0.00    +0.000 NA
ATOM     25  C   UNL     1      48.163   3.139  18.332  0.00  0.00    +0.000 A 
ATOM     26  N   UNL     1      47.656   2.934  17.076  0.00  0.00    +0.000 N 
ATOM     27  C   UNL     1      47.647   3.906  16.105  0.00  0.00    +0.000 A 
ATOM     28  O   UNL     1      47.114   3.723  15.017  0.00  0.00    +0.000 OA
ATOM     29  C   UNL     1      48.286   5.152  16.499  0.00  0.00    +0.000 A 
ATOM     30  H   UNL     1      47.219   2.058  16.830  0.00  0.00    +0.000 HD
ENDBRANCH  17  20
ENDBRANCH   1  16
BRANCH   1  31
ATOM     31  C   UNL     1      45.541   8.939  12.879  0.00  0.00    +0.000 C 
BRANCH  31  32
ATOM     32  N   UNL     1      46.035  10.270  12.489  0.00  0.00    +0.000 NA
ATOM     33  H   UNL     1      46.772  10.153  11.794  0.00  0.00    +0.000 HD
ATOM     34  H   UNL     1      46.475  10.719  13.293  0.00  0.00    +0.000 HD
ENDBRANCH  31  32
ENDBRANCH   1  31
TORSDOF 8
ENDMDL
MODEL 2
REMARK VINA RESULT:    -8.496      1.976      2.623
REMARK INTER + INTRA:         -12.881
REMARK INTER:                 -11.606
REMARK INTRA:                  -1.275
REMARK UNBOUND:                -0.659
REMARK  Name = 
REMARK  8 active torsions:
REMARK  status: ('A' for Active; 'I' for Inactive)
REMARK    1  A    between atoms: N_1  and  C_2
REMARK    2  A    between atoms: C_2  and  C_3
REMARK    3  A    between atoms: C_3  and  N_4
REMARK    4  A    between atoms: C_3  and  C_17
REMARK    5  A    between atoms: C_5  and  C_7
REMARK    6  A    between atoms: C_20  and  O_21
REMARK    7  A    between atoms: O_21  and  C_22
REMARK    8  A    between atoms: C_22  and  C_23
REMARK                            x       y       z     vdW  Elec       q    Type
REMARK                         _______ _______ _______ _____ _____    ______ ____
ROOT
ATOM      1  C   UNL     1      47.909   6.894  13.653  0.00  0.00    +0.000 C 
ENDROOT
BRANCH   1   2
ATOM      2  C   UNL     1      46.883   6.067  12.879  0.00  0.00    +0.000 A 
ATOM      3  C   UNL     1      46.278   6.551  11.711  0.00  0.00    +0.000 A 
ATOM      4  C   UNL     1      45.369   5.756  11.005  0.00  0.00    +0.000 A 
ATOM      5  C   UNL     1      45.065   4.466  11.447  0.00  0.00    +0.000 A 
ATOM      6  C   UNL     1      45.622   3.999  12.635  0.00  0.00    +0.000 A 
ATOM      7  C   UNL     1      46.537   4.783  13.333  0.00  0.00    +0.000 A 
BRANCH   5   8
ATOM      8  O   UNL     1      44.227   3.733  10.646  0.00  0.00    +0.000 OA
BRANCH   8   9
ATOM      9  C   UNL     1      44.251   4.116   9.263  0.00  0.00    +0.000 C 
BRANCH   9  10
ATOM     10  C   UNL     1      45.267   3.328   8.474  0.00  0.00    +0.000 A 
ATOM     11  C   UNL     1      45.479   1.973   8.712  0.00  0.00    +0.000 A 
ATOM     12  C   UNL     1      46.448   1.306   7.967  0.00  0.00    +0.000 A 
ATOM     13  C   UNL     1      47.185   2.006   7.020  0.00  0.00    +0.000 A 
ATOM     14  C   UNL     1      46.929   3.356   6.858  0.00  0.00    +0.000 A 
ATOM     15  N   UNL     1      45.996   4.029   7.563  0.00  0.00    +0.000 NA
ENDBRANCH   9  10
ENDBRANCH   8   9
ENDBRANCH   5   8
ENDBRANCH   1   2
BRANCH   1  16
ATOM     16  N   UNL     1      47.899   6.419  15.032  0.00  0.00    +0.000 N 
ATOM     17  C   UNL     1      49.018   6.285  15.812  0.00  0.00    +0.000 C 
ATOM     18  O   UNL     1      50.129   6.656  15.453  0.00  0.00    +0.000 OA
ATOM     19  H   UNL     1      47.085   5.867  15.284  0.00  0.00    +0.000 HD
BRANCH  17  20
ATOM     20  C   UNL     1      48.800   5.723  17.152  0.00  0.00    +0.000 A 
ATOM     21  C   UNL     1      49.017   4.370  17.378  0.00  0.00    +0.000 A 
ATOM     22  S   UNL     1      48.713   3.892  18.987  0.00  0.00    +0.000 S 
ATOM     23  C   UNL     1      48.241   5.466  19.426  0.00  0.00    +0.000 A 
ATOM     24  N   UNL     1      47.807   5.743  20.684  0.00  0.00    +0.000 NA
ATOM     25  C   UNL     1      47.455   6.972  20.868  0.00  0.00    +0.000 A 
ATOM     26  N   UNL     1      47.513   7.954  19.913  0.00  0.00    +0.000 N 
ATOM     27  C   UNL     1      47.985   7.734  18.642  0.00  0.00    +0.000 A 
ATOM     28  O   UNL     1      48.103   8.647  17.833  0.00  0.00    +0.000 OA
ATOM     29  C   UNL     1      48.355   6.354  18.371  0.00  0.00    +0.000 A 
ATOM     30  H   UNL     1      47.249   8.903  20.130  0.00  0.00    +0.000 HD
ENDBRANCH  17  20
ENDBRANCH   1  16
BRANCH   1  31
ATOM     31  C   UNL     1      47.584   8.416  13.528  0.00  0.00    +0.000 C 
BRANCH  31  32
ATOM     32  N   UNL     1      47.169   9.053  14.788  0.00  0.00    +0.000 NA
ATOM     33  H   UNL     1      46.837   8.330  15.424  0.00  0.00    +0.000 HD
ATOM     34  H   UNL     1      46.371   9.664  14.614  0.00  0.00    +0.000 HD
ENDBRANCH  31  32
ENDBRANCH   1  31
TORSDOF 8
ENDMDL
MODEL 3
REMARK VINA RESULT:    -8.090      1.655      2.045
REMARK INTER + INTRA:         -12.295
REMARK INTER:                 -11.284
REMARK INTRA:                  -1.011
REMARK UNBOUND:                -0.659
REMARK  Name = 
REMARK  8 active torsions:
REMARK  status: ('A' for Active; 'I' for Inactive)
REMARK    1  A    between atoms: N_1  and  C_2
REMARK    2  A    between atoms: C_2  and  C_3
REMARK    3  A    between atoms: C_3  and  N_4
REMARK    4  A    between atoms: C_3  and  C_17
REMARK    5  A    between atoms: C_5  and  C_7
REMARK    6  A    between atoms: C_20  and  O_21
REMARK    7  A    between atoms: O_21  and  C_22
REMARK    8  A    between atoms: C_22  and  C_23
REMARK                            x       y       z     vdW  Elec       q    Type
REMARK                         _______ _______ _______ _____ _____    ______ ____
ROOT
ATOM      1  C   UNL     1      48.375   7.176  13.472  0.00  0.00    +0.000 C 
ENDROOT
BRANCH   1   2
ATOM      2  C   UNL     1      47.223   6.356  12.892  0.00  0.00    +0.000 A 
ATOM      3  C   UNL     1      46.575   6.735  11.708  0.00  0.00    +0.000 A 
ATOM      4  C   UNL     1      45.548   5.944  11.181  0.00  0.00    +0.000 A 
ATOM      5  C   UNL     1      45.167   4.761  11.820  0.00  0.00    +0.000 A 
ATOM      6  C   UNL     1      45.771   4.407  13.024  0.00  0.00    +0.000 A 
ATOM      7  C   UNL     1      46.802   5.185  13.544  0.00  0.00    +0.000 A 
BRANCH   5   8
ATOM      8  O   UNL     1      44.210   4.012  11.186  0.00  0.00    +0.000 OA
BRANCH   8   9
ATOM      9  C   UNL     1      44.033   4.334   9.799  0.00  0.00    +0.000 C 
BRANCH   9  10
ATOM     10  C   UNL     1      44.966   3.547   8.911  0.00  0.00    +0.000 A 
ATOM     11  C   UNL     1      45.166   2.182   9.097  0.00  0.00    +0.000 A 
ATOM     12  C   UNL     1      46.058   1.516   8.261  0.00  0.00    +0.000 A 
ATOM     13  C   UNL     1      46.735   2.227   7.276  0.00  0.00    +0.000 A 
ATOM     14  C   UNL     1      46.497   3.586   7.171  0.00  0.00    +0.000 A 
ATOM     15  N   UNL     1      45.638   4.258   7.965  0.00  0.00    +0.000 NA
ENDBRANCH   9  10
ENDBRANCH   8   9
ENDBRANCH   5   8
ENDBRANCH   1   2
BRANCH   1  16
ATOM     16  N   UNL     1      48.208   7.193  14.922  0.00  0.00    +0.000 N 
ATOM     17  C   UNL     1      49.215   6.957  15.819  0.00  0.00    +0.000 C 
ATOM     18  O   UNL     1      50.385   6.811  15.485  0.00  0.00    +0.000 OA
ATOM     19  H   UNL     1      47.255   7.046  15.240  0.00  0.00    +0.000 HD
BRANCH  17  20
ATOM     20  C   UNL     1      48.823   6.952  17.235  0.00  0.00    +0.000 A 
ATOM     21  C   UNL     1      48.436   8.136  17.850  0.00  0.00    +0.000 A 
ATOM     22  S   UNL     1      48.018   7.945  19.493  0.00  0.00    +0.000 S 
ATOM     23  C   UNL     1      48.380   6.283  19.450  0.00  0.00    +0.000 A 
ATOM     24  N   UNL     1      48.278   5.515  20.567  0.00  0.00    +0.000 NA
ATOM     25  C   UNL     1      48.611   4.278  20.394  0.00  0.00    +0.000 A 
ATOM     26  N   UNL     1      49.020   3.736  19.204  0.00  0.00    +0.000 N 
ATOM     27  C   UNL     1      49.096   4.461  18.039  0.00  0.00    +0.000 A 
ATOM     28  O   UNL     1      49.387   3.933  16.972  0.00  0.00    +0.000 OA
ATOM     29  C   UNL     1      48.773   5.871  18.189  0.00  0.00    +0.000 A 
ATOM     30  H   UNL     1      49.239   2.754  19.130  0.00  0.00    +0.000 HD
ENDBRANCH  17  20
ENDBRANCH   1  16
BRANCH   1  31
ATOM     31  C   UNL     1      48.396   8.604  12.842  0.00  0.00    +0.000 C 
BRANCH  31  32
ATOM     32  N   UNL     1      47.684   9.625  13.628  0.00  0.00    +0.000 NA
ATOM     33  H   UNL     1      48.289   9.928  14.390  0.00  0.00    +0.000 HD
ATOM     34  H   UNL     1      46.865   9.206  14.068  0.00  0.00    +0.000 HD
ENDBRANCH  31  32
ENDBRANCH   1  31
TORSDOF 8
ENDMDL
MODEL 4
REMARK VINA RESULT:    -7.990      2.848      4.307
REMARK INTER + INTRA:         -12.152
REMARK INTER:                 -10.749
REMARK INTRA:                  -1.403
REMARK UNBOUND:                -0.659
REMARK  Name = 
REMARK  8 active torsions:
REMARK  status: ('A' for Active; 'I' for Inactive)
REMARK    1  A    between atoms: N_1  and  C_2
REMARK    2  A    between atoms: C_2  and  C_3
REMARK    3  A    between atoms: C_3  and  N_4
REMARK    4  A    between atoms: C_3  and  C_17
REMARK    5  A    between atoms: C_5  and  C_7
REMARK    6  A    between atoms: C_20  and  O_21
REMARK    7  A    between atoms: O_21  and  C_22
REMARK    8  A    between atoms: C_22  and  C_23
REMARK                            x       y       z     vdW  Elec       q    Type
REMARK                         _______ _______ _______ _____ _____    ______ ____
ROOT
ATOM      1  C   UNL     1      46.755   5.770  14.010  0.00  0.00    +0.000 C 
ENDROOT
BRANCH   1   2
ATOM      2  C   UNL     1      46.093   5.135  12.788  0.00  0.00    +0.000 A 
ATOM      3  C   UNL     1      45.616   3.817  12.813  0.00  0.00    +0.000 A 
ATOM      4  C   UNL     1      44.981   3.275  11.689  0.00  0.00    +0.000 A 
ATOM      5  C   UNL     1      44.803   4.044  10.537  0.00  0.00    +0.000 A 
ATOM      6  C   UNL     1      45.323   5.336  10.488  0.00  0.00    +0.000 A 
ATOM      7  C   UNL     1      45.942   5.883  11.608  0.00  0.00    +0.000 A 
BRANCH   5   8
ATOM      8  O   UNL     1      44.100   3.455   9.518  0.00  0.00    +0.000 OA
BRANCH   8   9
ATOM      9  C   UNL     1      44.556   2.139   9.171  0.00  0.00    +0.000 C 
BRANCH   9  10
ATOM     10  C   UNL     1      45.670   2.176   8.154  0.00  0.00    +0.000 A 
ATOM     11  C   UNL     1      45.829   3.256   7.291  0.00  0.00    +0.000 A 
ATOM     12  C   UNL     1      46.862   3.221   6.358  0.00  0.00    +0.000 A 
ATOM     13  C   UNL     1      47.695   2.110   6.300  0.00  0.00    +0.000 A 
ATOM     14  C   UNL     1      47.456   1.068   7.178  0.00  0.00    +0.000 A 
ATOM     15  N   UNL     1      46.466   1.074   8.094  0.00  0.00    +0.000 NA
ENDBRANCH   9  10
ENDBRANCH   8   9
ENDBRANCH   5   8
ENDBRANCH   1   2
BRANCH   1  16
ATOM     16  N   UNL     1      47.891   6.550  13.532  0.00  0.00    +0.000 N 
ATOM     17  C   UNL     1      47.933   7.919  13.506  0.00  0.00    +0.000 C 
ATOM     18  O   UNL     1      47.051   8.623  13.983  0.00  0.00    +0.000 OA
ATOM     19  H   UNL     1      48.512   6.051  12.903  0.00  0.00    +0.000 HD
BRANCH  17  20
ATOM     20  C   UNL     1      49.144   8.511  12.921  0.00  0.00    +0.000 A 
ATOM     21  C   UNL     1      49.051   9.287  11.773  0.00  0.00    +0.000 A 
ATOM     22  S   UNL     1      50.553   9.889  11.234  0.00  0.00    +0.000 S 
ATOM     23  C   UNL     1      51.385   9.099  12.491  0.00  0.00    +0.000 A 
ATOM     24  N   UNL     1      52.739   9.168  12.586  0.00  0.00    +0.000 NA
ATOM     25  C   UNL     1      53.237   8.498  13.572  0.00  0.00    +0.000 A 
ATOM     26  N   UNL     1      52.505   7.780  14.481  0.00  0.00    +0.000 N 
ATOM     27  C   UNL     1      51.132   7.718  14.453  0.00  0.00    +0.000 A 
ATOM     28  O   UNL     1      50.498   7.137  15.326  0.00  0.00    +0.000 OA
ATOM     29  C   UNL     1      50.524   8.421  13.335  0.00  0.00    +0.000 A 
ATOM     30  H   UNL     1      52.955   7.302  15.247  0.00  0.00    +0.000 HD
ENDBRANCH  17  20
ENDBRANCH   1  16
BRANCH   1  31
ATOM     31  C   UNL     1      47.158   4.670  15.042  0.00  0.00    +0.000 C 
BRANCH  31  32
ATOM     32  N   UNL     1      48.312   5.023  15.884  0.00  0.00    +0.000 NA
ATOM     33  H   UNL     1      48.099   4.774  16.849  0.00  0.00    +0.000 HD
ATOM     34  H   UNL     1      48.444   6.034  15.876  0.00  0.00    +0.000 HD
ENDBRANCH  31  32
ENDBRANCH   1  31
TORSDOF 8
ENDMDL
MODEL 5
REMARK VINA RESULT:    -7.972      2.522      4.698
REMARK INTER + INTRA:         -12.127
REMARK INTER:                 -10.691
REMARK INTRA:                  -1.435
REMARK UNBOUND:                -0.659
REMARK  Name = 
REMARK  8 active torsions:
REMARK  status: ('A' for Active; 'I' for Inactive)
REMARK    1  A    between atoms: N_1  and  C_2
REMARK    2  A    between atoms: C_2  and  C_3
REMARK    3  A    between atoms: C_3  and  N_4
REMARK    4  A    between atoms: C_3  and  C_17
REMARK    5  A    between atoms: C_5  and  C_7
REMARK    6  A    between atoms: C_20  and  O_21
REMARK    7  A    between atoms: O_21  and  C_22
REMARK    8  A    between atoms: C_22  and  C_23
REMARK                            x       y       z     vdW  Elec       q    Type
REMARK                         _______ _______ _______ _____ _____    ______ ____
ROOT
ATOM      1  C   UNL     1      46.965   5.660  14.220  0.00  0.00    +0.000 C 
ENDROOT
BRANCH   1   2
ATOM      2  C   UNL     1      46.261   5.116  12.978  0.00  0.00    +0.000 A 
ATOM      3  C   UNL     1      45.737   3.816  12.940  0.00  0.00    +0.000 A 
ATOM      4  C   UNL     1      45.066   3.358  11.800  0.00  0.00    +0.000 A 
ATOM      5  C   UNL     1      44.897   4.194  10.695  0.00  0.00    +0.000 A 
ATOM      6  C   UNL     1      45.461   5.469  10.706  0.00  0.00    +0.000 A 
ATOM      7  C   UNL     1      46.118   5.932  11.843  0.00  0.00    +0.000 A 
BRANCH   5   8
ATOM      8  O   UNL     1      44.156   3.687   9.659  0.00  0.00    +0.000 OA
BRANCH   8   9
ATOM      9  C   UNL     1      44.510   2.348   9.283  0.00  0.00    +0.000 C 
BRANCH   9  10
ATOM     10  C   UNL     1      45.578   2.322   8.217  0.00  0.00    +0.000 A 
ATOM     11  C   UNL     1      45.742   3.379   7.328  0.00  0.00    +0.000 A 
ATOM     12  C   UNL     1      46.730   3.286   6.351  0.00  0.00    +0.000 A 
ATOM     13  C   UNL     1      47.515   2.141   6.279  0.00  0.00    +0.000 A 
ATOM     14  C   UNL     1      47.274   1.125   7.186  0.00  0.00    +0.000 A 
ATOM     15  N   UNL     1      46.326   1.187   8.144  0.00  0.00    +0.000 NA
ENDBRANCH   9  10
ENDBRANCH   8   9
ENDBRANCH   5   8
ENDBRANCH   1   2
BRANCH   1  16
ATOM     16  N   UNL     1      48.099   6.456  13.763  0.00  0.00    +0.000 N 
ATOM     17  C   UNL     1      48.758   7.377  14.534  0.00  0.00    +0.000 C 
ATOM     18  O   UNL     1      48.519   7.544  15.724  0.00  0.00    +0.000 OA
ATOM     19  H   UNL     1      48.167   6.555  12.755  0.00  0.00    +0.000 HD
BRANCH  17  20
ATOM     20  C   UNL     1      49.831   8.123  13.862  0.00  0.00    +0.000 A 
ATOM     21  C   UNL     1      51.140   8.007  14.310  0.00  0.00    +0.000 A 
ATOM     22  S   UNL     1      52.251   8.943  13.417  0.00  0.00    +0.000 S 
ATOM     23  C   UNL     1      51.016   9.568  12.428  0.00  0.00    +0.000 A 
ATOM     24  N   UNL     1      51.289  10.485  11.461  0.00  0.00    +0.000 NA
ATOM     25  C   UNL     1      50.251  10.892  10.807  0.00  0.00    +0.000 A 
ATOM     26  N   UNL     1      48.970  10.454  11.019  0.00  0.00    +0.000 N 
ATOM     27  C   UNL     1      48.652   9.497  11.952  0.00  0.00    +0.000 A 
ATOM     28  O   UNL     1      47.510   9.064  12.064  0.00  0.00    +0.000 OA
ATOM     29  C   UNL     1      49.779   9.037  12.746  0.00  0.00    +0.000 A 
ATOM     30  H   UNL     1      48.207  10.792  10.451  0.00  0.00    +0.000 HD
ENDBRANCH  17  20
ENDBRANCH   1  16
BRANCH   1  31
ATOM     31  C   UNL     1      47.380   4.489  15.165  0.00  0.00    +0.000 C 
BRANCH  31  32
ATOM     32  N   UNL     1      47.218   4.781  16.599  0.00  0.00    +0.000 NA
ATOM     33  H   UNL     1      48.128   4.699  17.052  0.00  0.00    +0.000 HD
ATOM     34  H   UNL     1      46.625   4.070  17.027  0.00  0.00    +0.000 HD
ENDBRANCH  31  32
ENDBRANCH   1  31
TORSDOF 8
ENDMDL
MODEL 6
REMARK VINA RESULT:    -7.266      2.443      4.067
REMARK INTER + INTRA:         -11.110
REMARK INTER:                 -10.467
REMARK INTRA:                  -0.644
REMARK UNBOUND:                -0.659
REMARK  Name = 
REMARK  8 active torsions:
REMARK  status: ('A' for Active; 'I' for Inactive)
REMARK    1  A    between atoms: N_1  and  C_2
REMARK    2  A    between atoms: C_2  and  C_3
REMARK    3  A    between atoms: C_3  and  N_4
REMARK    4  A    between atoms: C_3  and  C_17
REMARK    5  A    between atoms: C_5  and  C_7
REMARK    6  A    between atoms: C_20  and  O_21
REMARK    7  A    between atoms: O_21  and  C_22
REMARK    8  A    between atoms: C_22  and  C_23
REMARK                            x       y       z     vdW  Elec       q    Type
REMARK                         _______ _______ _______ _____ _____    ______ ____
ROOT
ATOM      1  C   UNL     1      46.659   5.177  14.439  0.00  0.00    +0.000 C 
ENDROOT
BRANCH   1   2
ATOM      2  C   UNL     1      45.995   4.906  13.089  0.00  0.00    +0.000 A 
ATOM      3  C   UNL     1      45.958   5.878  12.080  0.00  0.00    +0.000 A 
ATOM      4  C   UNL     1      45.374   5.588  10.842  0.00  0.00    +0.000 A 
ATOM      5  C   UNL     1      44.836   4.324  10.592  0.00  0.00    +0.000 A 
ATOM      6  C   UNL     1      44.822   3.371  11.608  0.00  0.00    +0.000 A 
ATOM      7  C   UNL     1      45.413   3.652  12.837  0.00  0.00    +0.000 A 
BRANCH   5   8
ATOM      8  O   UNL     1      44.360   4.108   9.324  0.00  0.00    +0.000 OA
BRANCH   8   9
ATOM      9  C   UNL     1      44.434   2.741   8.893  0.00  0.00    +0.000 C 
BRANCH   9  10
ATOM     10  C   UNL     1      45.624   2.492   7.998  0.00  0.00    +0.000 A 
ATOM     11  C   UNL     1      45.987   3.397   7.006  0.00  0.00    +0.000 A 
ATOM     12  C   UNL     1      47.081   3.100   6.197  0.00  0.00    +0.000 A 
ATOM     13  C   UNL     1      47.771   1.909   6.389  0.00  0.00    +0.000 A 
ATOM     14  C   UNL     1      47.333   1.053   7.383  0.00  0.00    +0.000 A 
ATOM     15  N   UNL     1      46.279   1.314   8.183  0.00  0.00    +0.000 NA
ENDBRANCH   9  10
ENDBRANCH   8   9
ENDBRANCH   5   8
ENDBRANCH   1   2
BRANCH   1  16
ATOM     16  N   UNL     1      47.568   6.304  14.257  0.00  0.00    +0.000 N 
ATOM     17  C   UNL     1      48.611   6.599  15.094  0.00  0.00    +0.000 C 
ATOM     18  O   UNL     1      48.945   5.875  16.025  0.00  0.00    +0.000 OA
ATOM     19  H   UNL     1      47.197   7.059  13.688  0.00  0.00    +0.000 HD
BRANCH  17  20
ATOM     20  C   UNL     1      49.364   7.819  14.772  0.00  0.00    +0.000 A 
ATOM     21  C   UNL     1      50.126   7.876  13.613  0.00  0.00    +0.000 A 
ATOM     22  S   UNL     1      50.934   9.364  13.401  0.00  0.00    +0.000 S 
ATOM     23  C   UNL     1      50.328   9.966  14.872  0.00  0.00    +0.000 A 
ATOM     24  N   UNL     1      50.679  11.200  15.321  0.00  0.00    +0.000 NA
ATOM     25  C   UNL     1      50.166  11.516  16.465  0.00  0.00    +0.000 A 
ATOM     26  N   UNL     1      49.322  10.718  17.191  0.00  0.00    +0.000 N 
ATOM     27  C   UNL     1      48.903   9.483  16.758  0.00  0.00    +0.000 A 
ATOM     28  O   UNL     1      48.083   8.825  17.389  0.00  0.00    +0.000 OA
ATOM     29  C   UNL     1      49.486   9.062  15.494  0.00  0.00    +0.000 A 
ATOM     30  H   UNL     1      48.933  11.037  18.066  0.00  0.00    +0.000 HD
ENDBRANCH  17  20
ENDBRANCH   1  16
BRANCH   1  31
ATOM     31  C   UNL     1      47.375   3.892  14.959  0.00  0.00    +0.000 C 
BRANCH  31  32
ATOM     32  N   UNL     1      47.059   3.544  16.354  0.00  0.00    +0.000 NA
ATOM     33  H   UNL     1      47.354   2.584  16.526  0.00  0.00    +0.000 HD
ATOM     34  H   UNL     1      46.047   3.556  16.488  0.00  0.00    +0.000 HD
ENDBRANCH  31  32
ENDBRANCH   1  31
TORSDOF 8
ENDMDL
MODEL 7
REMARK VINA RESULT:    -7.179      2.595      4.020
REMARK INTER + INTRA:         -10.986
REMARK INTER:                  -9.658
REMARK INTRA:                  -1.328
REMARK UNBOUND:                -0.659
REMARK  Name = 
REMARK  8 active torsions:
REMARK  status: ('A' for Active; 'I' for Inactive)
REMARK    1  A    between atoms: N_1  and  C_2
REMARK    2  A    between atoms: C_2  and  C_3
REMARK    3  A    between atoms: C_3  and  N_4
REMARK    4  A    between atoms: C_3  and  C_17
REMARK    5  A    between atoms: C_5  and  C_7
REMARK    6  A    between atoms: C_20  and  O_21
REMARK    7  A    between atoms: O_21  and  C_22
REMARK    8  A    between atoms: C_22  and  C_23
REMARK                            x       y       z     vdW  Elec       q    Type
REMARK                         _______ _______ _______ _____ _____    ______ ____
ROOT
ATOM      1  C   UNL     1      47.202   4.711  15.689  0.00  0.00    +0.000 C 
ENDROOT
BRANCH   1   2
ATOM      2  C   UNL     1      46.722   4.960  14.259  0.00  0.00    +0.000 A 
ATOM      3  C   UNL     1      45.721   4.174  13.673  0.00  0.00    +0.000 A 
ATOM      4  C   UNL     1      45.276   4.449  12.375  0.00  0.00    +0.000 A 
ATOM      5  C   UNL     1      45.815   5.517  11.654  0.00  0.00    +0.000 A 
ATOM      6  C   UNL     1      46.847   6.269  12.211  0.00  0.00    +0.000 A 
ATOM      7  C   UNL     1      47.282   6.007  13.507  0.00  0.00    +0.000 A 
BRANCH   5   8
ATOM      8  O   UNL     1      45.260   5.759  10.424  0.00  0.00    +0.000 OA
BRANCH   8   9
ATOM      9  C   UNL     1      44.465   4.678   9.914  0.00  0.00    +0.000 C 
BRANCH   9  10
ATOM     10  C   UNL     1      45.248   3.793   8.976  0.00  0.00    +0.000 A 
ATOM     11  C   UNL     1      45.275   2.411   9.136  0.00  0.00    +0.000 A 
ATOM     12  C   UNL     1      46.036   1.650   8.252  0.00  0.00    +0.000 A 
ATOM     13  C   UNL     1      46.755   2.284   7.246  0.00  0.00    +0.000 A 
ATOM     14  C   UNL     1      46.692   3.664   7.168  0.00  0.00    +0.000 A 
ATOM     15  N   UNL     1      45.964   4.428   8.008  0.00  0.00    +0.000 NA
ENDBRANCH   9  10
ENDBRANCH   8   9
ENDBRANCH   5   8
ENDBRANCH   1   2
BRANCH   1  16
ATOM     16  N   UNL     1      48.267   5.671  15.963  0.00  0.00    +0.000 N 
ATOM     17  C   UNL     1      48.441   6.311  17.161  0.00  0.00    +0.000 C 
ATOM     18  O   UNL     1      47.775   6.054  18.158  0.00  0.00    +0.000 OA
ATOM     19  H   UNL     1      48.665   6.108  15.137  0.00  0.00    +0.000 HD
BRANCH  17  20
ATOM     20  C   UNL     1      49.533   7.293  17.209  0.00  0.00    +0.000 A 
ATOM     21  C   UNL     1      49.243   8.643  17.358  0.00  0.00    +0.000 A 
ATOM     22  S   UNL     1      50.629   9.637  17.391  0.00  0.00    +0.000 S 
ATOM     23  C   UNL     1      51.661   8.304  17.164  0.00  0.00    +0.000 A 
ATOM     24  N   UNL     1      53.006   8.469  17.053  0.00  0.00    +0.000 NA
ATOM     25  C   UNL     1      53.662   7.373  16.857  0.00  0.00    +0.000 A 
ATOM     26  N   UNL     1      53.098   6.127  16.776  0.00  0.00    +0.000 N 
ATOM     27  C   UNL     1      51.751   5.904  16.927  0.00  0.00    +0.000 A 
ATOM     28  O   UNL     1      51.284   4.771  16.932  0.00  0.00    +0.000 OA
ATOM     29  C   UNL     1      50.961   7.111  17.108  0.00  0.00    +0.000 A 
ATOM     30  H   UNL     1      53.672   5.306  16.650  0.00  0.00    +0.000 HD
ENDBRANCH  17  20
ENDBRANCH   1  16
BRANCH   1  31
ATOM     31  C   UNL     1      47.657   3.228  15.858  0.00  0.00    +0.000 C 
BRANCH  31  32
ATOM     32  N   UNL     1      48.918   3.061  16.599  0.00  0.00    +0.000 NA
ATOM     33  H   UNL     1      49.005   2.085  16.878  0.00  0.00    +0.000 HD
ATOM     34  H   UNL     1      48.879   3.600  17.464  0.00  0.00    +0.000 HD
ENDBRANCH  31  32
ENDBRANCH   1  31
TORSDOF 8
ENDMDL
MODEL 8
REMARK VINA RESULT:    -7.177      3.347      7.810
REMARK INTER + INTRA:         -10.982
REMARK INTER:                  -9.787
REMARK INTRA:                  -1.196
REMARK UNBOUND:                -0.659
REMARK  Name = 
REMARK  8 active torsions:
REMARK  status: ('A' for Active; 'I' for Inactive)
REMARK    1  A    between atoms: N_1  and  C_2
REMARK    2  A    between atoms: C_2  and  C_3
REMARK    3  A    between atoms: C_3  and  N_4
REMARK    4  A    between atoms: C_3  and  C_17
REMARK    5  A    between atoms: C_5  and  C_7
REMARK    6  A    between atoms: C_20  and  O_21
REMARK    7  A    between atoms: O_21  and  C_22
REMARK    8  A    between atoms: C_22  and  C_23
REMARK                            x       y       z     vdW  Elec       q    Type
REMARK                         _______ _______ _______ _____ _____    ______ ____
ROOT
ATOM      1  C   UNL     1      47.801   7.356  13.187  0.00  0.00    +0.000 C 
ENDROOT
BRANCH   1   2
ATOM      2  C   UNL     1      48.125   6.634  14.494  0.00  0.00    +0.000 A 
ATOM      3  C   UNL     1      47.558   5.390  14.806  0.00  0.00    +0.000 A 
ATOM      4  C   UNL     1      47.901   4.736  15.995  0.00  0.00    +0.000 A 
ATOM      5  C   UNL     1      48.823   5.307  16.876  0.00  0.00    +0.000 A 
ATOM      6  C   UNL     1      49.349   6.567  16.597  0.00  0.00    +0.000 A 
ATOM      7  C   UNL     1      49.019   7.214  15.409  0.00  0.00    +0.000 A 
BRANCH   5   8
ATOM      8  O   UNL     1      49.158   4.556  17.973  0.00  0.00    +0.000 OA
BRANCH   8   9
ATOM      9  C   UNL     1      49.284   3.151  17.708  0.00  0.00    +0.000 C 
BRANCH   9  10
ATOM     10  C   UNL     1      50.723   2.695  17.742  0.00  0.00    +0.000 A 
ATOM     11  C   UNL     1      51.754   3.571  18.069  0.00  0.00    +0.000 A 
ATOM     12  C   UNL     1      53.063   3.096  18.060  0.00  0.00    +0.000 A 
ATOM     13  C   UNL     1      53.309   1.773  17.714  0.00  0.00    +0.000 A 
ATOM     14  C   UNL     1      52.231   0.973  17.381  0.00  0.00    +0.000 A 
ATOM     15  N   UNL     1      50.952   1.403  17.382  0.00  0.00    +0.000 NA
ENDBRANCH   9  10
ENDBRANCH   8   9
ENDBRANCH   5   8
ENDBRANCH   1   2
BRANCH   1  16
ATOM     16  N   UNL     1      47.181   6.381  12.295  0.00  0.00    +0.000 N 
ATOM     17  C   UNL     1      46.025   6.600  11.595  0.00  0.00    +0.000 C 
ATOM     18  O   UNL     1      45.453   7.684  11.573  0.00  0.00    +0.000 OA
ATOM     19  H   UNL     1      47.446   5.417  12.472  0.00  0.00    +0.000 HD
BRANCH  17  20
ATOM     20  C   UNL     1      45.530   5.464  10.805  0.00  0.00    +0.000 A 
ATOM     21  C   UNL     1      45.692   5.458   9.426  0.00  0.00    +0.000 A 
ATOM     22  S   UNL     1      45.057   4.065   8.672  0.00  0.00    +0.000 S 
ATOM     23  C   UNL     1      44.507   3.443  10.157  0.00  0.00    +0.000 A 
ATOM     24  N   UNL     1      43.821   2.271  10.214  0.00  0.00    +0.000 NA
ATOM     25  C   UNL     1      43.442   1.934  11.403  0.00  0.00    +0.000 A 
ATOM     26  N   UNL     1      43.700   2.654  12.540  0.00  0.00    +0.000 N 
ATOM     27  C   UNL     1      44.427   3.820  12.539  0.00  0.00    +0.000 A 
ATOM     28  O   UNL     1      44.714   4.400  13.580  0.00  0.00    +0.000 OA
ATOM     29  C   UNL     1      44.842   4.265  11.218  0.00  0.00    +0.000 A 
ATOM     30  H   UNL     1      43.399   2.320  13.444  0.00  0.00    +0.000 HD
ENDBRANCH  17  20
ENDBRANCH   1  16
BRANCH   1  31
ATOM     31  C   UNL     1      49.090   8.000  12.589  0.00  0.00    +0.000 C 
BRANCH  31  32
ATOM     32  N   UNL     1      50.084   7.029  12.103  0.00  0.00    +0.000 NA
ATOM     33  H   UNL     1      49.931   6.878  11.107  0.00  0.00    +0.000 HD
ATOM     34  H   UNL     1      49.928   6.127  12.553  0.00  0.00    +0.000 HD
ENDBRANCH  31  32
ENDBRANCH   1  31
TORSDOF 8
ENDMDL
MODEL 9
REMARK VINA RESULT:    -7.056      2.776      3.816
REMARK INTER + INTRA:         -10.808
REMARK INTER:                  -9.469
REMARK INTRA:                  -1.340
REMARK UNBOUND:                -0.659
REMARK  Name = 
REMARK  8 active torsions:
REMARK  status: ('A' for Active; 'I' for Inactive)
REMARK    1  A    between atoms: N_1  and  C_2
REMARK    2  A    between atoms: C_2  and  C_3
REMARK    3  A    between atoms: C_3  and  N_4
REMARK    4  A    between atoms: C_3  and  C_17
REMARK    5  A    between atoms: C_5  and  C_7
REMARK    6  A    between atoms: C_20  and  O_21
REMARK    7  A    between atoms: O_21  and  C_22
REMARK    8  A    between atoms: C_22  and  C_23
REMARK                            x       y       z     vdW  Elec       q    Type
REMARK                         _______ _______ _______ _____ _____    ______ ____
ROOT
ATOM      1  C   UNL     1      47.284   5.550  14.957  0.00  0.00    +0.000 C 
ENDROOT
BRANCH   1   2
ATOM      2  C   UNL     1      46.665   5.481  13.561  0.00  0.00    +0.000 A 
ATOM      3  C   UNL     1      46.918   6.465  12.596  0.00  0.00    +0.000 A 
ATOM      4  C   UNL     1      46.365   6.356  11.315  0.00  0.00    +0.000 A 
ATOM      5  C   UNL     1      45.568   5.259  10.979  0.00  0.00    +0.000 A 
ATOM      6  C   UNL     1      45.270   4.305  11.950  0.00  0.00    +0.000 A 
ATOM      7  C   UNL     1      45.829   4.404  13.221  0.00  0.00    +0.000 A 
BRANCH   5   8
ATOM      8  O   UNL     1      45.140   5.197   9.678  0.00  0.00    +0.000 OA
BRANCH   8   9
ATOM      9  C   UNL     1      44.580   3.930   9.302  0.00  0.00    +0.000 C 
BRANCH   9  10
ATOM     10  C   UNL     1      45.511   3.139   8.417  0.00  0.00    +0.000 A 
ATOM     11  C   UNL     1      46.117   3.714   7.304  0.00  0.00    +0.000 A 
ATOM     12  C   UNL     1      46.948   2.926   6.512  0.00  0.00    +0.000 A 
ATOM     13  C   UNL     1      47.140   1.589   6.841  0.00  0.00    +0.000 A 
ATOM     14  C   UNL     1      46.485   1.089   7.951  0.00  0.00    +0.000 A 
ATOM     15  N   UNL     1      45.676   1.827   8.738  0.00  0.00    +0.000 NA
ENDBRANCH   9  10
ENDBRANCH   8   9
ENDBRANCH   5   8
ENDBRANCH   1   2
BRANCH   1  16
ATOM     16  N   UNL     1      48.621   6.117  14.811  0.00  0.00    +0.000 N 
ATOM     17  C   UNL     1      48.966   7.389  15.184  0.00  0.00    +0.000 C 
ATOM     18  O   UNL     1      48.201   8.142  15.776  0.00  0.00    +0.000 OA
ATOM     19  H   UNL     1      49.200   5.661  14.113  0.00  0.00    +0.000 HD
BRANCH  17  20
ATOM     20  C   UNL     1      50.348   7.790  14.888  0.00  0.00    +0.000 A 
ATOM     21  C   UNL     1      50.596   8.771  13.938  0.00  0.00    +0.000 A 
ATOM     22  S   UNL     1      52.255   9.107  13.722  0.00  0.00    +0.000 S 
ATOM     23  C   UNL     1      52.701   7.922  14.858  0.00  0.00    +0.000 A 
ATOM     24  N   UNL     1      54.009   7.659  15.120  0.00  0.00    +0.000 NA
ATOM     25  C   UNL     1      54.199   6.717  15.984  0.00  0.00    +0.000 A 
ATOM     26  N   UNL     1      53.202   6.025  16.621  0.00  0.00    +0.000 N 
ATOM     27  C   UNL     1      51.868   6.285  16.423  0.00  0.00    +0.000 A 
ATOM     28  O   UNL     1      50.998   5.708  17.067  0.00  0.00    +0.000 OA
ATOM     29  C   UNL     1      51.598   7.310  15.427  0.00  0.00    +0.000 A 
ATOM     30  H   UNL     1      53.419   5.319  17.308  0.00  0.00    +0.000 HD
ENDBRANCH  17  20
ENDBRANCH   1  16
BRANCH   1  31
ATOM     31  C   UNL     1      47.288   4.138  15.620  0.00  0.00    +0.000 C 
BRANCH  31  32
ATOM     32  N   UNL     1      48.477   3.855  16.439  0.00  0.00    +0.000 NA
ATOM     33  H   UNL     1      49.299   4.213  15.954  0.00  0.00    +0.000 HD
ATOM     34  H   UNL     1      48.609   2.846  16.511  0.00  0.00    +0.000 HD
ENDBRANCH  31  32
ENDBRANCH   1  31
TORSDOF 8
ENDMDL
