MODEL 1
REMARK VINA RESULT:    -7.017      0.000      0.000
REMARK INTER + INTRA:         -12.241
REMARK INTER:                 -10.914
REMARK INTRA:                  -1.327
REMARK UNBOUND:                -1.327
REMARK  Name = 
REMARK  10 active torsions:
REMARK  status: ('A' for Active; 'I' for Inactive)
REMARK    1  A    between atoms: N_1  and  C_2
REMARK    2  A    between atoms: C_2  and  C_3
REMARK    3  A    between atoms: C_3  and  N_4
REMARK    4  A    between atoms: N_4  and  C_5
REMARK    5  A    between atoms: C_5  and  C_6
REMARK    6  A    between atoms: C_9  and  C_10
REMARK    7  A    between atoms: C_10  and  C_11
REMARK    8  A    between atoms: C_14  and  C_15
REMARK    9  A    between atoms: C_15  and  N_16
REMARK   10  A    between atoms: C_17  and  C_19
REMARK                            x       y       z     vdW  Elec       q    Type
REMARK                         _______ _______ _______ _____ _____    ______ ____
ROOT
ATOM      1  C   UNL     1      45.617   6.733  12.745  0.00  0.00    +0.000 A 
ATOM      2  C   UNL     1      45.838   8.105  12.930  0.00  0.00    +0.000 A 
ATOM      3  C   UNL     1      47.028   8.566  13.503  0.00  0.00    +0.000 A 
ATOM      4  C   UNL     1      48.028   7.665  13.891  0.00  0.00    +0.000 A 
ATOM      5  C   UNL     1      47.792   6.293  13.741  0.00  0.00    +0.000 A 
ATOM      6  C   UNL     1      46.604   5.832  13.166  0.00  0.00    +0.000 A 
ENDROOT
BRANCH   1   7
ATOM      7  C   UNL     1      44.346   6.237  12.095  0.00  0.00    +0.000 C 
BRANCH   7  11
ATOM      8  C   UNL     1      44.907   3.410   8.947  0.00  0.00    +0.000 A 
ATOM      9  C   UNL     1      45.643   4.593   8.916  0.00  0.00    +0.000 A 
ATOM     10  C   UNL     1      45.471   5.519   9.941  0.00  0.00    +0.000 A 
ATOM     11  C   UNL     1      44.565   5.260  10.971  0.00  0.00    +0.000 A 
ATOM     12  C   UNL     1      43.879   4.051  10.920  0.00  0.00    +0.000 A 
ATOM     13  N   UNL     1      44.024   3.129   9.941  0.00  0.00    +0.000 NA
BRANCH   8  14
ATOM     14  C   UNL     1      45.158   2.338   7.904  0.00  0.00    +0.000 C 
BRANCH  14  15
ATOM     15  N   UNL     1      45.954   1.193   8.396  0.00  0.00    +0.000 NA
ATOM     16  H   UNL     1      46.388   1.498   9.272  0.00  0.00    +0.000 HD
BRANCH  15  17
ATOM     17  C   UNL     1      47.072   0.867   7.490  0.00  0.00    +0.000 C 
BRANCH  17  18
ATOM     18  C   UNL     1      47.821   2.105   6.958  0.00  0.00    +0.000 C 
BRANCH  18  19
ATOM     19  N   UNL     1      48.400   1.847   5.632  0.00  0.00    +0.000 NA
ATOM     20  H   UNL     1      48.616   2.738   5.193  0.00  0.00    +0.000 HD
ATOM     21  H   UNL     1      47.687   1.407   5.048  0.00  0.00    +0.000 HD
ENDBRANCH  18  19
ENDBRANCH  17  18
ENDBRANCH  15  17
ENDBRANCH  14  15
ENDBRANCH   8  14
ENDBRANCH   7  11
ENDBRANCH   1   7
BRANCH   4  22
ATOM     22  C   UNL     1      49.326   8.157  14.477  0.00  0.00    +0.000 C 
BRANCH  22  23
ATOM     23  N   UNL     1      49.453   7.790  15.865  0.00  0.00    +0.000 N 
ATOM     24  C   UNL     1      50.592   7.194  16.339  0.00  0.00    +0.000 C 
ATOM     25  O   UNL     1      51.572   7.005  15.618  0.00  0.00    +0.000 OA
ATOM     26  H   UNL     1      48.594   7.731  16.405  0.00  0.00    +0.000 HD
BRANCH  24  27
ATOM     27  C   UNL     1      50.611   6.839  17.762  0.00  0.00    +0.000 A 
ATOM     28  C   UNL     1      51.565   7.406  18.597  0.00  0.00    +0.000 A 
ATOM     29  S   UNL     1      51.424   6.923  20.226  0.00  0.00    +0.000 S 
ATOM     30  C   UNL     1      50.113   5.900  19.865  0.00  0.00    +0.000 A 
ATOM     31  N   UNL     1      49.522   5.155  20.837  0.00  0.00    +0.000 NA
ATOM     32  C   UNL     1      48.559   4.404  20.422  0.00  0.00    +0.000 A 
ATOM     33  N   UNL     1      48.130   4.332  19.121  0.00  0.00    +0.000 N 
ATOM     34  C   UNL     1      48.680   5.083  18.110  0.00  0.00    +0.000 A 
ATOM     35  O   UNL     1      48.250   5.020  16.964  0.00  0.00    +0.000 OA
ATOM     36  C   UNL     1      49.776   5.941  18.524  0.00  0.00    +0.000 A 
ATOM     37  H   UNL     1      47.366   3.726  18.863  0.00  0.00    +0.000 HD
ENDBRANCH  24  27
ENDBRANCH  22  23
ENDBRANCH   4  22
TORSDOF 10
ENDMDL
MODEL 2
REMARK VINA RESULT:    -6.864      5.071     10.398
REMARK INTER + INTRA:         -12.003
REMARK INTER:                 -10.952
REMARK INTRA:                  -1.051
REMARK UNBOUND:                -1.327
REMARK  Name = 
REMARK  10 active torsions:
REMARK  status: ('A' for Active; 'I' for Inactive)
REMARK    1  A    between atoms: N_1  and  C_2
REMARK    2  A    between atoms: C_2  and  C_3
REMARK    3  A    between atoms: C_3  and  N_4
REMARK    4  A    between atoms: N_4  and  C_5
REMARK    5  A    between atoms: C_5  and  C_6
REMARK    6  A    between atoms: C_9  and  C_10
REMARK    7  A    between atoms: C_10  and  C_11
REMARK    8  A    between atoms: C_14  and  C_15
REMARK    9  A    between atoms: C_15  and  N_16
REMARK   10  A    between atoms: C_17  and  C_19
REMARK                            x       y       z     vdW  Elec       q    Type
REMARK                         _______ _______ _______ _____ _____    ______ ____
ROOT
ATOM      1  C   UNL     1      51.442   4.076  17.530  0.00  0.00    +0.000 A 
ATOM      2  C   UNL     1      50.898   2.789  17.419  0.00  0.00    +0.000 A 
ATOM      3  C   UNL     1      49.529   2.609  17.203  0.00  0.00    +0.000 A 
ATOM      4  C   UNL     1      48.675   3.713  17.077  0.00  0.00    +0.000 A 
ATOM      5  C   UNL     1      49.212   4.998  17.224  0.00  0.00    +0.000 A 
ATOM      6  C   UNL     1      50.582   5.179  17.440  0.00  0.00    +0.000 A 
ENDROOT
BRANCH   1   7
ATOM      7  C   UNL     1      52.928   4.272  17.731  0.00  0.00    +0.000 C 
BRANCH   7  11
ATOM      8  C   UNL     1      54.917   0.935  19.500  0.00  0.00    +0.000 A 
ATOM      9  C   UNL     1      54.807   0.983  18.112  0.00  0.00    +0.000 A 
ATOM     10  C   UNL     1      54.163   2.069  17.525  0.00  0.00    +0.000 A 
ATOM     11  C   UNL     1      53.635   3.082  18.325  0.00  0.00    +0.000 A 
ATOM     12  C   UNL     1      53.798   2.952  19.700  0.00  0.00    +0.000 A 
ATOM     13  N   UNL     1      54.418   1.912  20.303  0.00  0.00    +0.000 NA
BRANCH   8  14
ATOM     14  C   UNL     1      55.710  -0.178  20.156  0.00  0.00    +0.000 C 
BRANCH  14  15
ATOM     15  N   UNL     1      54.877  -1.268  20.708  0.00  0.00    +0.000 NA
ATOM     16  H   UNL     1      55.253  -1.476  21.637  0.00  0.00    +0.000 HD
BRANCH  15  17
ATOM     17  C   UNL     1      55.016  -2.517  19.933  0.00  0.00    +0.000 C 
BRANCH  17  18
ATOM     18  C   UNL     1      53.696  -3.012  19.310  0.00  0.00    +0.000 C 
BRANCH  18  19
ATOM     19  N   UNL     1      52.676  -1.954  19.316  0.00  0.00    +0.000 NA
ATOM     20  H   UNL     1      52.739  -1.437  18.442  0.00  0.00    +0.000 HD
ATOM     21  H   UNL     1      52.903  -1.290  20.057  0.00  0.00    +0.000 HD
ENDBRANCH  18  19
ENDBRANCH  17  18
ENDBRANCH  15  17
ENDBRANCH  14  15
ENDBRANCH   8  14
ENDBRANCH   7  11
ENDBRANCH   1   7
BRANCH   4  22
ATOM     22  C   UNL     1      47.204   3.527  16.810  0.00  0.00    +0.000 C 
BRANCH  22  23
ATOM     23  N   UNL     1      46.719   4.472  15.837  0.00  0.00    +0.000 N 
ATOM     24  C   UNL     1      46.822   4.222  14.493  0.00  0.00    +0.000 C 
ATOM     25  O   UNL     1      47.273   3.159  14.065  0.00  0.00    +0.000 OA
ATOM     26  H   UNL     1      46.560   5.422  16.159  0.00  0.00    +0.000 HD
BRANCH  24  27
ATOM     27  C   UNL     1      46.319   5.259  13.585  0.00  0.00    +0.000 A 
ATOM     28  C   UNL     1      47.113   6.361  13.296  0.00  0.00    +0.000 A 
ATOM     29  S   UNL     1      46.400   7.449  12.194  0.00  0.00    +0.000 S 
ATOM     30  C   UNL     1      44.984   6.510  12.101  0.00  0.00    +0.000 A 
ATOM     31  N   UNL     1      43.937   6.903  11.327  0.00  0.00    +0.000 NA
ATOM     32  C   UNL     1      42.917   6.114  11.370  0.00  0.00    +0.000 A 
ATOM     33  N   UNL     1      42.850   4.965  12.114  0.00  0.00    +0.000 N 
ATOM     34  C   UNL     1      43.890   4.515  12.892  0.00  0.00    +0.000 A 
ATOM     35  O   UNL     1      43.810   3.465  13.518  0.00  0.00    +0.000 OA
ATOM     36  C   UNL     1      45.061   5.374  12.885  0.00  0.00    +0.000 A 
ATOM     37  H   UNL     1      42.022   4.388  12.099  0.00  0.00    +0.000 HD
ENDBRANCH  24  27
ENDBRANCH  22  23
ENDBRANCH   4  22
TORSDOF 10
ENDMDL
MODEL 3
REMARK VINA RESULT:    -6.781      1.726      1.883
REMARK INTER + INTRA:         -11.874
REMARK INTER:                 -10.581
REMARK INTRA:                  -1.293
REMARK UNBOUND:                -1.327
REMARK  Name = 
REMARK  10 active torsions:
REMARK  status: ('A' for Active; 'I' for Inactive)
REMARK    1  A    between atoms: N_1  and  C_2
REMARK    2  A    between atoms: C_2  and  C_3
REMARK    3  A    between atoms: C_3  and  N_4
REMARK    4  A    between atoms: N_4  and  C_5
REMARK    5  A    between atoms: C_5  and  C_6
REMARK    6  A    between atoms: C_9  and  C_10
REMARK    7  A    between atoms: C_10  and  C_11
REMARK    8  A    between atoms: C_14  and  C_15
REMARK    9  A    between atoms: C_15  and  N_16
REMARK   10  A    between atoms: C_17  and  C_19
REMARK                            x       y       z     vdW  Elec       q    Type
REMARK                         _______ _______ _______ _____ _____    ______ ____
ROOT
ATOM      1  C   UNL     1      45.646   6.490  12.887  0.00  0.00    +0.000 A 
ATOM      2  C   UNL     1      45.722   7.882  12.739  0.00  0.00    +0.000 A 
ATOM      3  C   UNL     1      46.887   8.574  13.085  0.00  0.00    +0.000 A 
ATOM      4  C   UNL     1      48.006   7.888  13.573  0.00  0.00    +0.000 A 
ATOM      5  C   UNL     1      47.918   6.502  13.755  0.00  0.00    +0.000 A 
ATOM      6  C   UNL     1      46.754   5.809  13.409  0.00  0.00    +0.000 A 
ENDROOT
BRANCH   1   7
ATOM      7  C   UNL     1      44.399   5.738  12.482  0.00  0.00    +0.000 C 
BRANCH   7  11
ATOM      8  C   UNL     1      44.867   3.113   9.149  0.00  0.00    +0.000 A 
ATOM      9  C   UNL     1      45.390   4.400   9.058  0.00  0.00    +0.000 A 
ATOM     10  C   UNL     1      45.247   5.263  10.142  0.00  0.00    +0.000 A 
ATOM     11  C   UNL     1      44.580   4.835  11.290  0.00  0.00    +0.000 A 
ATOM     12  C   UNL     1      44.096   3.532  11.292  0.00  0.00    +0.000 A 
ATOM     13  N   UNL     1      44.219   2.668  10.258  0.00  0.00    +0.000 NA
BRANCH   8  14
ATOM     14  C   UNL     1      45.107   2.120   8.029  0.00  0.00    +0.000 C 
BRANCH  14  15
ATOM     15  N   UNL     1      46.044   1.030   8.378  0.00  0.00    +0.000 NA
ATOM     16  H   UNL     1      46.553   1.343   9.210  0.00  0.00    +0.000 HD
BRANCH  15  17
ATOM     17  C   UNL     1      47.070   0.829   7.336  0.00  0.00    +0.000 C 
BRANCH  17  18
ATOM     18  C   UNL     1      47.444   2.116   6.575  0.00  0.00    +0.000 C 
BRANCH  18  19
ATOM     19  N   UNL     1      48.569   1.885   5.659  0.00  0.00    +0.000 NA
ATOM     20  H   UNL     1      49.318   2.532   5.893  0.00  0.00    +0.000 HD
ATOM     21  H   UNL     1      48.271   2.125   4.713  0.00  0.00    +0.000 HD
ENDBRANCH  18  19
ENDBRANCH  17  18
ENDBRANCH  15  17
ENDBRANCH  14  15
ENDBRANCH   8  14
ENDBRANCH   7  11
ENDBRANCH   1   7
BRANCH   4  22
ATOM     22  C   UNL     1      49.276   8.623  13.915  0.00  0.00    +0.000 C 
BRANCH  22  23
ATOM     23  N   UNL     1      50.251   7.747  14.511  0.00  0.00    +0.000 N 
ATOM     24  C   UNL     1      50.561   7.834  15.844  0.00  0.00    +0.000 C 
ATOM     25  O   UNL     1      49.977   8.616  16.594  0.00  0.00    +0.000 OA
ATOM     26  H   UNL     1      50.887   7.268  13.880  0.00  0.00    +0.000 HD
BRANCH  24  27
ATOM     27  C   UNL     1      51.584   6.911  16.348  0.00  0.00    +0.000 A 
ATOM     28  C   UNL     1      52.922   7.276  16.294  0.00  0.00    +0.000 A 
ATOM     29  S   UNL     1      53.977   6.113  16.958  0.00  0.00    +0.000 S 
ATOM     30  C   UNL     1      52.687   5.057  17.298  0.00  0.00    +0.000 A 
ATOM     31  N   UNL     1      52.910   3.841  17.864  0.00  0.00    +0.000 NA
ATOM     32  C   UNL     1      51.847   3.132  18.041  0.00  0.00    +0.000 A 
ATOM     33  N   UNL     1      50.578   3.530  17.707  0.00  0.00    +0.000 N 
ATOM     34  C   UNL     1      50.301   4.758  17.155  0.00  0.00    +0.000 A 
ATOM     35  O   UNL     1      49.151   5.096  16.900  0.00  0.00    +0.000 OA
ATOM     36  C   UNL     1      51.466   5.593  16.926  0.00  0.00    +0.000 A 
ATOM     37  H   UNL     1      49.787   2.927  17.877  0.00  0.00    +0.000 HD
ENDBRANCH  24  27
ENDBRANCH  22  23
ENDBRANCH   4  22
TORSDOF 10
ENDMDL
MODEL 4
REMARK VINA RESULT:    -6.772      5.173      7.492
REMARK INTER + INTRA:         -11.861
REMARK INTER:                 -10.584
REMARK INTRA:                  -1.277
REMARK UNBOUND:                -1.327
REMARK  Name = 
REMARK  10 active torsions:
REMARK  status: ('A' for Active; 'I' for Inactive)
REMARK    1  A    between atoms: N_1  and  C_2
REMARK    2  A    between atoms: C_2  and  C_3
REMARK    3  A    between atoms: C_3  and  N_4
REMARK    4  A    between atoms: N_4  and  C_5
REMARK    5  A    between atoms: C_5  and  C_6
REMARK    6  A    between atoms: C_9  and  C_10
REMARK    7  A    between atoms: C_10  and  C_11
REMARK    8  A    between atoms: C_14  and  C_15
REMARK    9  A    between atoms: C_15  and  N_16
REMARK   10  A    between atoms: C_17  and  C_19
REMARK                            x       y       z     vdW  Elec       q    Type
REMARK                         _______ _______ _______ _____ _____    ______ ____
ROOT
ATOM      1  C   UNL     1      47.443   7.476  12.578  0.00  0.00    +0.000 A 
ATOM      2  C   UNL     1      47.497   8.801  12.127  0.00  0.00    +0.000 A 
ATOM      3  C   UNL     1      48.715   9.380  11.756  0.00  0.00    +0.000 A 
ATOM      4  C   UNL     1      49.903   8.640  11.815  0.00  0.00    +0.000 A 
ATOM      5  C   UNL     1      49.854   7.328  12.300  0.00  0.00    +0.000 A 
ATOM      6  C   UNL     1      48.637   6.748  12.670  0.00  0.00    +0.000 A 
ENDROOT
BRANCH   1   7
ATOM      7  C   UNL     1      46.122   6.840  12.947  0.00  0.00    +0.000 C 
BRANCH   7  11
ATOM      8  C   UNL     1      44.851   3.684  10.369  0.00  0.00    +0.000 A 
ATOM      9  C   UNL     1      45.231   4.896   9.797  0.00  0.00    +0.000 A 
ATOM     10  C   UNL     1      45.652   5.930  10.629  0.00  0.00    +0.000 A 
ATOM     11  C   UNL     1      45.678   5.745  12.012  0.00  0.00    +0.000 A 
ATOM     12  C   UNL     1      45.286   4.500  12.491  0.00  0.00    +0.000 A 
ATOM     13  N   UNL     1      44.874   3.475  11.712  0.00  0.00    +0.000 NA
BRANCH   8  14
ATOM     14  C   UNL     1      44.497   2.508   9.479  0.00  0.00    +0.000 C 
BRANCH  14  15
ATOM     15  N   UNL     1      45.653   1.663   9.106  0.00  0.00    +0.000 NA
ATOM     16  H   UNL     1      46.375   1.836   9.811  0.00  0.00    +0.000 HD
BRANCH  15  17
ATOM     17  C   UNL     1      46.245   2.076   7.819  0.00  0.00    +0.000 C 
BRANCH  17  18
ATOM     18  C   UNL     1      47.294   1.087   7.273  0.00  0.00    +0.000 C 
BRANCH  18  19
ATOM     19  N   UNL     1      48.367   1.792   6.558  0.00  0.00    +0.000 NA
ATOM     20  H   UNL     1      49.189   1.193   6.532  0.00  0.00    +0.000 HD
ATOM     21  H   UNL     1      48.632   2.614   7.101  0.00  0.00    +0.000 HD
ENDBRANCH  18  19
ENDBRANCH  17  18
ENDBRANCH  15  17
ENDBRANCH  14  15
ENDBRANCH   8  14
ENDBRANCH   7  11
ENDBRANCH   1   7
BRANCH   4  22
ATOM     22  C   UNL     1      51.214   9.246  11.384  0.00  0.00    +0.000 C 
BRANCH  22  23
ATOM     23  N   UNL     1      51.657   8.709  10.124  0.00  0.00    +0.000 N 
ATOM     24  C   UNL     1      52.846   9.101   9.565  0.00  0.00    +0.000 C 
ATOM     25  O   UNL     1      53.609   9.875  10.143  0.00  0.00    +0.000 OA
ATOM     26  H   UNL     1      50.955   8.259   9.543  0.00  0.00    +0.000 HD
BRANCH  24  27
ATOM     27  C   UNL     1      53.195   8.511   8.267  0.00  0.00    +0.000 A 
ATOM     28  C   UNL     1      53.314   9.330   7.153  0.00  0.00    +0.000 A 
ATOM     29  S   UNL     1      53.765   8.497   5.735  0.00  0.00    +0.000 S 
ATOM     30  C   UNL     1      53.771   7.004   6.551  0.00  0.00    +0.000 A 
ATOM     31  N   UNL     1      54.060   5.850   5.891  0.00  0.00    +0.000 NA
ATOM     32  C   UNL     1      54.001   4.789   6.622  0.00  0.00    +0.000 A 
ATOM     33  N   UNL     1      53.682   4.776   7.956  0.00  0.00    +0.000 N 
ATOM     34  C   UNL     1      53.406   5.918   8.670  0.00  0.00    +0.000 A 
ATOM     35  O   UNL     1      53.159   5.874   9.869  0.00  0.00    +0.000 OA
ATOM     36  C   UNL     1      53.450   7.141   7.889  0.00  0.00    +0.000 A 
ATOM     37  H   UNL     1      53.659   3.910   8.472  0.00  0.00    +0.000 HD
ENDBRANCH  24  27
ENDBRANCH  22  23
ENDBRANCH   4  22
TORSDOF 10
ENDMDL
MODEL 5
REMARK VINA RESULT:    -6.717      4.956      6.977
REMARK INTER + INTRA:         -11.774
REMARK INTER:                 -10.728
REMARK INTRA:                  -1.046
REMARK UNBOUND:                -1.327
REMARK  Name = 
REMARK  10 active torsions:
REMARK  status: ('A' for Active; 'I' for Inactive)
REMARK    1  A    between atoms: N_1  and  C_2
REMARK    2  A    between atoms: C_2  and  C_3
REMARK    3  A    between atoms: C_3  and  N_4
REMARK    4  A    between atoms: N_4  and  C_5
REMARK    5  A    between atoms: C_5  and  C_6
REMARK    6  A    between atoms: C_9  and  C_10
REMARK    7  A    between atoms: C_10  and  C_11
REMARK    8  A    between atoms: C_14  and  C_15
REMARK    9  A    between atoms: C_15  and  N_16
REMARK   10  A    between atoms: C_17  and  C_19
REMARK                            x       y       z     vdW  Elec       q    Type
REMARK                         _______ _______ _______ _____ _____    ______ ____
ROOT
ATOM      1  C   UNL     1      47.213   7.318  12.519  0.00  0.00    +0.000 A 
ATOM      2  C   UNL     1      47.321   8.637  12.056  0.00  0.00    +0.000 A 
ATOM      3  C   UNL     1      48.571   9.195  11.774  0.00  0.00    +0.000 A 
ATOM      4  C   UNL     1      49.741   8.442  11.935  0.00  0.00    +0.000 A 
ATOM      5  C   UNL     1      49.637   7.137  12.433  0.00  0.00    +0.000 A 
ATOM      6  C   UNL     1      48.387   6.578  12.714  0.00  0.00    +0.000 A 
ENDROOT
BRANCH   1   7
ATOM      7  C   UNL     1      45.859   6.704  12.792  0.00  0.00    +0.000 C 
BRANCH   7  11
ATOM      8  C   UNL     1      44.920   3.421  10.231  0.00  0.00    +0.000 A 
ATOM      9  C   UNL     1      44.935   3.205  11.607  0.00  0.00    +0.000 A 
ATOM     10  C   UNL     1      45.237   4.271  12.451  0.00  0.00    +0.000 A 
ATOM     11  C   UNL     1      45.524   5.526  11.914  0.00  0.00    +0.000 A 
ATOM     12  C   UNL     1      45.479   5.647  10.529  0.00  0.00    +0.000 A 
ATOM     13  N   UNL     1      45.189   4.634   9.681  0.00  0.00    +0.000 NA
BRANCH   8  14
ATOM     14  C   UNL     1      44.486   2.306   9.298  0.00  0.00    +0.000 C 
BRANCH  14  15
ATOM     15  N   UNL     1      45.592   1.438   8.840  0.00  0.00    +0.000 NA
ATOM     16  H   UNL     1      46.291   1.442   9.588  0.00  0.00    +0.000 HD
BRANCH  15  17
ATOM     17  C   UNL     1      46.275   1.993   7.654  0.00  0.00    +0.000 C 
BRANCH  17  18
ATOM     18  C   UNL     1      47.559   1.234   7.266  0.00  0.00    +0.000 C 
BRANCH  18  19
ATOM     19  N   UNL     1      48.198   1.838   6.089  0.00  0.00    +0.000 NA
ATOM     20  H   UNL     1      49.197   1.652   6.129  0.00  0.00    +0.000 HD
ATOM     21  H   UNL     1      48.095   2.852   6.150  0.00  0.00    +0.000 HD
ENDBRANCH  18  19
ENDBRANCH  17  18
ENDBRANCH  15  17
ENDBRANCH  14  15
ENDBRANCH   8  14
ENDBRANCH   7  11
ENDBRANCH   1   7
BRANCH   4  22
ATOM     22  C   UNL     1      51.089   9.026  11.601  0.00  0.00    +0.000 C 
BRANCH  22  23
ATOM     23  N   UNL     1      52.045   7.998  11.276  0.00  0.00    +0.000 N 
ATOM     24  C   UNL     1      52.709   8.001  10.077  0.00  0.00    +0.000 C 
ATOM     25  O   UNL     1      52.564   8.910   9.259  0.00  0.00    +0.000 OA
ATOM     26  H   UNL     1      52.007   7.144  11.826  0.00  0.00    +0.000 HD
BRANCH  24  27
ATOM     27  C   UNL     1      53.645   6.898   9.835  0.00  0.00    +0.000 A 
ATOM     28  C   UNL     1      54.622   6.608  10.779  0.00  0.00    +0.000 A 
ATOM     29  S   UNL     1      55.598   5.272  10.367  0.00  0.00    +0.000 S 
ATOM     30  C   UNL     1      54.783   5.064   8.888  0.00  0.00    +0.000 A 
ATOM     31  N   UNL     1      55.150   4.083   8.021  0.00  0.00    +0.000 NA
ATOM     32  C   UNL     1      54.466   4.054   6.928  0.00  0.00    +0.000 A 
ATOM     33  N   UNL     1      53.445   4.917   6.622  0.00  0.00    +0.000 N 
ATOM     34  C   UNL     1      53.023   5.908   7.475  0.00  0.00    +0.000 A 
ATOM     35  O   UNL     1      52.085   6.641   7.186  0.00  0.00    +0.000 OA
ATOM     36  C   UNL     1      53.767   5.989   8.720  0.00  0.00    +0.000 A 
ATOM     37  H   UNL     1      52.946   4.837   5.749  0.00  0.00    +0.000 HD
ENDBRANCH  24  27
ENDBRANCH  22  23
ENDBRANCH   4  22
TORSDOF 10
ENDMDL
MODEL 6
REMARK VINA RESULT:    -6.675      3.278      9.230
REMARK INTER + INTRA:         -11.710
REMARK INTER:                 -10.382
REMARK INTRA:                  -1.328
REMARK UNBOUND:                -1.327
REMARK  Name = 
REMARK  10 active torsions:
REMARK  status: ('A' for Active; 'I' for Inactive)
REMARK    1  A    between atoms: N_1  and  C_2
REMARK    2  A    between atoms: C_2  and  C_3
REMARK    3  A    between atoms: C_3  and  N_4
REMARK    4  A    between atoms: N_4  and  C_5
REMARK    5  A    between atoms: C_5  and  C_6
REMARK    6  A    between atoms: C_9  and  C_10
REMARK    7  A    between atoms: C_10  and  C_11
REMARK    8  A    between atoms: C_14  and  C_15
REMARK    9  A    between atoms: C_15  and  N_16
REMARK   10  A    between atoms: C_17  and  C_19
REMARK                            x       y       z     vdW  Elec       q    Type
REMARK                         _______ _______ _______ _____ _____    ______ ____
ROOT
ATOM      1  C   UNL     1      49.587   8.600  15.515  0.00  0.00    +0.000 A 
ATOM      2  C   UNL     1      48.710   9.556  14.984  0.00  0.00    +0.000 A 
ATOM      3  C   UNL     1      48.169   9.397  13.705  0.00  0.00    +0.000 A 
ATOM      4  C   UNL     1      48.482   8.271  12.934  0.00  0.00    +0.000 A 
ATOM      5  C   UNL     1      49.386   7.334  13.448  0.00  0.00    +0.000 A 
ATOM      6  C   UNL     1      49.927   7.491  14.728  0.00  0.00    +0.000 A 
ENDROOT
BRANCH   1   7
ATOM      7  C   UNL     1      50.145   8.755  16.911  0.00  0.00    +0.000 C 
BRANCH   7  11
ATOM      8  C   UNL     1      49.066   5.657  19.642  0.00  0.00    +0.000 A 
ATOM      9  C   UNL     1      48.050   6.325  18.961  0.00  0.00    +0.000 A 
ATOM     10  C   UNL     1      48.392   7.334  18.064  0.00  0.00    +0.000 A 
ATOM     11  C   UNL     1      49.733   7.667  17.868  0.00  0.00    +0.000 A 
ATOM     12  C   UNL     1      50.677   6.942  18.587  0.00  0.00    +0.000 A 
ATOM     13  N   UNL     1      50.380   5.956  19.464  0.00  0.00    +0.000 NA
BRANCH   8  14
ATOM     14  C   UNL     1      48.726   4.481  20.537  0.00  0.00    +0.000 C 
BRANCH  14  15
ATOM     15  N   UNL     1      48.338   3.257  19.805  0.00  0.00    +0.000 NA
ATOM     16  H   UNL     1      48.734   2.471  20.327  0.00  0.00    +0.000 HD
BRANCH  15  17
ATOM     17  C   UNL     1      48.954   3.196  18.465  0.00  0.00    +0.000 C 
BRANCH  17  18
ATOM     18  C   UNL     1      47.970   2.801  17.346  0.00  0.00    +0.000 C 
BRANCH  18  19
ATOM     19  N   UNL     1      46.590   3.162  17.700  0.00  0.00    +0.000 NA
ATOM     20  H   UNL     1      45.958   2.496  17.263  0.00  0.00    +0.000 HD
ATOM     21  H   UNL     1      46.377   4.070  17.287  0.00  0.00    +0.000 HD
ENDBRANCH  18  19
ENDBRANCH  17  18
ENDBRANCH  15  17
ENDBRANCH  14  15
ENDBRANCH   8  14
ENDBRANCH   7  11
ENDBRANCH   1   7
BRANCH   4  22
ATOM     22  C   UNL     1      47.876   8.076  11.567  0.00  0.00    +0.000 C 
BRANCH  22  23
ATOM     23  N   UNL     1      47.106   6.861  11.498  0.00  0.00    +0.000 N 
ATOM     24  C   UNL     1      45.742   6.877  11.640  0.00  0.00    +0.000 C 
ATOM     25  O   UNL     1      45.117   7.929  11.767  0.00  0.00    +0.000 OA
ATOM     26  H   UNL     1      47.612   5.988  11.620  0.00  0.00    +0.000 HD
BRANCH  24  27
ATOM     27  C   UNL     1      45.054   5.582  11.576  0.00  0.00    +0.000 A 
ATOM     28  C   UNL     1      44.332   5.136  12.675  0.00  0.00    +0.000 A 
ATOM     29  S   UNL     1      43.559   3.637  12.424  0.00  0.00    +0.000 S 
ATOM     30  C   UNL     1      44.202   3.508  10.854  0.00  0.00    +0.000 A 
ATOM     31  N   UNL     1      43.941   2.420  10.080  0.00  0.00    +0.000 NA
ATOM     32  C   UNL     1      44.513   2.438   8.924  0.00  0.00    +0.000 A 
ATOM     33  N   UNL     1      45.321   3.447   8.469  0.00  0.00    +0.000 N 
ATOM     34  C   UNL     1      45.594   4.576   9.204  0.00  0.00    +0.000 A 
ATOM     35  O   UNL     1      46.293   5.476   8.753  0.00  0.00    +0.000 OA
ATOM     36  C   UNL     1      44.980   4.601  10.519  0.00  0.00    +0.000 A 
ATOM     37  H   UNL     1      45.734   3.402   7.549  0.00  0.00    +0.000 HD
ENDBRANCH  24  27
ENDBRANCH  22  23
ENDBRANCH   4  22
TORSDOF 10
ENDMDL
MODEL 7
REMARK VINA RESULT:    -6.555      4.829      9.378
REMARK INTER + INTRA:         -11.522
REMARK INTER:                  -9.989
REMARK INTRA:                  -1.533
REMARK UNBOUND:                -1.327
REMARK  Name = 
REMARK  10 active torsions:
REMARK  status: ('A' for Active; 'I' for Inactive)
REMARK    1  A    between atoms: N_1  and  C_2
REMARK    2  A    between atoms: C_2  and  C_3
REMARK    3  A    between atoms: C_3  and  N_4
REMARK    4  A    between atoms: N_4  and  C_5
REMARK    5  A    between atoms: C_5  and  C_6
REMARK    6  A    between atoms: C_9  and  C_10
REMARK    7  A    between atoms: C_10  and  C_11
REMARK    8  A    between atoms: C_14  and  C_15
REMARK    9  A    between atoms: C_15  and  N_16
REMARK   10  A    between atoms: C_17  and  C_19
REMARK                            x       y       z     vdW  Elec       q    Type
REMARK                         _______ _______ _______ _____ _____    ______ ____
ROOT
ATOM      1  C   UNL     1      49.975   4.966  17.444  0.00  0.00    +0.000 A 
ATOM      2  C   UNL     1      50.730   5.992  16.858  0.00  0.00    +0.000 A 
ATOM      3  C   UNL     1      50.192   6.781  15.837  0.00  0.00    +0.000 A 
ATOM      4  C   UNL     1      48.882   6.571  15.389  0.00  0.00    +0.000 A 
ATOM      5  C   UNL     1      48.140   5.524  15.948  0.00  0.00    +0.000 A 
ATOM      6  C   UNL     1      48.677   4.735  16.970  0.00  0.00    +0.000 A 
ENDROOT
BRANCH   1   7
ATOM      7  C   UNL     1      50.545   4.135  18.570  0.00  0.00    +0.000 C 
BRANCH   7  11
ATOM      8  C   UNL     1      53.651   1.460  17.383  0.00  0.00    +0.000 A 
ATOM      9  C   UNL     1      54.004   2.737  17.814  0.00  0.00    +0.000 A 
ATOM     10  C   UNL     1      52.998   3.616  18.208  0.00  0.00    +0.000 A 
ATOM     11  C   UNL     1      51.663   3.214  18.158  0.00  0.00    +0.000 A 
ATOM     12  C   UNL     1      51.407   1.920  17.720  0.00  0.00    +0.000 A 
ATOM     13  N   UNL     1      52.359   1.041  17.332  0.00  0.00    +0.000 NA
BRANCH   8  14
ATOM     14  C   UNL     1      54.733   0.449  17.056  0.00  0.00    +0.000 C 
BRANCH  14  15
ATOM     15  N   UNL     1      54.223  -0.908  16.763  0.00  0.00    +0.000 NA
ATOM     16  H   UNL     1      53.221  -0.891  16.974  0.00  0.00    +0.000 HD
BRANCH  15  17
ATOM     17  C   UNL     1      54.803  -1.923  17.664  0.00  0.00    +0.000 C 
BRANCH  17  18
ATOM     18  C   UNL     1      54.215  -1.897  19.089  0.00  0.00    +0.000 C 
BRANCH  18  19
ATOM     19  N   UNL     1      52.765  -1.663  19.061  0.00  0.00    +0.000 NA
ATOM     20  H   UNL     1      52.598  -0.664  18.961  0.00  0.00    +0.000 HD
ATOM     21  H   UNL     1      52.377  -1.927  19.967  0.00  0.00    +0.000 HD
ENDBRANCH  18  19
ENDBRANCH  17  18
ENDBRANCH  15  17
ENDBRANCH  14  15
ENDBRANCH   8  14
ENDBRANCH   7  11
ENDBRANCH   1   7
BRANCH   4  22
ATOM     22  C   UNL     1      48.284   7.440  14.313  0.00  0.00    +0.000 C 
BRANCH  22  23
ATOM     23  N   UNL     1      47.054   6.886  13.807  0.00  0.00    +0.000 N 
ATOM     24  C   UNL     1      46.800   6.837  12.461  0.00  0.00    +0.000 C 
ATOM     25  O   UNL     1      47.632   7.203  11.631  0.00  0.00    +0.000 OA
ATOM     26  H   UNL     1      46.286   6.794  14.466  0.00  0.00    +0.000 HD
BRANCH  24  27
ATOM     27  C   UNL     1      45.508   6.274  12.051  0.00  0.00    +0.000 A 
ATOM     28  C   UNL     1      44.541   7.107  11.503  0.00  0.00    +0.000 A 
ATOM     29  S   UNL     1      43.117   6.291  11.041  0.00  0.00    +0.000 S 
ATOM     30  C   UNL     1      43.723   4.803  11.601  0.00  0.00    +0.000 A 
ATOM     31  N   UNL     1      42.974   3.671  11.523  0.00  0.00    +0.000 NA
ATOM     32  C   UNL     1      43.543   2.621  12.008  0.00  0.00    +0.000 A 
ATOM     33  N   UNL     1      44.797   2.598  12.563  0.00  0.00    +0.000 N 
ATOM     34  C   UNL     1      45.600   3.710  12.643  0.00  0.00    +0.000 A 
ATOM     35  O   UNL     1      46.729   3.648  13.114  0.00  0.00    +0.000 OA
ATOM     36  C   UNL     1      45.001   4.924  12.117  0.00  0.00    +0.000 A 
ATOM     37  H   UNL     1      45.187   1.739  12.922  0.00  0.00    +0.000 HD
ENDBRANCH  24  27
ENDBRANCH  22  23
ENDBRANCH   4  22
TORSDOF 10
ENDMDL
MODEL 8
REMARK VINA RESULT:    -6.529      4.876      9.338
REMARK INTER + INTRA:         -11.482
REMARK INTER:                 -10.300
REMARK INTRA:                  -1.183
REMARK UNBOUND:                -1.327
REMARK  Name = 
REMARK  10 active torsions:
REMARK  status: ('A' for Active; 'I' for Inactive)
REMARK    1  A    between atoms: N_1  and  C_2
REMARK    2  A    between atoms: C_2  and  C_3
REMARK    3  A    between atoms: C_3  and  N_4
REMARK    4  A    between atoms: N_4  and  C_5
REMARK    5  A    between atoms: C_5  and  C_6
REMARK    6  A    between atoms: C_9  and  C_10
REMARK    7  A    between atoms: C_10  and  C_11
REMARK    8  A    between atoms: C_14  and  C_15
REMARK    9  A    between atoms: C_15  and  N_16
REMARK   10  A    between atoms: C_17  and  C_19
REMARK                            x       y       z     vdW  Elec       q    Type
REMARK                         _______ _______ _______ _____ _____    ______ ____
ROOT
ATOM      1  C   UNL     1      49.366   5.434  17.051  0.00  0.00    +0.000 A 
ATOM      2  C   UNL     1      48.220   4.954  16.403  0.00  0.00    +0.000 A 
ATOM      3  C   UNL     1      47.787   5.524  15.201  0.00  0.00    +0.000 A 
ATOM      4  C   UNL     1      48.501   6.578  14.615  0.00  0.00    +0.000 A 
ATOM      5  C   UNL     1      49.625   7.081  15.281  0.00  0.00    +0.000 A 
ATOM      6  C   UNL     1      50.058   6.510  16.482  0.00  0.00    +0.000 A 
ENDROOT
BRANCH   1   7
ATOM      7  C   UNL     1      49.852   4.795  18.332  0.00  0.00    +0.000 C 
BRANCH   7  11
ATOM      8  C   UNL     1      52.752   1.707  17.806  0.00  0.00    +0.000 A 
ATOM      9  C   UNL     1      51.466   1.501  17.310  0.00  0.00    +0.000 A 
ATOM     10  C   UNL     1      50.514   2.504  17.473  0.00  0.00    +0.000 A 
ATOM     11  C   UNL     1      50.853   3.687  18.131  0.00  0.00    +0.000 A 
ATOM     12  C   UNL     1      52.161   3.805  18.587  0.00  0.00    +0.000 A 
ATOM     13  N   UNL     1      53.110   2.852  18.444  0.00  0.00    +0.000 NA
BRANCH   8  14
ATOM     14  C   UNL     1      53.834   0.678  17.543  0.00  0.00    +0.000 C 
BRANCH  14  15
ATOM     15  N   UNL     1      53.516  -0.676  18.047  0.00  0.00    +0.000 NA
ATOM     16  H   UNL     1      53.390  -0.585  19.058  0.00  0.00    +0.000 HD
BRANCH  15  17
ATOM     17  C   UNL     1      54.644  -1.610  17.869  0.00  0.00    +0.000 C 
BRANCH  17  18
ATOM     18  C   UNL     1      55.270  -1.568  16.461  0.00  0.00    +0.000 C 
BRANCH  18  19
ATOM     19  N   UNL     1      54.356  -2.126  15.455  0.00  0.00    +0.000 NA
ATOM     20  H   UNL     1      53.451  -1.672  15.551  0.00  0.00    +0.000 HD
ATOM     21  H   UNL     1      54.203  -3.112  15.669  0.00  0.00    +0.000 HD
ENDBRANCH  18  19
ENDBRANCH  17  18
ENDBRANCH  15  17
ENDBRANCH  14  15
ENDBRANCH   8  14
ENDBRANCH   7  11
ENDBRANCH   1   7
BRANCH   4  22
ATOM     22  C   UNL     1      48.060   7.175  13.303  0.00  0.00    +0.000 C 
BRANCH  22  23
ATOM     23  N   UNL     1      47.389   6.203  12.478  0.00  0.00    +0.000 N 
ATOM     24  C   UNL     1      46.330   6.558  11.684  0.00  0.00    +0.000 C 
ATOM     25  O   UNL     1      45.950   7.726  11.596  0.00  0.00    +0.000 OA
ATOM     26  H   UNL     1      47.538   5.224  12.707  0.00  0.00    +0.000 HD
BRANCH  24  27
ATOM     27  C   UNL     1      45.702   5.489  10.900  0.00  0.00    +0.000 A 
ATOM     28  C   UNL     1      45.785   5.516   9.514  0.00  0.00    +0.000 A 
ATOM     29  S   UNL     1      45.042   4.182   8.757  0.00  0.00    +0.000 S 
ATOM     30  C   UNL     1      44.539   3.544  10.252  0.00  0.00    +0.000 A 
ATOM     31  N   UNL     1      43.815   2.395  10.313  0.00  0.00    +0.000 NA
ATOM     32  C   UNL     1      43.477   2.040  11.506  0.00  0.00    +0.000 A 
ATOM     33  N   UNL     1      43.800   2.729  12.647  0.00  0.00    +0.000 N 
ATOM     34  C   UNL     1      44.549   3.881  12.638  0.00  0.00    +0.000 A 
ATOM     35  O   UNL     1      44.849   4.453  13.679  0.00  0.00    +0.000 OA
ATOM     36  C   UNL     1      44.949   4.329  11.316  0.00  0.00    +0.000 A 
ATOM     37  H   UNL     1      43.508   2.393  13.552  0.00  0.00    +0.000 HD
ENDBRANCH  24  27
ENDBRANCH  22  23
ENDBRANCH   4  22
TORSDOF 10
ENDMDL
MODEL 9
REMARK VINA RESULT:    -6.509      5.297      8.638
REMARK INTER + INTRA:         -11.451
REMARK INTER:                 -10.326
REMARK INTRA:                  -1.125
REMARK UNBOUND:                -1.327
REMARK  Name = 
REMARK  10 active torsions:
REMARK  status: ('A' for Active; 'I' for Inactive)
REMARK    1  A    between atoms: N_1  and  C_2
REMARK    2  A    between atoms: C_2  and  C_3
REMARK    3  A    between atoms: C_3  and  N_4
REMARK    4  A    between atoms: N_4  and  C_5
REMARK    5  A    between atoms: C_5  and  C_6
REMARK    6  A    between atoms: C_9  and  C_10
REMARK    7  A    between atoms: C_10  and  C_11
REMARK    8  A    between atoms: C_14  and  C_15
REMARK    9  A    between atoms: C_15  and  N_16
REMARK   10  A    between atoms: C_17  and  C_19
REMARK                            x       y       z     vdW  Elec       q    Type
REMARK                         _______ _______ _______ _____ _____    ______ ____
ROOT
ATOM      1  C   UNL     1      50.808   8.719  11.672  0.00  0.00    +0.000 A 
ATOM      2  C   UNL     1      49.930   9.771  11.377  0.00  0.00    +0.000 A 
ATOM      3  C   UNL     1      48.549   9.610  11.520  0.00  0.00    +0.000 A 
ATOM      4  C   UNL     1      48.016   8.397  11.975  0.00  0.00    +0.000 A 
ATOM      5  C   UNL     1      48.890   7.334  12.235  0.00  0.00    +0.000 A 
ATOM      6  C   UNL     1      50.271   7.496  12.093  0.00  0.00    +0.000 A 
ENDROOT
BRANCH   1   7
ATOM      7  C   UNL     1      52.303   8.905  11.550  0.00  0.00    +0.000 C 
BRANCH   7  11
ATOM      8  C   UNL     1      54.263   6.175   8.918  0.00  0.00    +0.000 A 
ATOM      9  C   UNL     1      53.080   6.775   8.491  0.00  0.00    +0.000 A 
ATOM     10  C   UNL     1      52.435   7.670   9.341  0.00  0.00    +0.000 A 
ATOM     11  C   UNL     1      52.972   7.946  10.599  0.00  0.00    +0.000 A 
ATOM     12  C   UNL     1      54.158   7.305  10.936  0.00  0.00    +0.000 A 
ATOM     13  N   UNL     1      54.810   6.432  10.135  0.00  0.00    +0.000 NA
BRANCH   8  14
ATOM     14  C   UNL     1      55.041   5.284   7.969  0.00  0.00    +0.000 C 
BRANCH  14  15
ATOM     15  N   UNL     1      54.915   3.839   8.258  0.00  0.00    +0.000 NA
ATOM     16  H   UNL     1      55.505   3.656   9.074  0.00  0.00    +0.000 HD
BRANCH  15  17
ATOM     17  C   UNL     1      55.470   3.009   7.171  0.00  0.00    +0.000 C 
BRANCH  17  18
ATOM     18  C   UNL     1      54.405   2.208   6.395  0.00  0.00    +0.000 C 
BRANCH  18  19
ATOM     19  N   UNL     1      53.050   2.557   6.840  0.00  0.00    +0.000 NA
ATOM     20  H   UNL     1      52.610   3.132   6.125  0.00  0.00    +0.000 HD
ATOM     21  H   UNL     1      53.123   3.145   7.671  0.00  0.00    +0.000 HD
ENDBRANCH  18  19
ENDBRANCH  17  18
ENDBRANCH  15  17
ENDBRANCH  14  15
ENDBRANCH   8  14
ENDBRANCH   7  11
ENDBRANCH   1   7
BRANCH   4  22
ATOM     22  C   UNL     1      46.530   8.227  12.164  0.00  0.00    +0.000 C 
BRANCH  22  23
ATOM     23  N   UNL     1      46.113   6.876  11.890  0.00  0.00    +0.000 N 
ATOM     24  C   UNL     1      44.824   6.594  11.519  0.00  0.00    +0.000 C 
ATOM     25  O   UNL     1      43.991   7.484  11.344  0.00  0.00    +0.000 OA
ATOM     26  H   UNL     1      46.707   6.131  12.241  0.00  0.00    +0.000 HD
BRANCH  24  27
ATOM     27  C   UNL     1      44.495   5.183  11.285  0.00  0.00    +0.000 A 
ATOM     28  C   UNL     1      43.741   4.491  12.224  0.00  0.00    +0.000 A 
ATOM     29  S   UNL     1      43.411   2.878  11.782  0.00  0.00    +0.000 S 
ATOM     30  C   UNL     1      44.305   3.032  10.343  0.00  0.00    +0.000 A 
ATOM     31  N   UNL     1      44.445   1.980   9.492  0.00  0.00    +0.000 NA
ATOM     32  C   UNL     1      45.170   2.227   8.454  0.00  0.00    +0.000 A 
ATOM     33  N   UNL     1      45.766   3.432   8.186  0.00  0.00    +0.000 N 
ATOM     34  C   UNL     1      45.634   4.530   9.002  0.00  0.00    +0.000 A 
ATOM     35  O   UNL     1      46.151   5.603   8.716  0.00  0.00    +0.000 OA
ATOM     36  C   UNL     1      44.833   4.302  10.192  0.00  0.00    +0.000 A 
ATOM     37  H   UNL     1      46.318   3.561   7.351  0.00  0.00    +0.000 HD
ENDBRANCH  24  27
ENDBRANCH  22  23
ENDBRANCH   4  22
TORSDOF 10
ENDMDL
