MODEL 1
REMARK VINA RESULT:    -9.052      0.000      0.000
REMARK INTER + INTRA:         -12.415
REMARK INTER:                 -11.698
REMARK INTRA:                  -0.717
REMARK UNBOUND:                -0.717
REMARK  Name = 
REMARK  6 active torsions:
REMARK  status: ('A' for Active; 'I' for Inactive)
REMARK    1  A    between atoms: C_1  and  O_2
REMARK    2  A    between atoms: O_2  and  C_3
REMARK    3  A    between atoms: C_5  and  C_6
REMARK    4  A    between atoms: N_11  and  C_12
REMARK    5  A    between atoms: C_12  and  C_13
REMARK    6  A    between atoms: C_15  and  C_16
REMARK                            x       y       z     vdW  Elec       q    Type
REMARK                         _______ _______ _______ _____ _____    ______ ____
ROOT
ATOM      1  C   UNL     1      48.876   2.633  16.286  0.00  0.00    +0.000 A 
ATOM      2  C   UNL     1      48.851   3.517  17.327  0.00  0.00    +0.000 A 
ATOM      3  C   UNL     1      47.912   4.507  17.197  0.00  0.00    +0.000 A 
ATOM      4  N   UNL     1      47.057   4.629  16.147  0.00  0.00    +0.000 NA
ATOM      5  C   UNL     1      47.159   3.693  15.202  0.00  0.00    +0.000 A 
ATOM      6  N   UNL     1      46.296   3.679  14.118  0.00  0.00    +0.000 N 
ATOM      7  N   UNL     1      48.051   2.699  15.226  0.00  0.00    +0.000 NA
ATOM      8  H   UNL     1      46.723   3.071  13.427  0.00  0.00    +0.000 HD
ENDROOT
BRANCH   3   9
ATOM      9  C   UNL     1      47.789   5.538  18.274  0.00  0.00    +0.000 C 
ATOM     10  N   UNL     1      46.564   5.617  18.878  0.00  0.00    +0.000 N 
ATOM     11  O   UNL     1      48.716   6.268  18.598  0.00  0.00    +0.000 OA
ATOM     12  H   UNL     1      45.824   4.979  18.608  0.00  0.00    +0.000 HD
ATOM     13  H   UNL     1      46.422   6.276  19.629  0.00  0.00    +0.000 HD
ENDBRANCH   3   9
BRANCH   1  15
ATOM     14  C   UNL     1      50.926   1.953  17.190  0.00  0.00    +0.000 C 
ATOM     15  O   UNL     1      49.813   1.621  16.364  0.00  0.00    +0.000 OA
ENDBRANCH   1  15
BRANCH   6  16
ATOM     16  C   UNL     1      45.915   4.983  13.616  0.00  0.00    +0.000 C 
BRANCH  16  17
ATOM     17  C   UNL     1      45.123   4.805  12.344  0.00  0.00    +0.000 A 
ATOM     18  C   UNL     1      45.702   4.193  11.216  0.00  0.00    +0.000 A 
ATOM     19  C   UNL     1      44.999   4.036  10.003  0.00  0.00    +0.000 A 
ATOM     20  C   UNL     1      43.679   4.525   9.959  0.00  0.00    +0.000 A 
ATOM     21  C   UNL     1      43.091   5.135  11.071  0.00  0.00    +0.000 A 
ATOM     22  C   UNL     1      43.816   5.274  12.247  0.00  0.00    +0.000 A 
ATOM     23  F   UNL     1      43.240   5.878  13.296  0.00  0.00    +0.000 F 
BRANCH  19  24
ATOM     24  C   UNL     1      45.628   3.386   8.825  0.00  0.00    +0.000 A 
ATOM     25  C   UNL     1      46.047   4.135   7.708  0.00  0.00    +0.000 A 
ATOM     26  C   UNL     1      46.658   3.534   6.603  0.00  0.00    +0.000 A 
ATOM     27  C   UNL     1      46.849   2.157   6.578  0.00  0.00    +0.000 A 
ATOM     28  C   UNL     1      46.433   1.391   7.662  0.00  0.00    +0.000 A 
ATOM     29 CL   UNL     1      46.655  -0.316   7.632  0.00  0.00    +0.000 Cl
ATOM     30  C   UNL     1      45.837   1.994   8.774  0.00  0.00    +0.000 A 
ENDBRANCH  19  24
ENDBRANCH  16  17
ENDBRANCH   6  16
TORSDOF 5
ENDMDL
MODEL 2
REMARK VINA RESULT:    -8.571      2.482      3.401
REMARK INTER + INTRA:         -11.794
REMARK INTER:                 -11.153
REMARK INTRA:                  -0.641
REMARK UNBOUND:                -0.717
REMARK  Name = 
REMARK  6 active torsions:
REMARK  status: ('A' for Active; 'I' for Inactive)
REMARK    1  A    between atoms: C_1  and  O_2
REMARK    2  A    between atoms: O_2  and  C_3
REMARK    3  A    between atoms: C_5  and  C_6
REMARK    4  A    between atoms: N_11  and  C_12
REMARK    5  A    between atoms: C_12  and  C_13
REMARK    6  A    between atoms: C_15  and  C_16
REMARK                            x       y       z     vdW  Elec       q    Type
REMARK                         _______ _______ _______ _____ _____    ______ ____
ROOT
ATOM      1  C   UNL     1      48.716   7.603  13.946  0.00  0.00    +0.000 A 
ATOM      2  C   UNL     1      48.638   6.520  14.775  0.00  0.00    +0.000 A 
ATOM      3  C   UNL     1      47.558   5.710  14.537  0.00  0.00    +0.000 A 
ATOM      4  N   UNL     1      46.630   5.925  13.568  0.00  0.00    +0.000 NA
ATOM      5  C   UNL     1      46.823   7.002  12.805  0.00  0.00    +0.000 A 
ATOM      6  N   UNL     1      45.977   7.284  11.744  0.00  0.00    +0.000 N 
ATOM      7  N   UNL     1      47.832   7.862  12.966  0.00  0.00    +0.000 NA
ATOM      8  H   UNL     1      46.151   8.252  11.496  0.00  0.00    +0.000 HD
ENDROOT
BRANCH   3   9
ATOM      9  C   UNL     1      47.363   4.492  15.383  0.00  0.00    +0.000 C 
ATOM     10  N   UNL     1      47.122   4.728  16.710  0.00  0.00    +0.000 N 
ATOM     11  O   UNL     1      47.415   3.357  14.929  0.00  0.00    +0.000 OA
ATOM     12  H   UNL     1      47.056   5.680  17.051  0.00  0.00    +0.000 HD
ATOM     13  H   UNL     1      46.958   3.949  17.330  0.00  0.00    +0.000 HD
ENDBRANCH   3   9
BRANCH   1  15
ATOM     14  C   UNL     1      49.378   9.787  14.468  0.00  0.00    +0.000 C 
ATOM     15  O   UNL     1      49.782   8.457  14.152  0.00  0.00    +0.000 OA
ENDBRANCH   1  15
BRANCH   6  16
ATOM     16  C   UNL     1      44.582   6.963  11.966  0.00  0.00    +0.000 C 
BRANCH  16  17
ATOM     17  C   UNL     1      44.333   5.539  11.532  0.00  0.00    +0.000 A 
ATOM     18  C   UNL     1      45.016   4.993  10.429  0.00  0.00    +0.000 A 
ATOM     19  C   UNL     1      44.786   3.676   9.980  0.00  0.00    +0.000 A 
ATOM     20  C   UNL     1      43.831   2.916  10.684  0.00  0.00    +0.000 A 
ATOM     21  C   UNL     1      43.145   3.444  11.781  0.00  0.00    +0.000 A 
ATOM     22  C   UNL     1      43.396   4.747  12.191  0.00  0.00    +0.000 A 
ATOM     23  F   UNL     1      42.715   5.241  13.234  0.00  0.00    +0.000 F 
BRANCH  19  24
ATOM     24  C   UNL     1      45.519   3.118   8.814  0.00  0.00    +0.000 A 
ATOM     25  C   UNL     1      45.978   3.946   7.770  0.00  0.00    +0.000 A 
ATOM     26  C   UNL     1      46.686   3.432   6.679  0.00  0.00    +0.000 A 
ATOM     27  C   UNL     1      46.938   2.068   6.593  0.00  0.00    +0.000 A 
ATOM     28  C   UNL     1      46.486   1.226   7.604  0.00  0.00    +0.000 A 
ATOM     29 CL   UNL     1      46.783  -0.466   7.499  0.00  0.00    +0.000 Cl
ATOM     30  C   UNL     1      45.792   1.741   8.704  0.00  0.00    +0.000 A 
ENDBRANCH  19  24
ENDBRANCH  16  17
ENDBRANCH   6  16
TORSDOF 5
ENDMDL
MODEL 3
REMARK VINA RESULT:    -8.244      3.546      4.327
REMARK INTER + INTRA:         -11.371
REMARK INTER:                 -10.489
REMARK INTRA:                  -0.882
REMARK UNBOUND:                -0.717
REMARK  Name = 
REMARK  6 active torsions:
REMARK  status: ('A' for Active; 'I' for Inactive)
REMARK    1  A    between atoms: C_1  and  O_2
REMARK    2  A    between atoms: O_2  and  C_3
REMARK    3  A    between atoms: C_5  and  C_6
REMARK    4  A    between atoms: N_11  and  C_12
REMARK    5  A    between atoms: C_12  and  C_13
REMARK    6  A    between atoms: C_15  and  C_16
REMARK                            x       y       z     vdW  Elec       q    Type
REMARK                         _______ _______ _______ _____ _____    ______ ____
ROOT
ATOM      1  C   UNL     1      48.856   7.273  13.919  0.00  0.00    +0.000 A 
ATOM      2  C   UNL     1      49.348   8.300  13.164  0.00  0.00    +0.000 A 
ATOM      3  C   UNL     1      48.421   8.883  12.340  0.00  0.00    +0.000 A 
ATOM      4  N   UNL     1      47.118   8.508  12.256  0.00  0.00    +0.000 NA
ATOM      5  C   UNL     1      46.747   7.508  13.058  0.00  0.00    +0.000 A 
ATOM      6  N   UNL     1      45.428   7.086  13.104  0.00  0.00    +0.000 N 
ATOM      7  N   UNL     1      47.576   6.864  13.883  0.00  0.00    +0.000 NA
ATOM      8  H   UNL     1      45.440   6.177  13.556  0.00  0.00    +0.000 HD
ENDROOT
BRANCH   3   9
ATOM      9  C   UNL     1      48.842  10.019  11.462  0.00  0.00    +0.000 C 
ATOM     10  N   UNL     1      50.189  10.254  11.406  0.00  0.00    +0.000 N 
ATOM     11  O   UNL     1      48.042  10.699  10.834  0.00  0.00    +0.000 OA
ATOM     12  H   UNL     1      50.829   9.655  11.915  0.00  0.00    +0.000 HD
ATOM     13  H   UNL     1      50.540  10.990  10.813  0.00  0.00    +0.000 HD
ENDBRANCH   3   9
BRANCH   1  15
ATOM     14  C   UNL     1      49.460   6.844  16.139  0.00  0.00    +0.000 C 
ATOM     15  O   UNL     1      49.754   6.644  14.759  0.00  0.00    +0.000 OA
ENDBRANCH   1  15
BRANCH   6  16
ATOM     16  C   UNL     1      44.724   7.117  11.839  0.00  0.00    +0.000 C 
BRANCH  16  17
ATOM     17  C   UNL     1      44.423   5.702  11.412  0.00  0.00    +0.000 A 
ATOM     18  C   UNL     1      45.116   5.111  10.339  0.00  0.00    +0.000 A 
ATOM     19  C   UNL     1      44.840   3.800   9.895  0.00  0.00    +0.000 A 
ATOM     20  C   UNL     1      43.827   3.095  10.574  0.00  0.00    +0.000 A 
ATOM     21  C   UNL     1      43.130   3.667  11.642  0.00  0.00    +0.000 A 
ATOM     22  C   UNL     1      43.428   4.962  12.047  0.00  0.00    +0.000 A 
ATOM     23  F   UNL     1      42.736   5.500  13.061  0.00  0.00    +0.000 F 
BRANCH  19  24
ATOM     24  C   UNL     1      45.584   3.196   8.761  0.00  0.00    +0.000 A 
ATOM     25  C   UNL     1      46.091   3.985   7.710  0.00  0.00    +0.000 A 
ATOM     26  C   UNL     1      46.810   3.426   6.649  0.00  0.00    +0.000 A 
ATOM     27  C   UNL     1      47.025   2.054   6.601  0.00  0.00    +0.000 A 
ATOM     28  C   UNL     1      46.525   1.249   7.619  0.00  0.00    +0.000 A 
ATOM     29 CL   UNL     1      46.776  -0.453   7.559  0.00  0.00    +0.000 Cl
ATOM     30  C   UNL     1      45.820   1.809   8.689  0.00  0.00    +0.000 A 
ENDBRANCH  19  24
ENDBRANCH  16  17
ENDBRANCH   6  16
TORSDOF 5
ENDMDL
MODEL 4
REMARK VINA RESULT:    -8.222      1.612      2.297
REMARK INTER + INTRA:         -11.342
REMARK INTER:                 -10.592
REMARK INTRA:                  -0.750
REMARK UNBOUND:                -0.717
REMARK  Name = 
REMARK  6 active torsions:
REMARK  status: ('A' for Active; 'I' for Inactive)
REMARK    1  A    between atoms: C_1  and  O_2
REMARK    2  A    between atoms: O_2  and  C_3
REMARK    3  A    between atoms: C_5  and  C_6
REMARK    4  A    between atoms: N_11  and  C_12
REMARK    5  A    between atoms: C_12  and  C_13
REMARK    6  A    between atoms: C_15  and  C_16
REMARK                            x       y       z     vdW  Elec       q    Type
REMARK                         _______ _______ _______ _____ _____    ______ ____
ROOT
ATOM      1  C   UNL     1      49.117   6.436  15.893  0.00  0.00    +0.000 A 
ATOM      2  C   UNL     1      49.064   5.651  17.010  0.00  0.00    +0.000 A 
ATOM      3  C   UNL     1      48.180   4.608  16.920  0.00  0.00    +0.000 A 
ATOM      4  N   UNL     1      47.411   4.339  15.832  0.00  0.00    +0.000 NA
ATOM      5  C   UNL     1      47.565   5.161  14.792  0.00  0.00    +0.000 A 
ATOM      6  N   UNL     1      46.881   4.944  13.606  0.00  0.00    +0.000 N 
ATOM      7  N   UNL     1      48.386   6.214  14.786  0.00  0.00    +0.000 NA
ATOM      8  H   UNL     1      46.944   5.812  13.084  0.00  0.00    +0.000 HD
ENDROOT
BRANCH   3   9
ATOM      9  C   UNL     1      48.032   3.678  18.082  0.00  0.00    +0.000 C 
ATOM     10  N   UNL     1      47.097   2.690  17.931  0.00  0.00    +0.000 N 
ATOM     11  O   UNL     1      48.696   3.787  19.104  0.00  0.00    +0.000 OA
ATOM     12  H   UNL     1      46.583   2.607  17.061  0.00  0.00    +0.000 HD
ATOM     13  H   UNL     1      46.965   2.015  18.669  0.00  0.00    +0.000 HD
ENDBRANCH   3   9
BRANCH   1  15
ATOM     14  C   UNL     1      49.681   8.514  14.975  0.00  0.00    +0.000 C 
ATOM     15  O   UNL     1      49.986   7.509  15.937  0.00  0.00    +0.000 OA
ENDBRANCH   1  15
BRANCH   6  16
ATOM     16  C   UNL     1      45.536   4.430  13.755  0.00  0.00    +0.000 C 
BRANCH  16  17
ATOM     17  C   UNL     1      44.858   4.436  12.407  0.00  0.00    +0.000 A 
ATOM     18  C   UNL     1      45.485   3.863  11.285  0.00  0.00    +0.000 A 
ATOM     19  C   UNL     1      44.892   3.877  10.004  0.00  0.00    +0.000 A 
ATOM     20  C   UNL     1      43.632   4.495   9.888  0.00  0.00    +0.000 A 
ATOM     21  C   UNL     1      42.996   5.067  10.994  0.00  0.00    +0.000 A 
ATOM     22  C   UNL     1      43.614   5.038  12.238  0.00  0.00    +0.000 A 
ATOM     23  F   UNL     1      42.996   5.608  13.282  0.00  0.00    +0.000 F 
BRANCH  19  24
ATOM     24  C   UNL     1      45.570   3.266   8.832  0.00  0.00    +0.000 A 
ATOM     25  C   UNL     1      46.023   4.051   7.753  0.00  0.00    +0.000 A 
ATOM     26  C   UNL     1      46.680   3.487   6.656  0.00  0.00    +0.000 A 
ATOM     27  C   UNL     1      46.886   2.113   6.599  0.00  0.00    +0.000 A 
ATOM     28  C   UNL     1      46.439   1.313   7.644  0.00  0.00    +0.000 A 
ATOM     29 CL   UNL     1      46.679  -0.390   7.575  0.00  0.00    +0.000 Cl
ATOM     30  C   UNL     1      45.796   1.878   8.750  0.00  0.00    +0.000 A 
ENDBRANCH  19  24
ENDBRANCH  16  17
ENDBRANCH   6  16
TORSDOF 5
ENDMDL
MODEL 5
REMARK VINA RESULT:    -7.592      4.016      5.809
REMARK INTER + INTRA:         -10.529
REMARK INTER:                  -9.888
REMARK INTRA:                  -0.641
REMARK UNBOUND:                -0.717
REMARK  Name = 
REMARK  6 active torsions:
REMARK  status: ('A' for Active; 'I' for Inactive)
REMARK    1  A    between atoms: C_1  and  O_2
REMARK    2  A    between atoms: O_2  and  C_3
REMARK    3  A    between atoms: C_5  and  C_6
REMARK    4  A    between atoms: N_11  and  C_12
REMARK    5  A    between atoms: C_12  and  C_13
REMARK    6  A    between atoms: C_15  and  C_16
REMARK                            x       y       z     vdW  Elec       q    Type
REMARK                         _______ _______ _______ _____ _____    ______ ____
ROOT
ATOM      1  C   UNL     1      44.771  10.168  11.100  0.00  0.00    +0.000 A 
ATOM      2  C   UNL     1      45.795   9.871  11.953  0.00  0.00    +0.000 A 
ATOM      3  C   UNL     1      45.758   8.594  12.450  0.00  0.00    +0.000 A 
ATOM      4  N   UNL     1      44.808   7.673  12.142  0.00  0.00    +0.000 NA
ATOM      5  C   UNL     1      43.870   8.069  11.280  0.00  0.00    +0.000 A 
ATOM      6  N   UNL     1      42.889   7.193  10.843  0.00  0.00    +0.000 N 
ATOM      7  N   UNL     1      43.808   9.295  10.753  0.00  0.00    +0.000 NA
ATOM      8  H   UNL     1      42.163   7.769  10.429  0.00  0.00    +0.000 HD
ENDROOT
BRANCH   3   9
ATOM      9  C   UNL     1      46.828   8.151  13.397  0.00  0.00    +0.000 C 
ATOM     10  N   UNL     1      47.022   8.958  14.486  0.00  0.00    +0.000 N 
ATOM     11  O   UNL     1      47.491   7.139  13.218  0.00  0.00    +0.000 OA
ATOM     12  H   UNL     1      46.437   9.774  14.622  0.00  0.00    +0.000 HD
ATOM     13  H   UNL     1      47.712   8.702  15.176  0.00  0.00    +0.000 HD
ENDBRANCH   3   9
BRANCH   1  15
ATOM     14  C   UNL     1      44.162  11.516   9.286  0.00  0.00    +0.000 C 
ATOM     15  O   UNL     1      44.757  11.446  10.579  0.00  0.00    +0.000 OA
ENDBRANCH   1  15
BRANCH   6  16
ATOM     16  C   UNL     1      42.415   6.252  11.836  0.00  0.00    +0.000 C 
BRANCH  16  17
ATOM     17  C   UNL     1      43.231   4.987  11.741  0.00  0.00    +0.000 A 
ATOM     18  C   UNL     1      43.903   4.653  10.550  0.00  0.00    +0.000 A 
ATOM     19  C   UNL     1      44.651   3.464  10.417  0.00  0.00    +0.000 A 
ATOM     20  C   UNL     1      44.699   2.609  11.535  0.00  0.00    +0.000 A 
ATOM     21  C   UNL     1      44.038   2.927  12.725  0.00  0.00    +0.000 A 
ATOM     22  C   UNL     1      43.308   4.105  12.816  0.00  0.00    +0.000 A 
ATOM     23  F   UNL     1      42.666   4.383  13.959  0.00  0.00    +0.000 F 
BRANCH  19  24
ATOM     24  C   UNL     1      45.353   3.131   9.151  0.00  0.00    +0.000 A 
ATOM     25  C   UNL     1      45.645   4.119   8.190  0.00  0.00    +0.000 A 
ATOM     26  C   UNL     1      46.324   3.818   7.005  0.00  0.00    +0.000 A 
ATOM     27  C   UNL     1      46.714   2.510   6.740  0.00  0.00    +0.000 A 
ATOM     28  C   UNL     1      46.427   1.512   7.666  0.00  0.00    +0.000 A 
ATOM     29 CL   UNL     1      46.896  -0.112   7.339  0.00  0.00    +0.000 Cl
ATOM     30  C   UNL     1      45.763   1.815   8.859  0.00  0.00    +0.000 A 
ENDBRANCH  19  24
ENDBRANCH  16  17
ENDBRANCH   6  16
TORSDOF 5
ENDMDL
MODEL 6
REMARK VINA RESULT:    -7.587      2.736      4.577
REMARK INTER + INTRA:         -10.523
REMARK INTER:                  -9.584
REMARK INTRA:                  -0.939
REMARK UNBOUND:                -0.717
REMARK  Name = 
REMARK  6 active torsions:
REMARK  status: ('A' for Active; 'I' for Inactive)
REMARK    1  A    between atoms: C_1  and  O_2
REMARK    2  A    between atoms: O_2  and  C_3
REMARK    3  A    between atoms: C_5  and  C_6
REMARK    4  A    between atoms: N_11  and  C_12
REMARK    5  A    between atoms: C_12  and  C_13
REMARK    6  A    between atoms: C_15  and  C_16
REMARK                            x       y       z     vdW  Elec       q    Type
REMARK                         _______ _______ _______ _____ _____    ______ ____
ROOT
ATOM      1  C   UNL     1      47.878   5.340  18.650  0.00  0.00    +0.000 A 
ATOM      2  C   UNL     1      48.318   4.061  18.459  0.00  0.00    +0.000 A 
ATOM      3  C   UNL     1      49.085   3.894  17.336  0.00  0.00    +0.000 A 
ATOM      4  N   UNL     1      49.410   4.888  16.468  0.00  0.00    +0.000 NA
ATOM      5  C   UNL     1      48.943   6.101  16.770  0.00  0.00    +0.000 A 
ATOM      6  N   UNL     1      49.266   7.202  15.993  0.00  0.00    +0.000 N 
ATOM      7  N   UNL     1      48.174   6.364  17.830  0.00  0.00    +0.000 NA
ATOM      8  H   UNL     1      48.603   7.928  16.245  0.00  0.00    +0.000 HD
ENDROOT
BRANCH   3   9
ATOM      9  C   UNL     1      49.624   2.535  17.018  0.00  0.00    +0.000 C 
ATOM     10  N   UNL     1      50.600   2.076  17.861  0.00  0.00    +0.000 N 
ATOM     11  O   UNL     1      49.226   1.872  16.070  0.00  0.00    +0.000 OA
ATOM     12  H   UNL     1      50.888   2.636  18.655  0.00  0.00    +0.000 HD
ATOM     13  H   UNL     1      50.988   1.156  17.716  0.00  0.00    +0.000 HD
ENDBRANCH   3   9
BRANCH   1  15
ATOM     14  C   UNL     1      47.667   6.485  20.681  0.00  0.00    +0.000 C 
ATOM     15  O   UNL     1      47.091   5.559  19.764  0.00  0.00    +0.000 OA
ENDBRANCH   1  15
BRANCH   6  16
ATOM     16  C   UNL     1      49.361   6.946  14.571  0.00  0.00    +0.000 C 
BRANCH  16  17
ATOM     17  C   UNL     1      48.019   7.213  13.934  0.00  0.00    +0.000 A 
ATOM     18  C   UNL     1      47.289   6.171  13.332  0.00  0.00    +0.000 A 
ATOM     19  C   UNL     1      46.045   6.391  12.704  0.00  0.00    +0.000 A 
ATOM     20  C   UNL     1      45.555   7.711  12.698  0.00  0.00    +0.000 A 
ATOM     21  C   UNL     1      46.268   8.756  13.292  0.00  0.00    +0.000 A 
ATOM     22  C   UNL     1      47.491   8.501  13.898  0.00  0.00    +0.000 A 
ATOM     23  F   UNL     1      48.168   9.520  14.447  0.00  0.00    +0.000 F 
BRANCH  19  24
ATOM     24  C   UNL     1      45.290   5.277  12.075  0.00  0.00    +0.000 A 
ATOM     25  C   UNL     1      44.605   4.322  12.852  0.00  0.00    +0.000 A 
ATOM     26  C   UNL     1      43.875   3.282  12.268  0.00  0.00    +0.000 A 
ATOM     27  C   UNL     1      43.827   3.157  10.884  0.00  0.00    +0.000 A 
ATOM     28  C   UNL     1      44.505   4.079  10.093  0.00  0.00    +0.000 A 
ATOM     29 CL   UNL     1      44.461   3.923   8.379  0.00  0.00    +0.000 Cl
ATOM     30  C   UNL     1      45.221   5.129  10.676  0.00  0.00    +0.000 A 
ENDBRANCH  19  24
ENDBRANCH  16  17
ENDBRANCH   6  16
TORSDOF 5
ENDMDL
MODEL 7
REMARK VINA RESULT:    -7.334      3.567      4.162
REMARK INTER + INTRA:         -10.195
REMARK INTER:                  -9.436
REMARK INTRA:                  -0.760
REMARK UNBOUND:                -0.717
REMARK  Name = 
REMARK  6 active torsions:
REMARK  status: ('A' for Active; 'I' for Inactive)
REMARK    1  A    between atoms: C_1  and  O_2
REMARK    2  A    between atoms: O_2  and  C_3
REMARK    3  A    between atoms: C_5  and  C_6
REMARK    4  A    between atoms: N_11  and  C_12
REMARK    5  A    between atoms: C_12  and  C_13
REMARK    6  A    between atoms: C_15  and  C_16
REMARK                            x       y       z     vdW  Elec       q    Type
REMARK                         _______ _______ _______ _____ _____    ______ ____
ROOT
ATOM      1  C   UNL     1      49.616   9.223  12.528  0.00  0.00    +0.000 A 
ATOM      2  C   UNL     1      49.562   9.379  13.884  0.00  0.00    +0.000 A 
ATOM      3  C   UNL     1      48.544   8.687  14.486  0.00  0.00    +0.000 A 
ATOM      4  N   UNL     1      47.651   7.900  13.831  0.00  0.00    +0.000 NA
ATOM      5  C   UNL     1      47.816   7.806  12.510  0.00  0.00    +0.000 A 
ATOM      6  N   UNL     1      47.006   6.981  11.748  0.00  0.00    +0.000 N 
ATOM      7  N   UNL     1      48.765   8.453  11.828  0.00  0.00    +0.000 NA
ATOM      8  H   UNL     1      47.134   7.273  10.784  0.00  0.00    +0.000 HD
ENDROOT
BRANCH   3   9
ATOM      9  C   UNL     1      48.381   8.779  15.970  0.00  0.00    +0.000 C 
ATOM     10  N   UNL     1      48.234   7.585  16.623  0.00  0.00    +0.000 N 
ATOM     11  O   UNL     1      48.375   9.846  16.569  0.00  0.00    +0.000 OA
ATOM     12  H   UNL     1      48.272   6.716  16.103  0.00  0.00    +0.000 HD
ATOM     13  H   UNL     1      48.144   7.577  17.628  0.00  0.00    +0.000 HD
ENDBRANCH   3   9
BRANCH   1  15
ATOM     14  C   UNL     1      51.452   9.062  11.085  0.00  0.00    +0.000 C 
ATOM     15  O   UNL     1      50.619   9.909  11.871  0.00  0.00    +0.000 OA
ENDBRANCH   1  15
BRANCH   6  16
ATOM     16  C   UNL     1      45.623   6.910  12.173  0.00  0.00    +0.000 C 
BRANCH  16  17
ATOM     17  C   UNL     1      44.993   5.672  11.584  0.00  0.00    +0.000 A 
ATOM     18  C   UNL     1      45.572   5.029  10.474  0.00  0.00    +0.000 A 
ATOM     19  C   UNL     1      44.994   3.886   9.881  0.00  0.00    +0.000 A 
ATOM     20  C   UNL     1      43.795   3.409  10.447  0.00  0.00    +0.000 A 
ATOM     21  C   UNL     1      43.208   4.036  11.549  0.00  0.00    +0.000 A 
ATOM     22  C   UNL     1      43.806   5.161  12.103  0.00  0.00    +0.000 A 
ATOM     23  F   UNL     1      43.217   5.759  13.148  0.00  0.00    +0.000 F 
BRANCH  19  24
ATOM     24  C   UNL     1      45.622   3.222   8.711  0.00  0.00    +0.000 A 
ATOM     25  C   UNL     1      46.042   3.958   7.585  0.00  0.00    +0.000 A 
ATOM     26  C   UNL     1      46.653   3.342   6.488  0.00  0.00    +0.000 A 
ATOM     27  C   UNL     1      46.843   1.965   6.479  0.00  0.00    +0.000 A 
ATOM     28  C   UNL     1      46.426   1.213   7.572  0.00  0.00    +0.000 A 
ATOM     29 CL   UNL     1      46.647  -0.494   7.563  0.00  0.00    +0.000 Cl
ATOM     30  C   UNL     1      45.830   1.829   8.677  0.00  0.00    +0.000 A 
ENDBRANCH  19  24
ENDBRANCH  16  17
ENDBRANCH   6  16
TORSDOF 5
ENDMDL
MODEL 8
REMARK VINA RESULT:    -7.302      5.735      7.727
REMARK INTER + INTRA:         -10.153
REMARK INTER:                  -9.342
REMARK INTRA:                  -0.811
REMARK UNBOUND:                -0.717
REMARK  Name = 
REMARK  6 active torsions:
REMARK  status: ('A' for Active; 'I' for Inactive)
REMARK    1  A    between atoms: C_1  and  O_2
REMARK    2  A    between atoms: O_2  and  C_3
REMARK    3  A    between atoms: C_5  and  C_6
REMARK    4  A    between atoms: N_11  and  C_12
REMARK    5  A    between atoms: C_12  and  C_13
REMARK    6  A    between atoms: C_15  and  C_16
REMARK                            x       y       z     vdW  Elec       q    Type
REMARK                         _______ _______ _______ _____ _____    ______ ____
ROOT
ATOM      1  C   UNL     1      45.134   3.876   8.702  0.00  0.00    +0.000 A 
ATOM      2  C   UNL     1      44.419   3.072   9.543  0.00  0.00    +0.000 A 
ATOM      3  C   UNL     1      44.253   3.586  10.802  0.00  0.00    +0.000 A 
ATOM      4  N   UNL     1      44.733   4.788  11.215  0.00  0.00    +0.000 NA
ATOM      5  C   UNL     1      45.397   5.496  10.299  0.00  0.00    +0.000 A 
ATOM      6  N   UNL     1      45.875   6.764  10.589  0.00  0.00    +0.000 N 
ATOM      7  N   UNL     1      45.627   5.077   9.053  0.00  0.00    +0.000 NA
ATOM      8  H   UNL     1      46.551   6.981   9.864  0.00  0.00    +0.000 HD
ENDROOT
BRANCH   3   9
ATOM      9  C   UNL     1      43.487   2.795  11.815  0.00  0.00    +0.000 C 
ATOM     10  N   UNL     1      43.597   3.230  13.108  0.00  0.00    +0.000 N 
ATOM     11  O   UNL     1      42.808   1.822  11.518  0.00  0.00    +0.000 OA
ATOM     12  H   UNL     1      44.144   4.057  13.320  0.00  0.00    +0.000 HD
ATOM     13  H   UNL     1      43.086   2.755  13.837  0.00  0.00    +0.000 HD
ENDBRANCH   3   9
BRANCH   1  15
ATOM     14  C   UNL     1      46.697   3.494   7.001  0.00  0.00    +0.000 C 
ATOM     15  O   UNL     1      45.339   3.397   7.422  0.00  0.00    +0.000 OA
ENDBRANCH   1  15
BRANCH   6  16
ATOM     16  C   UNL     1      46.364   6.945  11.940  0.00  0.00    +0.000 C 
BRANCH  16  17
ATOM     17  C   UNL     1      47.458   7.984  11.929  0.00  0.00    +0.000 A 
ATOM     18  C   UNL     1      48.792   7.621  11.665  0.00  0.00    +0.000 A 
ATOM     19  C   UNL     1      49.844   8.562  11.675  0.00  0.00    +0.000 A 
ATOM     20  C   UNL     1      49.505   9.898  11.965  0.00  0.00    +0.000 A 
ATOM     21  C   UNL     1      48.185  10.274  12.228  0.00  0.00    +0.000 A 
ATOM     22  C   UNL     1      47.177   9.318  12.213  0.00  0.00    +0.000 A 
ATOM     23  F   UNL     1      45.921   9.696  12.486  0.00  0.00    +0.000 F 
BRANCH  19  24
ATOM     24  C   UNL     1      51.245   8.157  11.393  0.00  0.00    +0.000 A 
ATOM     25  C   UNL     1      52.305   8.540  12.239  0.00  0.00    +0.000 A 
ATOM     26  C   UNL     1      53.624   8.147  11.992  0.00  0.00    +0.000 A 
ATOM     27  C   UNL     1      53.922   7.373  10.876  0.00  0.00    +0.000 A 
ATOM     28  C   UNL     1      52.897   6.991  10.018  0.00  0.00    +0.000 A 
ATOM     29 CL   UNL     1      53.260   6.043   8.628  0.00  0.00    +0.000 Cl
ATOM     30  C   UNL     1      51.575   7.370  10.273  0.00  0.00    +0.000 A 
ENDBRANCH  19  24
ENDBRANCH  16  17
ENDBRANCH   6  16
TORSDOF 5
ENDMDL
MODEL 9
REMARK VINA RESULT:    -6.915      2.278      2.862
REMARK INTER + INTRA:          -9.654
REMARK INTER:                  -8.919
REMARK INTRA:                  -0.735
REMARK UNBOUND:                -0.717
REMARK  Name = 
REMARK  6 active torsions:
REMARK  status: ('A' for Active; 'I' for Inactive)
REMARK    1  A    between atoms: C_1  and  O_2
REMARK    2  A    between atoms: O_2  and  C_3
REMARK    3  A    between atoms: C_5  and  C_6
REMARK    4  A    between atoms: N_11  and  C_12
REMARK    5  A    between atoms: C_12  and  C_13
REMARK    6  A    between atoms: C_15  and  C_16
REMARK                            x       y       z     vdW  Elec       q    Type
REMARK                         _______ _______ _______ _____ _____    ______ ____
ROOT
ATOM      1  C   UNL     1      49.463   3.463  17.267  0.00  0.00    +0.000 A 
ATOM      2  C   UNL     1      50.059   4.353  18.115  0.00  0.00    +0.000 A 
ATOM      3  C   UNL     1      49.755   5.664  17.855  0.00  0.00    +0.000 A 
ATOM      4  N   UNL     1      48.932   6.083  16.858  0.00  0.00    +0.000 NA
ATOM      5  C   UNL     1      48.389   5.122  16.108  0.00  0.00    +0.000 A 
ATOM      6  N   UNL     1      47.484   5.429  15.105  0.00  0.00    +0.000 N 
ATOM      7  N   UNL     1      48.635   3.820  16.269  0.00  0.00    +0.000 NA
ATOM      8  H   UNL     1      47.423   4.602  14.519  0.00  0.00    +0.000 HD
ENDROOT
BRANCH   3   9
ATOM      9  C   UNL     1      50.350   6.733  18.716  0.00  0.00    +0.000 C 
ATOM     10  N   UNL     1      50.058   8.018  18.347  0.00  0.00    +0.000 N 
ATOM     11  O   UNL     1      51.053   6.484  19.686  0.00  0.00    +0.000 OA
ATOM     12  H   UNL     1      49.450   8.192  17.556  0.00  0.00    +0.000 HD
ATOM     13  H   UNL     1      50.409   8.785  18.900  0.00  0.00    +0.000 HD
ENDBRANCH   3   9
BRANCH   1  15
ATOM     14  C   UNL     1      51.135   1.829  17.379  0.00  0.00    +0.000 C 
ATOM     15  O   UNL     1      49.745   2.129  17.480  0.00  0.00    +0.000 OA
ENDBRANCH   1  15
BRANCH   6  16
ATOM     16  C   UNL     1      47.754   6.655  14.384  0.00  0.00    +0.000 C 
BRANCH  16  17
ATOM     17  C   UNL     1      46.743   6.802  13.273  0.00  0.00    +0.000 A 
ATOM     18  C   UNL     1      46.445   5.720  12.424  0.00  0.00    +0.000 A 
ATOM     19  C   UNL     1      45.527   5.831  11.358  0.00  0.00    +0.000 A 
ATOM     20  C   UNL     1      44.912   7.085  11.171  0.00  0.00    +0.000 A 
ATOM     21  C   UNL     1      45.197   8.168  12.007  0.00  0.00    +0.000 A 
ATOM     22  C   UNL     1      46.110   8.021  13.043  0.00  0.00    +0.000 A 
ATOM     23  F   UNL     1      46.383   9.077  13.821  0.00  0.00    +0.000 F 
BRANCH  19  24
ATOM     24  C   UNL     1      45.226   4.676  10.474  0.00  0.00    +0.000 A 
ATOM     25  C   UNL     1      44.447   3.591  10.922  0.00  0.00    +0.000 A 
ATOM     26  C   UNL     1      44.143   2.509  10.090  0.00  0.00    +0.000 A 
ATOM     27  C   UNL     1      44.628   2.475   8.787  0.00  0.00    +0.000 A 
ATOM     28  C   UNL     1      45.409   3.527   8.324  0.00  0.00    +0.000 A 
ATOM     29 CL   UNL     1      46.024   3.486   6.716  0.00  0.00    +0.000 Cl
ATOM     30  C   UNL     1      45.701   4.618   9.149  0.00  0.00    +0.000 A 
ENDBRANCH  19  24
ENDBRANCH  16  17
ENDBRANCH   6  16
TORSDOF 5
ENDMDL
