MODEL 1
REMARK VINA RESULT:    -7.558      0.000      0.000
REMARK INTER + INTRA:         -10.036
REMARK INTER:                  -9.546
REMARK INTRA:                  -0.490
REMARK UNBOUND:                -0.490
REMARK  Name = 
REMARK  5 active torsions:
REMARK  status: ('A' for Active; 'I' for Inactive)
REMARK    1  A    between atoms: N_1  and  C_2
REMARK    2  A    between atoms: C_2  and  C_3
REMARK    3  A    between atoms: C_3  and  C_4
REMARK    4  A    between atoms: C_7  and  C_8
REMARK    5  A    between atoms: C_8  and  N_9
REMARK                            x       y       z     vdW  Elec       q    Type
REMARK                         _______ _______ _______ _____ _____    ______ ____
ROOT
ATOM      1  C   UNL     1      46.219   2.366   8.384  0.00  0.00    +0.000 C 
ATOM      2  C   UNL     1      44.914   1.777   8.915  0.00  0.00    +0.000 C 
ATOM      3  C   UNL     1      44.288   2.650   9.993  0.00  0.00    +0.000 C 
ATOM      4  C   UNL     1      44.073   4.113   9.580  0.00  0.00    +0.000 C 
ATOM      5  C   UNL     1      45.382   4.694   9.007  0.00  0.00    +0.000 C 
ATOM      6  C   UNL     1      45.996   3.812   7.913  0.00  0.00    +0.000 C 
ENDROOT
BRANCH   1   7
ATOM      7  C   UNL     1      46.782   1.432   7.280  0.00  0.00    +0.000 C 
BRANCH   7   8
ATOM      8  C   UNL     1      47.223   2.159   6.015  0.00  0.00    +0.000 C 
BRANCH   8   9
ATOM      9  N   UNL     1      48.599   1.835   5.669  0.00  0.00    +0.000 NA
ATOM     10  H   UNL     1      48.818   2.224   4.753  0.00  0.00    +0.000 HD
ATOM     11  H   UNL     1      48.706   0.823   5.581  0.00  0.00    +0.000 HD
ENDBRANCH   8   9
ENDBRANCH   7   8
ENDBRANCH   1   7
BRANCH   4  12
ATOM     12  C   UNL     1      43.580   4.961  10.784  0.00  0.00    +0.000 C 
BRANCH  12  13
ATOM     13  N   UNL     1      44.591   5.775  11.458  0.00  0.00    +0.000 N 
ATOM     14  C   UNL     1      44.762   7.114  11.209  0.00  0.00    +0.000 A 
ATOM     15  C   UNL     1      45.762   7.586  12.025  0.00  0.00    +0.000 A 
ATOM     16  C   UNL     1      46.226   6.502  12.810  0.00  0.00    +0.000 A 
ATOM     17  C   UNL     1      47.180   6.398  13.841  0.00  0.00    +0.000 A 
ATOM     18  C   UNL     1      47.393   5.162  14.443  0.00  0.00    +0.000 A 
ATOM     19  F   UNL     1      48.241   5.073  15.475  0.00  0.00    +0.000 F 
ATOM     20  C   UNL     1      46.745   4.018  13.996  0.00  0.00    +0.000 A 
ATOM     21  C   UNL     1      45.835   4.091  12.929  0.00  0.00    +0.000 A 
ATOM     22  C   UNL     1      45.535   5.351  12.389  0.00  0.00    +0.000 A 
ENDBRANCH  12  13
ENDBRANCH   4  12
TORSDOF 5
ENDMDL
MODEL 2
REMARK VINA RESULT:    -7.382      1.207      1.977
REMARK INTER + INTRA:          -9.813
REMARK INTER:                  -9.447
REMARK INTRA:                  -0.366
REMARK UNBOUND:                -0.490
REMARK  Name = 
REMARK  5 active torsions:
REMARK  status: ('A' for Active; 'I' for Inactive)
REMARK    1  A    between atoms: N_1  and  C_2
REMARK    2  A    between atoms: C_2  and  C_3
REMARK    3  A    between atoms: C_3  and  C_4
REMARK    4  A    between atoms: C_7  and  C_8
REMARK    5  A    between atoms: C_8  and  N_9
REMARK                            x       y       z     vdW  Elec       q    Type
REMARK                         _______ _______ _______ _____ _____    ______ ____
ROOT
ATOM      1  C   UNL     1      46.345   2.364   8.178  0.00  0.00    +0.000 C 
ATOM      2  C   UNL     1      45.101   1.806   8.867  0.00  0.00    +0.000 C 
ATOM      3  C   UNL     1      44.601   2.721   9.975  0.00  0.00    +0.000 C 
ATOM      4  C   UNL     1      44.352   4.171   9.538  0.00  0.00    +0.000 C 
ATOM      5  C   UNL     1      45.595   4.720   8.808  0.00  0.00    +0.000 C 
ATOM      6  C   UNL     1      46.081   3.796   7.685  0.00  0.00    +0.000 C 
ENDROOT
BRANCH   1   7
ATOM      7  C   UNL     1      46.780   1.389   7.053  0.00  0.00    +0.000 C 
BRANCH   7   8
ATOM      8  C   UNL     1      47.174   2.076   5.751  0.00  0.00    +0.000 C 
BRANCH   8   9
ATOM      9  N   UNL     1      48.564   1.812   5.411  0.00  0.00    +0.000 NA
ATOM     10  H   UNL     1      48.631   0.910   4.942  0.00  0.00    +0.000 HD
ATOM     11  H   UNL     1      49.121   1.733   6.263  0.00  0.00    +0.000 HD
ENDBRANCH   8   9
ENDBRANCH   7   8
ENDBRANCH   1   7
BRANCH   4  12
ATOM     12  C   UNL     1      43.997   5.064  10.759  0.00  0.00    +0.000 C 
BRANCH  12  13
ATOM     13  N   UNL     1      44.935   5.025  11.881  0.00  0.00    +0.000 N 
ATOM     14  C   UNL     1      44.778   4.189  12.959  0.00  0.00    +0.000 A 
ATOM     15  C   UNL     1      45.840   4.372  13.812  0.00  0.00    +0.000 A 
ATOM     16  C   UNL     1      46.686   5.355  13.243  0.00  0.00    +0.000 A 
ATOM     17  C   UNL     1      47.926   5.899  13.628  0.00  0.00    +0.000 A 
ATOM     18  C   UNL     1      48.527   6.857  12.817  0.00  0.00    +0.000 A 
ATOM     19  F   UNL     1      49.740   7.321  13.138  0.00  0.00    +0.000 F 
ATOM     20  C   UNL     1      47.893   7.343  11.681  0.00  0.00    +0.000 A 
ATOM     21  C   UNL     1      46.628   6.856  11.313  0.00  0.00    +0.000 A 
ATOM     22  C   UNL     1      46.066   5.814  12.066  0.00  0.00    +0.000 A 
ENDBRANCH  12  13
ENDBRANCH   4  12
TORSDOF 5
ENDMDL
MODEL 3
REMARK VINA RESULT:    -6.662      2.129      3.365
REMARK INTER + INTRA:          -8.905
REMARK INTER:                  -8.356
REMARK INTRA:                  -0.548
REMARK UNBOUND:                -0.490
REMARK  Name = 
REMARK  5 active torsions:
REMARK  status: ('A' for Active; 'I' for Inactive)
REMARK    1  A    between atoms: N_1  and  C_2
REMARK    2  A    between atoms: C_2  and  C_3
REMARK    3  A    between atoms: C_3  and  C_4
REMARK    4  A    between atoms: C_7  and  C_8
REMARK    5  A    between atoms: C_8  and  N_9
REMARK                            x       y       z     vdW  Elec       q    Type
REMARK                         _______ _______ _______ _____ _____    ______ ____
ROOT
ATOM      1  C   UNL     1      45.469   3.221   7.536  0.00  0.00    +0.000 C 
ATOM      2  C   UNL     1      46.314   4.395   8.028  0.00  0.00    +0.000 C 
ATOM      3  C   UNL     1      45.656   5.128   9.188  0.00  0.00    +0.000 C 
ATOM      4  C   UNL     1      45.269   4.228  10.370  0.00  0.00    +0.000 C 
ATOM      5  C   UNL     1      44.450   3.022   9.866  0.00  0.00    +0.000 C 
ATOM      6  C   UNL     1      45.130   2.285   8.707  0.00  0.00    +0.000 C 
ENDROOT
BRANCH   1   7
ATOM      7  C   UNL     1      46.213   2.517   6.371  0.00  0.00    +0.000 C 
BRANCH   7   8
ATOM      8  C   UNL     1      47.486   1.793   6.793  0.00  0.00    +0.000 C 
BRANCH   8   9
ATOM      9  N   UNL     1      48.505   1.860   5.755  0.00  0.00    +0.000 NA
ATOM     10  H   UNL     1      49.242   1.189   5.962  0.00  0.00    +0.000 HD
ATOM     11  H   UNL     1      48.946   2.781   5.762  0.00  0.00    +0.000 HD
ENDBRANCH   8   9
ENDBRANCH   7   8
ENDBRANCH   1   7
BRANCH   4  12
ATOM     12  C   UNL     1      44.468   5.027  11.434  0.00  0.00    +0.000 C 
BRANCH  12  13
ATOM     13  N   UNL     1      45.209   6.058  12.161  0.00  0.00    +0.000 N 
ATOM     14  C   UNL     1      46.166   5.767  13.103  0.00  0.00    +0.000 A 
ATOM     15  C   UNL     1      46.693   6.948  13.569  0.00  0.00    +0.000 A 
ATOM     16  C   UNL     1      46.042   8.008  12.891  0.00  0.00    +0.000 A 
ATOM     17  C   UNL     1      46.202   9.407  12.912  0.00  0.00    +0.000 A 
ATOM     18  C   UNL     1      45.401  10.192  12.088  0.00  0.00    +0.000 A 
ATOM     19  F   UNL     1      45.602  11.514  12.046  0.00  0.00    +0.000 F 
ATOM     20  C   UNL     1      44.398   9.632  11.308  0.00  0.00    +0.000 A 
ATOM     21  C   UNL     1      44.183   8.244  11.319  0.00  0.00    +0.000 A 
ATOM     22  C   UNL     1      45.055   7.437  12.065  0.00  0.00    +0.000 A 
ENDBRANCH  12  13
ENDBRANCH   4  12
TORSDOF 5
ENDMDL
MODEL 4
REMARK VINA RESULT:    -6.516      2.931      6.464
REMARK INTER + INTRA:          -8.720
REMARK INTER:                  -8.233
REMARK INTRA:                  -0.486
REMARK UNBOUND:                -0.490
REMARK  Name = 
REMARK  5 active torsions:
REMARK  status: ('A' for Active; 'I' for Inactive)
REMARK    1  A    between atoms: N_1  and  C_2
REMARK    2  A    between atoms: C_2  and  C_3
REMARK    3  A    between atoms: C_3  and  C_4
REMARK    4  A    between atoms: C_7  and  C_8
REMARK    5  A    between atoms: C_8  and  N_9
REMARK                            x       y       z     vdW  Elec       q    Type
REMARK                         _______ _______ _______ _____ _____    ______ ____
ROOT
ATOM      1  C   UNL     1      48.048   6.860  12.894  0.00  0.00    +0.000 C 
ATOM      2  C   UNL     1      47.162   8.032  12.476  0.00  0.00    +0.000 C 
ATOM      3  C   UNL     1      45.892   7.569  11.778  0.00  0.00    +0.000 C 
ATOM      4  C   UNL     1      45.067   6.547  12.572  0.00  0.00    +0.000 C 
ATOM      5  C   UNL     1      45.971   5.383  13.027  0.00  0.00    +0.000 C 
ATOM      6  C   UNL     1      47.241   5.861  13.740  0.00  0.00    +0.000 C 
ENDROOT
BRANCH   1   7
ATOM      7  C   UNL     1      49.307   7.410  13.613  0.00  0.00    +0.000 C 
BRANCH   7   8
ATOM      8  C   UNL     1      49.380   7.062  15.095  0.00  0.00    +0.000 C 
BRANCH   8   9
ATOM      9  N   UNL     1      50.729   6.676  15.484  0.00  0.00    +0.000 NA
ATOM     10  H   UNL     1      50.980   5.809  15.013  0.00  0.00    +0.000 HD
ATOM     11  H   UNL     1      50.757   6.476  16.485  0.00  0.00    +0.000 HD
ENDBRANCH   8   9
ENDBRANCH   7   8
ENDBRANCH   1   7
BRANCH   4  12
ATOM     12  C   UNL     1      43.879   6.016  11.722  0.00  0.00    +0.000 C 
BRANCH  12  13
ATOM     13  N   UNL     1      44.006   4.648  11.220  0.00  0.00    +0.000 N 
ATOM     14  C   UNL     1      43.401   3.571  11.820  0.00  0.00    +0.000 A 
ATOM     15  C   UNL     1      43.688   2.444  11.087  0.00  0.00    +0.000 A 
ATOM     16  C   UNL     1      44.495   2.836   9.992  0.00  0.00    +0.000 A 
ATOM     17  C   UNL     1      45.035   2.138   8.894  0.00  0.00    +0.000 A 
ATOM     18  C   UNL     1      45.786   2.835   7.952  0.00  0.00    +0.000 A 
ATOM     19  F   UNL     1      46.236   2.193   6.867  0.00  0.00    +0.000 F 
ATOM     20  C   UNL     1      46.078   4.183   8.113  0.00  0.00    +0.000 A 
ATOM     21  C   UNL     1      45.599   4.883   9.232  0.00  0.00    +0.000 A 
ATOM     22  C   UNL     1      44.753   4.213  10.130  0.00  0.00    +0.000 A 
ENDBRANCH  12  13
ENDBRANCH   4  12
TORSDOF 5
ENDMDL
MODEL 5
REMARK VINA RESULT:    -6.338      3.020      6.759
REMARK INTER + INTRA:          -8.495
REMARK INTER:                  -8.267
REMARK INTRA:                  -0.228
REMARK UNBOUND:                -0.490
REMARK  Name = 
REMARK  5 active torsions:
REMARK  status: ('A' for Active; 'I' for Inactive)
REMARK    1  A    between atoms: N_1  and  C_2
REMARK    2  A    between atoms: C_2  and  C_3
REMARK    3  A    between atoms: C_3  and  C_4
REMARK    4  A    between atoms: C_7  and  C_8
REMARK    5  A    between atoms: C_8  and  N_9
REMARK                            x       y       z     vdW  Elec       q    Type
REMARK                         _______ _______ _______ _____ _____    ______ ____
ROOT
ATOM      1  C   UNL     1      46.884   5.147  13.068  0.00  0.00    +0.000 C 
ATOM      2  C   UNL     1      46.597   6.345  12.164  0.00  0.00    +0.000 C 
ATOM      3  C   UNL     1      45.917   5.933  10.866  0.00  0.00    +0.000 C 
ATOM      4  C   UNL     1      44.641   5.101  11.054  0.00  0.00    +0.000 C 
ATOM      5  C   UNL     1      44.922   3.915  11.999  0.00  0.00    +0.000 C 
ATOM      6  C   UNL     1      45.595   4.344  13.308  0.00  0.00    +0.000 C 
ENDROOT
BRANCH   1   7
ATOM      7  C   UNL     1      47.556   5.649  14.373  0.00  0.00    +0.000 C 
BRANCH   7   8
ATOM      8  C   UNL     1      47.489   4.659  15.529  0.00  0.00    +0.000 C 
BRANCH   8   9
ATOM      9  N   UNL     1      48.595   4.848  16.456  0.00  0.00    +0.000 NA
ATOM     10  H   UNL     1      49.193   5.601  16.118  0.00  0.00    +0.000 HD
ATOM     11  H   UNL     1      49.177   4.010  16.477  0.00  0.00    +0.000 HD
ENDBRANCH   8   9
ENDBRANCH   7   8
ENDBRANCH   1   7
BRANCH   4  12
ATOM     12  C   UNL     1      44.104   4.595   9.687  0.00  0.00    +0.000 C 
BRANCH  12  13
ATOM     13  N   UNL     1      44.715   3.372   9.166  0.00  0.00    +0.000 N 
ATOM     14  C   UNL     1      44.349   2.116   9.585  0.00  0.00    +0.000 A 
ATOM     15  C   UNL     1      45.082   1.191   8.882  0.00  0.00    +0.000 A 
ATOM     16  C   UNL     1      45.930   1.896   7.994  0.00  0.00    +0.000 A 
ATOM     17  C   UNL     1      46.845   1.486   7.004  0.00  0.00    +0.000 A 
ATOM     18  C   UNL     1      47.522   2.452   6.267  0.00  0.00    +0.000 A 
ATOM     19  F   UNL     1      48.333   2.069   5.273  0.00  0.00    +0.000 F 
ATOM     20  C   UNL     1      47.374   3.806   6.539  0.00  0.00    +0.000 A 
ATOM     21  C   UNL     1      46.512   4.232   7.562  0.00  0.00    +0.000 A 
ATOM     22  C   UNL     1      45.746   3.270   8.238  0.00  0.00    +0.000 A 
ENDBRANCH  12  13
ENDBRANCH   4  12
TORSDOF 5
ENDMDL
MODEL 6
REMARK VINA RESULT:    -5.621      3.551      6.659
REMARK INTER + INTRA:          -7.589
REMARK INTER:                  -7.070
REMARK INTRA:                  -0.519
REMARK UNBOUND:                -0.490
REMARK  Name = 
REMARK  5 active torsions:
REMARK  status: ('A' for Active; 'I' for Inactive)
REMARK    1  A    between atoms: N_1  and  C_2
REMARK    2  A    between atoms: C_2  and  C_3
REMARK    3  A    between atoms: C_3  and  C_4
REMARK    4  A    between atoms: C_7  and  C_8
REMARK    5  A    between atoms: C_8  and  N_9
REMARK                            x       y       z     vdW  Elec       q    Type
REMARK                         _______ _______ _______ _____ _____    ______ ____
ROOT
ATOM      1  C   UNL     1      49.402   9.073  12.153  0.00  0.00    +0.000 C 
ATOM      2  C   UNL     1      48.336   9.665  13.074  0.00  0.00    +0.000 C 
ATOM      3  C   UNL     1      46.928   9.295  12.632  0.00  0.00    +0.000 C 
ATOM      4  C   UNL     1      46.693   7.788  12.457  0.00  0.00    +0.000 C 
ATOM      5  C   UNL     1      47.792   7.185  11.559  0.00  0.00    +0.000 C 
ATOM      6  C   UNL     1      49.206   7.554  12.022  0.00  0.00    +0.000 C 
ENDROOT
BRANCH   1   7
ATOM      7  C   UNL     1      50.805   9.477  12.679  0.00  0.00    +0.000 C 
BRANCH   7   8
ATOM      8  C   UNL     1      51.269   8.678  13.891  0.00  0.00    +0.000 C 
BRANCH   8   9
ATOM      9  N   UNL     1      52.580   8.088  13.667  0.00  0.00    +0.000 NA
ATOM     10  H   UNL     1      53.067   8.000  14.558  0.00  0.00    +0.000 HD
ATOM     11  H   UNL     1      53.148   8.711  13.091  0.00  0.00    +0.000 HD
ENDBRANCH   8   9
ENDBRANCH   7   8
ENDBRANCH   1   7
BRANCH   4  12
ATOM     12  C   UNL     1      45.286   7.515  11.858  0.00  0.00    +0.000 C 
BRANCH  12  13
ATOM     13  N   UNL     1      44.792   6.142  11.969  0.00  0.00    +0.000 N 
ATOM     14  C   UNL     1      44.200   5.650  13.106  0.00  0.00    +0.000 A 
ATOM     15  C   UNL     1      43.821   4.349  12.873  0.00  0.00    +0.000 A 
ATOM     16  C   UNL     1      44.189   4.024  11.544  0.00  0.00    +0.000 A 
ATOM     17  C   UNL     1      44.006   2.878  10.747  0.00  0.00    +0.000 A 
ATOM     18  C   UNL     1      44.475   2.883   9.437  0.00  0.00    +0.000 A 
ATOM     19  F   UNL     1      44.236   1.826   8.651  0.00  0.00    +0.000 F 
ATOM     20  C   UNL     1      45.186   3.962   8.927  0.00  0.00    +0.000 A 
ATOM     21  C   UNL     1      45.431   5.090   9.727  0.00  0.00    +0.000 A 
ATOM     22  C   UNL     1      44.869   5.136  11.011  0.00  0.00    +0.000 A 
ENDBRANCH  12  13
ENDBRANCH   4  12
TORSDOF 5
ENDMDL
MODEL 7
REMARK VINA RESULT:    -5.598      1.602      2.523
REMARK INTER + INTRA:          -7.560
REMARK INTER:                  -7.161
REMARK INTRA:                  -0.399
REMARK UNBOUND:                -0.490
REMARK  Name = 
REMARK  5 active torsions:
REMARK  status: ('A' for Active; 'I' for Inactive)
REMARK    1  A    between atoms: N_1  and  C_2
REMARK    2  A    between atoms: C_2  and  C_3
REMARK    3  A    between atoms: C_3  and  C_4
REMARK    4  A    between atoms: C_7  and  C_8
REMARK    5  A    between atoms: C_8  and  N_9
REMARK                            x       y       z     vdW  Elec       q    Type
REMARK                         _______ _______ _______ _____ _____    ______ ____
ROOT
ATOM      1  C   UNL     1      44.953   3.690   8.457  0.00  0.00    +0.000 C 
ATOM      2  C   UNL     1      45.897   4.862   8.720  0.00  0.00    +0.000 C 
ATOM      3  C   UNL     1      45.661   5.491  10.086  0.00  0.00    +0.000 C 
ATOM      4  C   UNL     1      45.712   4.502  11.258  0.00  0.00    +0.000 C 
ATOM      5  C   UNL     1      44.788   3.301  10.973  0.00  0.00    +0.000 C 
ATOM      6  C   UNL     1      45.045   2.667   9.601  0.00  0.00    +0.000 C 
ENDROOT
BRANCH   1   7
ATOM      7  C   UNL     1      45.268   3.092   7.060  0.00  0.00    +0.000 C 
BRANCH   7   8
ATOM      8  C   UNL     1      46.747   2.808   6.824  0.00  0.00    +0.000 C 
BRANCH   8   9
ATOM      9  N   UNL     1      47.156   3.204   5.484  0.00  0.00    +0.000 NA
ATOM     10  H   UNL     1      47.522   4.154   5.511  0.00  0.00    +0.000 HD
ATOM     11  H   UNL     1      46.343   3.228   4.867  0.00  0.00    +0.000 HD
ENDBRANCH   8   9
ENDBRANCH   7   8
ENDBRANCH   1   7
BRANCH   4  12
ATOM     12  C   UNL     1      45.307   5.199  12.587  0.00  0.00    +0.000 C 
BRANCH  12  13
ATOM     13  N   UNL     1      46.390   5.833  13.339  0.00  0.00    +0.000 N 
ATOM     14  C   UNL     1      46.909   7.062  13.012  0.00  0.00    +0.000 A 
ATOM     15  C   UNL     1      47.880   7.384  13.930  0.00  0.00    +0.000 A 
ATOM     16  C   UNL     1      47.964   6.319  14.860  0.00  0.00    +0.000 A 
ATOM     17  C   UNL     1      48.724   6.119  16.029  0.00  0.00    +0.000 A 
ATOM     18  C   UNL     1      48.554   4.943  16.753  0.00  0.00    +0.000 A 
ATOM     19  F   UNL     1      49.216   4.782  17.906  0.00  0.00    +0.000 F 
ATOM     20  C   UNL     1      47.712   3.933  16.307  0.00  0.00    +0.000 A 
ATOM     21  C   UNL     1      46.991   4.089  15.111  0.00  0.00    +0.000 A 
ATOM     22  C   UNL     1      47.076   5.314  14.433  0.00  0.00    +0.000 A 
ENDBRANCH  12  13
ENDBRANCH   4  12
TORSDOF 5
ENDMDL
MODEL 8
REMARK VINA RESULT:    -5.481      1.862      3.096
REMARK INTER + INTRA:          -7.413
REMARK INTER:                  -6.880
REMARK INTRA:                  -0.533
REMARK UNBOUND:                -0.490
REMARK  Name = 
REMARK  5 active torsions:
REMARK  status: ('A' for Active; 'I' for Inactive)
REMARK    1  A    between atoms: N_1  and  C_2
REMARK    2  A    between atoms: C_2  and  C_3
REMARK    3  A    between atoms: C_3  and  C_4
REMARK    4  A    between atoms: C_7  and  C_8
REMARK    5  A    between atoms: C_8  and  N_9
REMARK                            x       y       z     vdW  Elec       q    Type
REMARK                         _______ _______ _______ _____ _____    ______ ____
ROOT
ATOM      1  C   UNL     1      44.902   3.653   8.355  0.00  0.00    +0.000 C 
ATOM      2  C   UNL     1      45.871   4.784   8.699  0.00  0.00    +0.000 C 
ATOM      3  C   UNL     1      45.610   5.360  10.083  0.00  0.00    +0.000 C 
ATOM      4  C   UNL     1      45.597   4.320  11.212  0.00  0.00    +0.000 C 
ATOM      5  C   UNL     1      44.648   3.160  10.846  0.00  0.00    +0.000 C 
ATOM      6  C   UNL     1      44.929   2.579   9.455  0.00  0.00    +0.000 C 
ENDROOT
BRANCH   1   7
ATOM      7  C   UNL     1      45.243   3.108   6.944  0.00  0.00    +0.000 C 
BRANCH   7   8
ATOM      8  C   UNL     1      46.723   2.813   6.731  0.00  0.00    +0.000 C 
BRANCH   8   9
ATOM      9  N   UNL     1      47.153   3.195   5.394  0.00  0.00    +0.000 NA
ATOM     10  H   UNL     1      47.525   4.143   5.417  0.00  0.00    +0.000 HD
ATOM     11  H   UNL     1      46.349   3.218   4.764  0.00  0.00    +0.000 HD
ENDBRANCH   8   9
ENDBRANCH   7   8
ENDBRANCH   1   7
BRANCH   4  12
ATOM     12  C   UNL     1      45.172   4.970  12.557  0.00  0.00    +0.000 C 
BRANCH  12  13
ATOM     13  N   UNL     1      46.256   5.330  13.471  0.00  0.00    +0.000 N 
ATOM     14  C   UNL     1      46.555   4.607  14.599  0.00  0.00    +0.000 A 
ATOM     15  C   UNL     1      47.640   5.186  15.214  0.00  0.00    +0.000 A 
ATOM     16  C   UNL     1      48.027   6.306  14.439  0.00  0.00    +0.000 A 
ATOM     17  C   UNL     1      49.086   7.230  14.542  0.00  0.00    +0.000 A 
ATOM     18  C   UNL     1      49.210   8.228  13.581  0.00  0.00    +0.000 A 
ATOM     19  F   UNL     1      50.257   9.060  13.630  0.00  0.00    +0.000 F 
ATOM     20  C   UNL     1      48.269   8.379  12.570  0.00  0.00    +0.000 A 
ATOM     21  C   UNL     1      47.173   7.505  12.486  0.00  0.00    +0.000 A 
ATOM     22  C   UNL     1      47.101   6.433  13.387  0.00  0.00    +0.000 A 
ENDBRANCH  12  13
ENDBRANCH   4  12
TORSDOF 5
ENDMDL
MODEL 9
REMARK VINA RESULT:    -5.409      3.667      5.601
REMARK INTER + INTRA:          -7.321
REMARK INTER:                  -6.729
REMARK INTRA:                  -0.593
REMARK UNBOUND:                -0.490
REMARK  Name = 
REMARK  5 active torsions:
REMARK  status: ('A' for Active; 'I' for Inactive)
REMARK    1  A    between atoms: N_1  and  C_2
REMARK    2  A    between atoms: C_2  and  C_3
REMARK    3  A    between atoms: C_3  and  C_4
REMARK    4  A    between atoms: C_7  and  C_8
REMARK    5  A    between atoms: C_8  and  N_9
REMARK                            x       y       z     vdW  Elec       q    Type
REMARK                         _______ _______ _______ _____ _____    ______ ____
ROOT
ATOM      1  C   UNL     1      45.204   5.029  11.400  0.00  0.00    +0.000 C 
ATOM      2  C   UNL     1      45.165   4.711  12.894  0.00  0.00    +0.000 C 
ATOM      3  C   UNL     1      46.506   4.961  13.568  0.00  0.00    +0.000 C 
ATOM      4  C   UNL     1      47.076   6.368  13.347  0.00  0.00    +0.000 C 
ATOM      5  C   UNL     1      47.079   6.703  11.841  0.00  0.00    +0.000 C 
ATOM      6  C   UNL     1      45.719   6.460  11.176  0.00  0.00    +0.000 C 
ENDROOT
BRANCH   1   7
ATOM      7  C   UNL     1      43.802   4.769  10.792  0.00  0.00    +0.000 C 
BRANCH   7   8
ATOM      8  C   UNL     1      42.651   4.971  11.770  0.00  0.00    +0.000 C 
BRANCH   8   9
ATOM      9  N   UNL     1      42.148   6.337  11.724  0.00  0.00    +0.000 NA
ATOM     10  H   UNL     1      42.121   6.718  12.669  0.00  0.00    +0.000 HD
ATOM     11  H   UNL     1      41.184   6.340  11.387  0.00  0.00    +0.000 HD
ENDBRANCH   8   9
ENDBRANCH   7   8
ENDBRANCH   1   7
BRANCH   4  12
ATOM     12  C   UNL     1      48.510   6.483  13.935  0.00  0.00    +0.000 C 
BRANCH  12  13
ATOM     13  N   UNL     1      48.605   6.939  15.321  0.00  0.00    +0.000 N 
ATOM     14  C   UNL     1      48.779   8.257  15.666  0.00  0.00    +0.000 A 
ATOM     15  C   UNL     1      48.792   8.352  17.037  0.00  0.00    +0.000 A 
ATOM     16  C   UNL     1      48.617   7.048  17.561  0.00  0.00    +0.000 A 
ATOM     17  C   UNL     1      48.493   6.545  18.871  0.00  0.00    +0.000 A 
ATOM     18  C   UNL     1      48.302   5.179  19.056  0.00  0.00    +0.000 A 
ATOM     19  F   UNL     1      48.106   4.707  20.292  0.00  0.00    +0.000 F 
ATOM     20  C   UNL     1      48.310   4.296  17.984  0.00  0.00    +0.000 A 
ATOM     21  C   UNL     1      48.493   4.772  16.676  0.00  0.00    +0.000 A 
ATOM     22  C   UNL     1      48.579   6.157  16.472  0.00  0.00    +0.000 A 
ENDBRANCH  12  13
ENDBRANCH   4  12
TORSDOF 5
ENDMDL
