MODEL 1
REMARK VINA RESULT:    -7.654      0.000      0.000
REMARK INTER + INTRA:         -10.022
REMARK INTER:                  -9.444
REMARK INTRA:                  -0.577
REMARK UNBOUND:                -0.577
REMARK  Name = 
REMARK  5 active torsions:
REMARK  status: ('A' for Active; 'I' for Inactive)
REMARK    1  A    between atoms: C_1  and  O_2
REMARK    2  A    between atoms: O_2  and  C_3
REMARK    3  A    between atoms: C_5  and  C_6
REMARK    4  A    between atoms: C_6  and  N_7
REMARK    5  A    between atoms: C_12  and  C_13
REMARK                            x       y       z     vdW  Elec       q    Type
REMARK                         _______ _______ _______ _____ _____    ______ ____
ROOT
ATOM      1  N   UNL     1      44.074   4.375  10.429  0.00  0.00    +0.000 N 
ATOM      2  C   UNL     1      43.544   3.267  11.052  0.00  0.00    +0.000 A 
ATOM      3  C   UNL     1      44.104   2.145  10.479  0.00  0.00    +0.000 A 
ATOM      4  C   UNL     1      45.000   2.579   9.475  0.00  0.00    +0.000 A 
ATOM      5  N   UNL     1      45.746   1.829   8.625  0.00  0.00    +0.000 NA
ATOM      6  C   UNL     1      46.499   2.554   7.755  0.00  0.00    +0.000 A 
ATOM      7  C   UNL     1      46.561   3.941   7.695  0.00  0.00    +0.000 A 
ATOM      8  C   UNL     1      45.788   4.694   8.575  0.00  0.00    +0.000 A 
ATOM      9  C   UNL     1      44.986   3.977   9.469  0.00  0.00    +0.000 A 
ENDROOT
BRANCH   6  10
ATOM     10  C   UNL     1      47.304   1.761   6.762  0.00  0.00    +0.000 C 
ATOM     11  N   UNL     1      48.297   2.448   6.118  0.00  0.00    +0.000 N 
ATOM     12  O   UNL     1      47.100   0.576   6.539  0.00  0.00    +0.000 OA
ATOM     13  H   UNL     1      48.449   3.430   6.330  0.00  0.00    +0.000 HD
ATOM     14  H   UNL     1      48.882   1.970   5.452  0.00  0.00    +0.000 HD
ENDBRANCH   6  10
BRANCH   1  15
ATOM     15  C   UNL     1      43.595   5.739  10.641  0.00  0.00    +0.000 C 
BRANCH  15  18
ATOM     16  C   UNL     1      46.357   6.709  13.104  0.00  0.00    +0.000 A 
ATOM     17  C   UNL     1      45.483   5.950  12.316  0.00  0.00    +0.000 A 
ATOM     18  C   UNL     1      44.543   6.568  11.471  0.00  0.00    +0.000 A 
ATOM     19  C   UNL     1      44.499   7.968  11.424  0.00  0.00    +0.000 A 
ATOM     20  C   UNL     1      45.392   8.729  12.177  0.00  0.00    +0.000 A 
ATOM     21  C   UNL     1      46.319   8.100  13.001  0.00  0.00    +0.000 A 
ATOM     22  F   UNL     1      47.181   8.878  13.672  0.00  0.00    +0.000 F 
BRANCH  16  24
ATOM     23  C   UNL     1      46.762   4.668  14.218  0.00  0.00    +0.000 C 
ATOM     24  O   UNL     1      47.206   5.985  13.899  0.00  0.00    +0.000 OA
ENDBRANCH  16  24
ENDBRANCH  15  18
ENDBRANCH   1  15
TORSDOF 4
ENDMDL
MODEL 2
REMARK VINA RESULT:    -7.645      3.012      6.509
REMARK INTER + INTRA:         -10.009
REMARK INTER:                  -9.278
REMARK INTRA:                  -0.731
REMARK UNBOUND:                -0.577
REMARK  Name = 
REMARK  5 active torsions:
REMARK  status: ('A' for Active; 'I' for Inactive)
REMARK    1  A    between atoms: C_1  and  O_2
REMARK    2  A    between atoms: O_2  and  C_3
REMARK    3  A    between atoms: C_5  and  C_6
REMARK    4  A    between atoms: C_6  and  N_7
REMARK    5  A    between atoms: C_12  and  C_13
REMARK                            x       y       z     vdW  Elec       q    Type
REMARK                         _______ _______ _______ _____ _____    ______ ____
ROOT
ATOM      1  N   UNL     1      44.333   3.958  10.463  0.00  0.00    +0.000 N 
ATOM      2  C   UNL     1      43.841   3.008  11.330  0.00  0.00    +0.000 A 
ATOM      3  C   UNL     1      44.383   3.241  12.575  0.00  0.00    +0.000 A 
ATOM      4  C   UNL     1      45.234   4.365  12.468  0.00  0.00    +0.000 A 
ATOM      5  N   UNL     1      46.008   4.936  13.425  0.00  0.00    +0.000 NA
ATOM      6  C   UNL     1      46.732   6.004  12.996  0.00  0.00    +0.000 A 
ATOM      7  C   UNL     1      46.719   6.528  11.709  0.00  0.00    +0.000 A 
ATOM      8  C   UNL     1      45.919   5.930  10.739  0.00  0.00    +0.000 A 
ATOM      9  C   UNL     1      45.177   4.816  11.145  0.00  0.00    +0.000 A 
ENDROOT
BRANCH   6  10
ATOM     10  C   UNL     1      47.642   6.635  14.014  0.00  0.00    +0.000 C 
ATOM     11  N   UNL     1      47.422   7.962  14.264  0.00  0.00    +0.000 N 
ATOM     12  O   UNL     1      48.520   6.012  14.594  0.00  0.00    +0.000 OA
ATOM     13  H   UNL     1      46.680   8.452  13.774  0.00  0.00    +0.000 HD
ATOM     14  H   UNL     1      47.988   8.440  14.948  0.00  0.00    +0.000 HD
ENDBRANCH   6  10
BRANCH   1  15
ATOM     15  C   UNL     1      44.126   3.933   9.017  0.00  0.00    +0.000 C 
BRANCH  15  18
ATOM     16  C   UNL     1      46.748   1.437   7.779  0.00  0.00    +0.000 A 
ATOM     17  C   UNL     1      45.654   1.993   8.454  0.00  0.00    +0.000 A 
ATOM     18  C   UNL     1      45.296   3.341   8.270  0.00  0.00    +0.000 A 
ATOM     19  C   UNL     1      46.053   4.125   7.389  0.00  0.00    +0.000 A 
ATOM     20  C   UNL     1      47.120   3.567   6.686  0.00  0.00    +0.000 A 
ATOM     21  C   UNL     1      47.454   2.230   6.874  0.00  0.00    +0.000 A 
ATOM     22  F   UNL     1      48.463   1.734   6.143  0.00  0.00    +0.000 F 
BRANCH  16  24
ATOM     23  C   UNL     1      46.391  -0.818   7.182  0.00  0.00    +0.000 C 
ATOM     24  O   UNL     1      47.003   0.121   8.063  0.00  0.00    +0.000 OA
ENDBRANCH  16  24
ENDBRANCH  15  18
ENDBRANCH   1  15
TORSDOF 4
ENDMDL
MODEL 3
REMARK VINA RESULT:    -7.335      1.165      2.058
REMARK INTER + INTRA:          -9.628
REMARK INTER:                  -9.071
REMARK INTRA:                  -0.557
REMARK UNBOUND:                -0.577
REMARK  Name = 
REMARK  5 active torsions:
REMARK  status: ('A' for Active; 'I' for Inactive)
REMARK    1  A    between atoms: C_1  and  O_2
REMARK    2  A    between atoms: O_2  and  C_3
REMARK    3  A    between atoms: C_5  and  C_6
REMARK    4  A    between atoms: C_6  and  N_7
REMARK    5  A    between atoms: C_12  and  C_13
REMARK                            x       y       z     vdW  Elec       q    Type
REMARK                         _______ _______ _______ _____ _____    ______ ____
ROOT
ATOM      1  N   UNL     1      44.068   4.390  10.488  0.00  0.00    +0.000 N 
ATOM      2  C   UNL     1      43.553   3.282  11.123  0.00  0.00    +0.000 A 
ATOM      3  C   UNL     1      44.095   2.160  10.534  0.00  0.00    +0.000 A 
ATOM      4  C   UNL     1      44.965   2.594   9.508  0.00  0.00    +0.000 A 
ATOM      5  N   UNL     1      45.687   1.844   8.637  0.00  0.00    +0.000 NA
ATOM      6  C   UNL     1      46.419   2.568   7.749  0.00  0.00    +0.000 A 
ATOM      7  C   UNL     1      46.482   3.955   7.689  0.00  0.00    +0.000 A 
ATOM      8  C   UNL     1      45.734   4.709   8.591  0.00  0.00    +0.000 A 
ATOM      9  C   UNL     1      44.955   3.992   9.504  0.00  0.00    +0.000 A 
ENDROOT
BRANCH   6  10
ATOM     10  C   UNL     1      47.196   1.776   6.733  0.00  0.00    +0.000 C 
ATOM     11  N   UNL     1      48.049   2.497   5.943  0.00  0.00    +0.000 N 
ATOM     12  O   UNL     1      47.087   0.563   6.616  0.00  0.00    +0.000 OA
ATOM     13  H   UNL     1      48.125   3.501   6.069  0.00  0.00    +0.000 HD
ATOM     14  H   UNL     1      48.610   2.022   5.254  0.00  0.00    +0.000 HD
ENDBRANCH   6  10
BRANCH   1  15
ATOM     15  C   UNL     1      43.598   5.755  10.714  0.00  0.00    +0.000 C 
BRANCH  15  18
ATOM     16  C   UNL     1      45.360   8.752  12.310  0.00  0.00    +0.000 A 
ATOM     17  C   UNL     1      44.461   7.979  11.565  0.00  0.00    +0.000 A 
ATOM     18  C   UNL     1      44.561   6.576  11.535  0.00  0.00    +0.000 A 
ATOM     19  C   UNL     1      45.580   5.957  12.273  0.00  0.00    +0.000 A 
ATOM     20  C   UNL     1      46.455   6.720  13.047  0.00  0.00    +0.000 A 
ATOM     21  C   UNL     1      46.335   8.106  13.070  0.00  0.00    +0.000 A 
ATOM     22  F   UNL     1      47.175   8.787  13.862  0.00  0.00    +0.000 F 
BRANCH  16  24
ATOM     23  C   UNL     1      46.147  10.820  11.488  0.00  0.00    +0.000 C 
ATOM     24  O   UNL     1      45.166  10.106  12.237  0.00  0.00    +0.000 OA
ENDBRANCH  16  24
ENDBRANCH  15  18
ENDBRANCH   1  15
TORSDOF 4
ENDMDL
MODEL 4
REMARK VINA RESULT:    -7.207      3.204      6.771
REMARK INTER + INTRA:          -9.470
REMARK INTER:                  -9.164
REMARK INTRA:                  -0.306
REMARK UNBOUND:                -0.577
REMARK  Name = 
REMARK  5 active torsions:
REMARK  status: ('A' for Active; 'I' for Inactive)
REMARK    1  A    between atoms: C_1  and  O_2
REMARK    2  A    between atoms: O_2  and  C_3
REMARK    3  A    between atoms: C_5  and  C_6
REMARK    4  A    between atoms: C_6  and  N_7
REMARK    5  A    between atoms: C_12  and  C_13
REMARK                            x       y       z     vdW  Elec       q    Type
REMARK                         _______ _______ _______ _____ _____    ______ ____
ROOT
ATOM      1  N   UNL     1      44.753   5.470  11.044  0.00  0.00    +0.000 N 
ATOM      2  C   UNL     1      44.821   6.842  11.135  0.00  0.00    +0.000 A 
ATOM      3  C   UNL     1      45.562   7.162  12.253  0.00  0.00    +0.000 A 
ATOM      4  C   UNL     1      45.956   5.950  12.865  0.00  0.00    +0.000 A 
ATOM      5  N   UNL     1      46.664   5.771  14.009  0.00  0.00    +0.000 NA
ATOM      6  C   UNL     1      46.865   4.468  14.344  0.00  0.00    +0.000 A 
ATOM      7  C   UNL     1      46.426   3.367  13.619  0.00  0.00    +0.000 A 
ATOM      8  C   UNL     1      45.701   3.570  12.447  0.00  0.00    +0.000 A 
ATOM      9  C   UNL     1      45.460   4.899  12.087  0.00  0.00    +0.000 A 
ENDROOT
BRANCH   6  10
ATOM     10  C   UNL     1      47.602   4.225  15.632  0.00  0.00    +0.000 C 
ATOM     11  N   UNL     1      47.632   5.276  16.508  0.00  0.00    +0.000 N 
ATOM     12  O   UNL     1      48.139   3.158  15.896  0.00  0.00    +0.000 OA
ATOM     13  H   UNL     1      47.169   6.147  16.265  0.00  0.00    +0.000 HD
ATOM     14  H   UNL     1      48.097   5.172  17.395  0.00  0.00    +0.000 HD
ENDBRANCH   6  10
BRANCH   1  15
ATOM     15  C   UNL     1      43.907   4.754  10.092  0.00  0.00    +0.000 C 
BRANCH  15  18
ATOM     16  C   UNL     1      46.303   3.103   7.609  0.00  0.00    +0.000 A 
ATOM     17  C   UNL     1      45.610   4.071   8.346  0.00  0.00    +0.000 A 
ATOM     18  C   UNL     1      44.660   3.702   9.317  0.00  0.00    +0.000 A 
ATOM     19  C   UNL     1      44.421   2.339   9.542  0.00  0.00    +0.000 A 
ATOM     20  C   UNL     1      45.136   1.371   8.838  0.00  0.00    +0.000 A 
ATOM     21  C   UNL     1      46.077   1.755   7.887  0.00  0.00    +0.000 A 
ATOM     22  F   UNL     1      46.764   0.784   7.269  0.00  0.00    +0.000 F 
BRANCH  16  24
ATOM     23  C   UNL     1      47.050   3.048   5.371  0.00  0.00    +0.000 C 
ATOM     24  O   UNL     1      47.182   3.595   6.681  0.00  0.00    +0.000 OA
ENDBRANCH  16  24
ENDBRANCH  15  18
ENDBRANCH   1  15
TORSDOF 4
ENDMDL
MODEL 5
REMARK VINA RESULT:    -6.945      3.536      7.053
REMARK INTER + INTRA:          -9.146
REMARK INTER:                  -8.542
REMARK INTRA:                  -0.604
REMARK UNBOUND:                -0.577
REMARK  Name = 
REMARK  5 active torsions:
REMARK  status: ('A' for Active; 'I' for Inactive)
REMARK    1  A    between atoms: C_1  and  O_2
REMARK    2  A    between atoms: O_2  and  C_3
REMARK    3  A    between atoms: C_5  and  C_6
REMARK    4  A    between atoms: C_6  and  N_7
REMARK    5  A    between atoms: C_12  and  C_13
REMARK                            x       y       z     vdW  Elec       q    Type
REMARK                         _______ _______ _______ _____ _____    ______ ____
ROOT
ATOM      1  N   UNL     1      46.353   6.453  12.090  0.00  0.00    +0.000 N 
ATOM      2  C   UNL     1      47.332   7.369  11.772  0.00  0.00    +0.000 A 
ATOM      3  C   UNL     1      48.308   7.308  12.744  0.00  0.00    +0.000 A 
ATOM      4  C   UNL     1      47.914   6.329  13.685  0.00  0.00    +0.000 A 
ATOM      5  N   UNL     1      48.542   5.954  14.828  0.00  0.00    +0.000 NA
ATOM      6  C   UNL     1      47.891   4.989  15.532  0.00  0.00    +0.000 A 
ATOM      7  C   UNL     1      46.695   4.385  15.165  0.00  0.00    +0.000 A 
ATOM      8  C   UNL     1      46.065   4.782  13.988  0.00  0.00    +0.000 A 
ATOM      9  C   UNL     1      46.700   5.788  13.252  0.00  0.00    +0.000 A 
ENDROOT
BRANCH   6  10
ATOM     10  C   UNL     1      48.527   4.580  16.832  0.00  0.00    +0.000 C 
ATOM     11  N   UNL     1      47.687   4.512  17.909  0.00  0.00    +0.000 N 
ATOM     12  O   UNL     1      49.717   4.314  16.932  0.00  0.00    +0.000 OA
ATOM     13  H   UNL     1      46.702   4.730  17.795  0.00  0.00    +0.000 HD
ATOM     14  H   UNL     1      48.048   4.229  18.806  0.00  0.00    +0.000 HD
ENDBRANCH   6  10
BRANCH   1  15
ATOM     15  C   UNL     1      45.073   6.349  11.395  0.00  0.00    +0.000 C 
BRANCH  15  18
ATOM     16  C   UNL     1      45.407   3.876   8.496  0.00  0.00    +0.000 A 
ATOM     17  C   UNL     1      45.522   5.030   9.280  0.00  0.00    +0.000 A 
ATOM     18  C   UNL     1      44.958   5.093  10.567  0.00  0.00    +0.000 A 
ATOM     19  C   UNL     1      44.278   3.971  11.060  0.00  0.00    +0.000 A 
ATOM     20  C   UNL     1      44.194   2.806  10.299  0.00  0.00    +0.000 A 
ATOM     21  C   UNL     1      44.765   2.760   9.032  0.00  0.00    +0.000 A 
ATOM     22  F   UNL     1      44.690   1.601   8.360  0.00  0.00    +0.000 F 
BRANCH  16  24
ATOM     23  C   UNL     1      47.164   3.174   7.085  0.00  0.00    +0.000 C 
ATOM     24  O   UNL     1      45.982   3.953   7.254  0.00  0.00    +0.000 OA
ENDBRANCH  16  24
ENDBRANCH  15  18
ENDBRANCH   1  15
TORSDOF 4
ENDMDL
MODEL 6
REMARK VINA RESULT:    -6.860      3.242      6.772
REMARK INTER + INTRA:          -9.042
REMARK INTER:                  -8.411
REMARK INTRA:                  -0.630
REMARK UNBOUND:                -0.577
REMARK  Name = 
REMARK  5 active torsions:
REMARK  status: ('A' for Active; 'I' for Inactive)
REMARK    1  A    between atoms: C_1  and  O_2
REMARK    2  A    between atoms: O_2  and  C_3
REMARK    3  A    between atoms: C_5  and  C_6
REMARK    4  A    between atoms: C_6  and  N_7
REMARK    5  A    between atoms: C_12  and  C_13
REMARK                            x       y       z     vdW  Elec       q    Type
REMARK                         _______ _______ _______ _____ _____    ______ ____
ROOT
ATOM      1  N   UNL     1      44.489   6.643  11.701  0.00  0.00    +0.000 N 
ATOM      2  C   UNL     1      44.551   7.975  11.357  0.00  0.00    +0.000 A 
ATOM      3  C   UNL     1      45.624   8.538  12.013  0.00  0.00    +0.000 A 
ATOM      4  C   UNL     1      46.236   7.522  12.782  0.00  0.00    +0.000 A 
ATOM      5  N   UNL     1      47.300   7.619  13.619  0.00  0.00    +0.000 NA
ATOM      6  C   UNL     1      47.637   6.453  14.233  0.00  0.00    +0.000 A 
ATOM      7  C   UNL     1      47.002   5.230  14.055  0.00  0.00    +0.000 A 
ATOM      8  C   UNL     1      45.912   5.150  13.193  0.00  0.00    +0.000 A 
ATOM      9  C   UNL     1      45.528   6.337  12.562  0.00  0.00    +0.000 A 
ENDROOT
BRANCH   6  10
ATOM     10  C   UNL     1      48.781   6.528  15.207  0.00  0.00    +0.000 C 
ATOM     11  N   UNL     1      48.478   6.215  16.504  0.00  0.00    +0.000 N 
ATOM     12  O   UNL     1      49.916   6.839  14.873  0.00  0.00    +0.000 OA
ATOM     13  H   UNL     1      47.529   5.951  16.750  0.00  0.00    +0.000 HD
ATOM     14  H   UNL     1      49.204   6.230  17.203  0.00  0.00    +0.000 HD
ENDBRANCH   6  10
BRANCH   1  15
ATOM     15  C   UNL     1      43.384   5.756  11.345  0.00  0.00    +0.000 C 
BRANCH  15  18
ATOM     16  C   UNL     1      44.844   3.545   8.585  0.00  0.00    +0.000 A 
ATOM     17  C   UNL     1      44.436   4.670   9.313  0.00  0.00    +0.000 A 
ATOM     18  C   UNL     1      43.837   4.538  10.579  0.00  0.00    +0.000 A 
ATOM     19  C   UNL     1      43.658   3.253  11.109  0.00  0.00    +0.000 A 
ATOM     20  C   UNL     1      44.098   2.131  10.406  0.00  0.00    +0.000 A 
ATOM     21  C   UNL     1      44.695   2.283   9.159  0.00  0.00    +0.000 A 
ATOM     22  F   UNL     1      45.136   1.175   8.545  0.00  0.00    +0.000 F 
BRANCH  16  24
ATOM     23  C   UNL     1      46.811   3.692   7.291  0.00  0.00    +0.000 C 
ATOM     24  O   UNL     1      45.392   3.811   7.358  0.00  0.00    +0.000 OA
ENDBRANCH  16  24
ENDBRANCH  15  18
ENDBRANCH   1  15
TORSDOF 4
ENDMDL
MODEL 7
REMARK VINA RESULT:    -6.559      3.772      6.618
REMARK INTER + INTRA:          -8.670
REMARK INTER:                  -8.130
REMARK INTRA:                  -0.540
REMARK UNBOUND:                -0.577
REMARK  Name = 
REMARK  5 active torsions:
REMARK  status: ('A' for Active; 'I' for Inactive)
REMARK    1  A    between atoms: C_1  and  O_2
REMARK    2  A    between atoms: O_2  and  C_3
REMARK    3  A    between atoms: C_5  and  C_6
REMARK    4  A    between atoms: C_6  and  N_7
REMARK    5  A    between atoms: C_12  and  C_13
REMARK                            x       y       z     vdW  Elec       q    Type
REMARK                         _______ _______ _______ _____ _____    ______ ____
ROOT
ATOM      1  N   UNL     1      45.779   5.845  12.975  0.00  0.00    +0.000 N 
ATOM      2  C   UNL     1      46.006   4.888  13.939  0.00  0.00    +0.000 A 
ATOM      3  C   UNL     1      47.286   5.062  14.422  0.00  0.00    +0.000 A 
ATOM      4  C   UNL     1      47.858   6.155  13.733  0.00  0.00    +0.000 A 
ATOM      5  N   UNL     1      49.110   6.666  13.847  0.00  0.00    +0.000 NA
ATOM      6  C   UNL     1      49.363   7.718  13.023  0.00  0.00    +0.000 A 
ATOM      7  C   UNL     1      48.461   8.282  12.128  0.00  0.00    +0.000 A 
ATOM      8  C   UNL     1      47.181   7.745  12.024  0.00  0.00    +0.000 A 
ATOM      9  C   UNL     1      46.897   6.649  12.844  0.00  0.00    +0.000 A 
ENDROOT
BRANCH   6  10
ATOM     10  C   UNL     1      50.756   8.283  13.082  0.00  0.00    +0.000 C 
ATOM     11  N   UNL     1      51.572   7.751  14.043  0.00  0.00    +0.000 N 
ATOM     12  O   UNL     1      51.149   9.157  12.322  0.00  0.00    +0.000 OA
ATOM     13  H   UNL     1      51.221   7.020  14.654  0.00  0.00    +0.000 HD
ATOM     14  H   UNL     1      52.522   8.075  14.124  0.00  0.00    +0.000 HD
ENDBRANCH   6  10
BRANCH   1  15
ATOM     15  C   UNL     1      44.602   5.872  12.110  0.00  0.00    +0.000 C 
BRANCH  15  18
ATOM     16  C   UNL     1      45.223   4.026   8.817  0.00  0.00    +0.000 A 
ATOM     17  C   UNL     1      45.213   5.019   9.805  0.00  0.00    +0.000 A 
ATOM     18  C   UNL     1      44.623   4.788  11.061  0.00  0.00    +0.000 A 
ATOM     19  C   UNL     1      44.045   3.536  11.313  0.00  0.00    +0.000 A 
ATOM     20  C   UNL     1      44.086   2.531  10.347  0.00  0.00    +0.000 A 
ATOM     21  C   UNL     1      44.681   2.776   9.114  0.00  0.00    +0.000 A 
ATOM     22  F   UNL     1      44.729   1.762   8.237  0.00  0.00    +0.000 F 
BRANCH  16  24
ATOM     23  C   UNL     1      46.914   3.578   7.232  0.00  0.00    +0.000 C 
ATOM     24  O   UNL     1      45.810   4.387   7.632  0.00  0.00    +0.000 OA
ENDBRANCH  16  24
ENDBRANCH  15  18
ENDBRANCH   1  15
TORSDOF 4
ENDMDL
MODEL 8
REMARK VINA RESULT:    -6.385      3.733      6.765
REMARK INTER + INTRA:          -8.456
REMARK INTER:                  -8.111
REMARK INTRA:                  -0.345
REMARK UNBOUND:                -0.577
REMARK  Name = 
REMARK  5 active torsions:
REMARK  status: ('A' for Active; 'I' for Inactive)
REMARK    1  A    between atoms: C_1  and  O_2
REMARK    2  A    between atoms: O_2  and  C_3
REMARK    3  A    between atoms: C_5  and  C_6
REMARK    4  A    between atoms: C_6  and  N_7
REMARK    5  A    between atoms: C_12  and  C_13
REMARK                            x       y       z     vdW  Elec       q    Type
REMARK                         _______ _______ _______ _____ _____    ______ ____
ROOT
ATOM      1  N   UNL     1      46.758   6.720  11.945  0.00  0.00    +0.000 N 
ATOM      2  C   UNL     1      47.854   7.542  11.805  0.00  0.00    +0.000 A 
ATOM      3  C   UNL     1      48.697   7.316  12.873  0.00  0.00    +0.000 A 
ATOM      4  C   UNL     1      48.098   6.330  13.690  0.00  0.00    +0.000 A 
ATOM      5  N   UNL     1      48.545   5.820  14.865  0.00  0.00    +0.000 NA
ATOM      6  C   UNL     1      47.722   4.890  15.419  0.00  0.00    +0.000 A 
ATOM      7  C   UNL     1      46.523   4.442  14.878  0.00  0.00    +0.000 A 
ATOM      8  C   UNL     1      46.081   4.976  13.671  0.00  0.00    +0.000 A 
ATOM      9  C   UNL     1      46.895   5.951  13.086  0.00  0.00    +0.000 A 
ENDROOT
BRANCH   6  10
ATOM     10  C   UNL     1      48.155   4.334  16.749  0.00  0.00    +0.000 C 
ATOM     11  N   UNL     1      49.275   4.902  17.293  0.00  0.00    +0.000 N 
ATOM     12  O   UNL     1      47.551   3.438  17.320  0.00  0.00    +0.000 OA
ATOM     13  H   UNL     1      49.751   5.651  16.800  0.00  0.00    +0.000 HD
ATOM     14  H   UNL     1      49.608   4.586  18.190  0.00  0.00    +0.000 HD
ENDBRANCH   6  10
BRANCH   1  15
ATOM     15  C   UNL     1      45.564   6.798  11.105  0.00  0.00    +0.000 C 
BRANCH  15  18
ATOM     16  C   UNL     1      44.150   3.336  10.301  0.00  0.00    +0.000 A 
ATOM     17  C   UNL     1      44.414   4.547  10.953  0.00  0.00    +0.000 A 
ATOM     18  C   UNL     1      45.273   5.506  10.384  0.00  0.00    +0.000 A 
ATOM     19  C   UNL     1      45.860   5.231   9.141  0.00  0.00    +0.000 A 
ATOM     20  C   UNL     1      45.570   4.044   8.469  0.00  0.00    +0.000 A 
ATOM     21  C   UNL     1      44.712   3.111   9.044  0.00  0.00    +0.000 A 
ATOM     22  F   UNL     1      44.436   2.005   8.338  0.00  0.00    +0.000 F 
BRANCH  16  24
ATOM     23  C   UNL     1      43.420   2.524  12.393  0.00  0.00    +0.000 C 
ATOM     24  O   UNL     1      43.315   2.481  10.972  0.00  0.00    +0.000 OA
ENDBRANCH  16  24
ENDBRANCH  15  18
ENDBRANCH   1  15
TORSDOF 4
ENDMDL
MODEL 9
REMARK VINA RESULT:    -5.919      3.604      5.836
REMARK INTER + INTRA:          -7.880
REMARK INTER:                  -7.188
REMARK INTRA:                  -0.692
REMARK UNBOUND:                -0.577
REMARK  Name = 
REMARK  5 active torsions:
REMARK  status: ('A' for Active; 'I' for Inactive)
REMARK    1  A    between atoms: C_1  and  O_2
REMARK    2  A    between atoms: O_2  and  C_3
REMARK    3  A    between atoms: C_5  and  C_6
REMARK    4  A    between atoms: C_6  and  N_7
REMARK    5  A    between atoms: C_12  and  C_13
REMARK                            x       y       z     vdW  Elec       q    Type
REMARK                         _______ _______ _______ _____ _____    ______ ____
ROOT
ATOM      1  N   UNL     1      47.527   7.143  13.777  0.00  0.00    +0.000 N 
ATOM      2  C   UNL     1      47.077   8.410  13.477  0.00  0.00    +0.000 A 
ATOM      3  C   UNL     1      45.952   8.290  12.690  0.00  0.00    +0.000 A 
ATOM      4  C   UNL     1      45.707   6.910  12.501  0.00  0.00    +0.000 A 
ATOM      5  N   UNL     1      44.733   6.317  11.766  0.00  0.00    +0.000 NA
ATOM      6  C   UNL     1      44.780   4.957  11.770  0.00  0.00    +0.000 A 
ATOM      7  C   UNL     1      45.705   4.180  12.455  0.00  0.00    +0.000 A 
ATOM      8  C   UNL     1      46.697   4.806  13.205  0.00  0.00    +0.000 A 
ATOM      9  C   UNL     1      46.688   6.204  13.204  0.00  0.00    +0.000 A 
ENDROOT
BRANCH   6  10
ATOM     10  C   UNL     1      43.747   4.260  10.927  0.00  0.00    +0.000 C 
ATOM     11  N   UNL     1      43.705   4.632   9.611  0.00  0.00    +0.000 N 
ATOM     12  O   UNL     1      42.993   3.408  11.375  0.00  0.00    +0.000 OA
ATOM     13  H   UNL     1      44.350   5.336   9.265  0.00  0.00    +0.000 HD
ATOM     14  H   UNL     1      43.046   4.190   8.990  0.00  0.00    +0.000 HD
ENDBRANCH   6  10
BRANCH   1  15
ATOM     15  C   UNL     1      48.796   6.862  14.444  0.00  0.00    +0.000 C 
BRANCH  15  18
ATOM     16  C   UNL     1      48.243   5.321  17.902  0.00  0.00    +0.000 A 
ATOM     17  C   UNL     1      48.397   5.463  16.517  0.00  0.00    +0.000 A 
ATOM     18  C   UNL     1      48.651   6.720  15.939  0.00  0.00    +0.000 A 
ATOM     19  C   UNL     1      48.754   7.839  16.777  0.00  0.00    +0.000 A 
ATOM     20  C   UNL     1      48.640   7.698  18.160  0.00  0.00    +0.000 A 
ATOM     21  C   UNL     1      48.397   6.445  18.714  0.00  0.00    +0.000 A 
ATOM     22  F   UNL     1      48.337   6.360  20.051  0.00  0.00    +0.000 F 
BRANCH  16  24
ATOM     23  C   UNL     1      47.363   3.198  17.369  0.00  0.00    +0.000 C 
ATOM     24  O   UNL     1      47.979   4.049  18.334  0.00  0.00    +0.000 OA
ENDBRANCH  16  24
ENDBRANCH  15  18
ENDBRANCH   1  15
TORSDOF 4
ENDMDL
