MODEL 1
REMARK VINA RESULT:    -7.568      0.000      0.000
REMARK INTER + INTRA:         -10.035
REMARK INTER:                  -9.337
REMARK INTRA:                  -0.698
REMARK UNBOUND:                -0.698
REMARK  Name = 
REMARK  4 active torsions:
REMARK  status: ('A' for Active; 'I' for Inactive)
REMARK    1  A    between atoms: C_2  and  C_3
REMARK    2  A    between atoms: C_6  and  N_7
REMARK    3  A    between atoms: N_7  and  C_8
REMARK    4  A    between atoms: C_8  and  C_9
REMARK                            x       y       z     vdW  Elec       q    Type
REMARK                         _______ _______ _______ _____ _____    ______ ____
ROOT
ATOM      1  N   UNL     1      43.857   4.747   9.979  0.00  0.00    +0.000 N 
ATOM      2  H   UNL     1      42.911   4.637   9.631  0.00  0.00    +0.000 HD
ENDROOT
BRANCH   1   6
ATOM      3  C   UNL     1      46.687   2.733   7.570  0.00  0.00    +0.000 A 
ATOM      4  C   UNL     1      46.641   4.127   7.592  0.00  0.00    +0.000 A 
ATOM      5  C   UNL     1      45.717   4.787   8.411  0.00  0.00    +0.000 A 
ATOM      6  C   UNL     1      44.808   4.059   9.189  0.00  0.00    +0.000 A 
ATOM      7  C   UNL     1      44.914   2.661   9.206  0.00  0.00    +0.000 A 
ATOM      8  C   UNL     1      45.828   2.001   8.388  0.00  0.00    +0.000 A 
BRANCH   3  10
ATOM      9  N   UNL     1      48.342   1.516   5.992  0.00  0.00    +0.000 NA
ATOM     10  C   UNL     1      47.599   2.056   6.700  0.00  0.00    +0.000 C 
ENDBRANCH   3  10
ENDBRANCH   1   6
BRANCH   1  11
ATOM     11  C   UNL     1      43.992   4.756  11.458  0.00  0.00    +0.000 C 
ATOM     12  C   UNL     1      43.273   3.642  12.206  0.00  0.00    +0.000 C 
ATOM     13  C   UNL     1      42.770   5.037  12.336  0.00  0.00    +0.000 C 
BRANCH  11  14
ATOM     14  C   UNL     1      45.223   5.499  11.987  0.00  0.00    +0.000 A 
ATOM     15  C   UNL     1      46.083   4.868  12.908  0.00  0.00    +0.000 A 
ATOM     16  C   UNL     1      47.340   5.390  13.218  0.00  0.00    +0.000 A 
ATOM     17  C   UNL     1      47.763   6.573  12.621  0.00  0.00    +0.000 A 
ATOM     18  C   UNL     1      46.903   7.263  11.773  0.00  0.00    +0.000 A 
ATOM     19  C   UNL     1      45.640   6.741  11.478  0.00  0.00    +0.000 A 
ENDBRANCH  11  14
ENDBRANCH   1  11
TORSDOF 4
ENDMDL
MODEL 2
REMARK VINA RESULT:    -6.024      2.117      5.850
REMARK INTER + INTRA:          -8.130
REMARK INTER:                  -8.371
REMARK INTRA:                   0.241
REMARK UNBOUND:                -0.698
REMARK  Name = 
REMARK  4 active torsions:
REMARK  status: ('A' for Active; 'I' for Inactive)
REMARK    1  A    between atoms: C_2  and  C_3
REMARK    2  A    between atoms: C_6  and  N_7
REMARK    3  A    between atoms: N_7  and  C_8
REMARK    4  A    between atoms: C_8  and  C_9
REMARK                            x       y       z     vdW  Elec       q    Type
REMARK                         _______ _______ _______ _____ _____    ______ ____
ROOT
ATOM      1  N   UNL     1      44.287   5.402  10.238  0.00  0.00    +0.000 N 
ATOM      2  H   UNL     1      44.188   5.784   9.304  0.00  0.00    +0.000 HD
ENDROOT
BRANCH   1   6
ATOM      3  C   UNL     1      46.693   7.799  12.752  0.00  0.00    +0.000 A 
ATOM      4  C   UNL     1      47.276   6.994  11.774  0.00  0.00    +0.000 A 
ATOM      5  C   UNL     1      46.470   6.221  10.929  0.00  0.00    +0.000 A 
ATOM      6  C   UNL     1      45.078   6.220  11.077  0.00  0.00    +0.000 A 
ATOM      7  C   UNL     1      44.507   7.088  12.020  0.00  0.00    +0.000 A 
ATOM      8  C   UNL     1      45.305   7.854  12.866  0.00  0.00    +0.000 A 
BRANCH   3  10
ATOM      9  N   UNL     1      48.189   9.159  14.372  0.00  0.00    +0.000 NA
ATOM     10  C   UNL     1      47.516   8.555  13.647  0.00  0.00    +0.000 C 
ENDBRANCH   3  10
ENDBRANCH   1   6
BRANCH   1  11
ATOM     11  C   UNL     1      44.419   3.924  10.308  0.00  0.00    +0.000 C 
ATOM     12  C   UNL     1      43.433   3.202  11.215  0.00  0.00    +0.000 C 
ATOM     13  C   UNL     1      44.867   3.257  11.611  0.00  0.00    +0.000 C 
BRANCH  11  14
ATOM     14  C   UNL     1      45.115   3.282   9.103  0.00  0.00    +0.000 A 
ATOM     15  C   UNL     1      45.700   4.097   8.113  0.00  0.00    +0.000 A 
ATOM     16  C   UNL     1      46.561   3.575   7.145  0.00  0.00    +0.000 A 
ATOM     17  C   UNL     1      46.845   2.214   7.135  0.00  0.00    +0.000 A 
ATOM     18  C   UNL     1      46.216   1.371   8.046  0.00  0.00    +0.000 A 
ATOM     19  C   UNL     1      45.345   1.899   9.004  0.00  0.00    +0.000 A 
ENDBRANCH  11  14
ENDBRANCH   1  11
TORSDOF 4
ENDMDL
MODEL 3
REMARK VINA RESULT:    -5.864      2.305      5.931
REMARK INTER + INTRA:          -7.933
REMARK INTER:                  -7.748
REMARK INTRA:                  -0.184
REMARK UNBOUND:                -0.698
REMARK  Name = 
REMARK  4 active torsions:
REMARK  status: ('A' for Active; 'I' for Inactive)
REMARK    1  A    between atoms: C_2  and  C_3
REMARK    2  A    between atoms: C_6  and  N_7
REMARK    3  A    between atoms: N_7  and  C_8
REMARK    4  A    between atoms: C_8  and  C_9
REMARK                            x       y       z     vdW  Elec       q    Type
REMARK                         _______ _______ _______ _____ _____    ______ ____
ROOT
ATOM      1  N   UNL     1      45.420   4.901  12.031  0.00  0.00    +0.000 N 
ATOM      2  H   UNL     1      45.255   4.472  12.935  0.00  0.00    +0.000 HD
ENDROOT
BRANCH   1   6
ATOM      3  C   UNL     1      47.031   8.796  12.343  0.00  0.00    +0.000 A 
ATOM      4  C   UNL     1      45.781   8.502  12.887  0.00  0.00    +0.000 A 
ATOM      5  C   UNL     1      45.264   7.203  12.801  0.00  0.00    +0.000 A 
ATOM      6  C   UNL     1      45.978   6.196  12.140  0.00  0.00    +0.000 A 
ATOM      7  C   UNL     1      47.263   6.493  11.661  0.00  0.00    +0.000 A 
ATOM      8  C   UNL     1      47.777   7.785  11.739  0.00  0.00    +0.000 A 
BRANCH   3  10
ATOM      9  N   UNL     1      47.944  11.219  12.424  0.00  0.00    +0.000 NA
ATOM     10  C   UNL     1      47.540  10.132  12.389  0.00  0.00    +0.000 C 
ENDBRANCH   3  10
ENDBRANCH   1   6
BRANCH   1  11
ATOM     11  C   UNL     1      44.387   4.625  11.000  0.00  0.00    +0.000 C 
ATOM     12  C   UNL     1      43.151   5.514  11.031  0.00  0.00    +0.000 C 
ATOM     13  C   UNL     1      43.018   4.082  11.415  0.00  0.00    +0.000 C 
BRANCH  11  14
ATOM     14  C   UNL     1      44.902   3.904   9.750  0.00  0.00    +0.000 A 
ATOM     15  C   UNL     1      45.549   4.633   8.733  0.00  0.00    +0.000 A 
ATOM     16  C   UNL     1      46.259   4.000   7.711  0.00  0.00    +0.000 A 
ATOM     17  C   UNL     1      46.324   2.612   7.673  0.00  0.00    +0.000 A 
ATOM     18  C   UNL     1      45.625   1.862   8.614  0.00  0.00    +0.000 A 
ATOM     19  C   UNL     1      44.906   2.503   9.627  0.00  0.00    +0.000 A 
ENDBRANCH  11  14
ENDBRANCH   1  11
TORSDOF 4
ENDMDL
MODEL 4
REMARK VINA RESULT:    -5.820      1.498      2.328
REMARK INTER + INTRA:          -7.878
REMARK INTER:                  -7.184
REMARK INTRA:                  -0.694
REMARK UNBOUND:                -0.698
REMARK  Name = 
REMARK  4 active torsions:
REMARK  status: ('A' for Active; 'I' for Inactive)
REMARK    1  A    between atoms: C_2  and  C_3
REMARK    2  A    between atoms: C_6  and  N_7
REMARK    3  A    between atoms: N_7  and  C_8
REMARK    4  A    between atoms: C_8  and  C_9
REMARK                            x       y       z     vdW  Elec       q    Type
REMARK                         _______ _______ _______ _____ _____    ______ ____
ROOT
ATOM      1  N   UNL     1      44.717   4.531  11.647  0.00  0.00    +0.000 N 
ATOM      2  H   UNL     1      43.959   3.953  11.995  0.00  0.00    +0.000 HD
ENDROOT
BRANCH   1   6
ATOM      3  C   UNL     1      45.928   3.407   7.757  0.00  0.00    +0.000 A 
ATOM      4  C   UNL     1      45.370   2.467   8.623  0.00  0.00    +0.000 A 
ATOM      5  C   UNL     1      44.948   2.852   9.902  0.00  0.00    +0.000 A 
ATOM      6  C   UNL     1      45.114   4.173  10.338  0.00  0.00    +0.000 A 
ATOM      7  C   UNL     1      45.614   5.118   9.429  0.00  0.00    +0.000 A 
ATOM      8  C   UNL     1      46.039   4.736   8.159  0.00  0.00    +0.000 A 
BRANCH   3  10
ATOM      9  N   UNL     1      46.785   2.672   5.426  0.00  0.00    +0.000 NA
ATOM     10  C   UNL     1      46.401   3.006   6.468  0.00  0.00    +0.000 C 
ENDBRANCH   3  10
ENDBRANCH   1   6
BRANCH   1  11
ATOM     11  C   UNL     1      45.743   4.906  12.654  0.00  0.00    +0.000 C 
ATOM     12  C   UNL     1      46.628   3.778  13.165  0.00  0.00    +0.000 C 
ATOM     13  C   UNL     1      45.632   4.385  14.089  0.00  0.00    +0.000 C 
BRANCH  11  14
ATOM     14  C   UNL     1      46.145   6.384  12.643  0.00  0.00    +0.000 A 
ATOM     15  C   UNL     1      47.480   6.747  12.377  0.00  0.00    +0.000 A 
ATOM     16  C   UNL     1      47.843   8.067  12.099  0.00  0.00    +0.000 A 
ATOM     17  C   UNL     1      46.873   9.063  12.097  0.00  0.00    +0.000 A 
ATOM     18  C   UNL     1      45.561   8.751  12.439  0.00  0.00    +0.000 A 
ATOM     19  C   UNL     1      45.209   7.429  12.729  0.00  0.00    +0.000 A 
ENDBRANCH  11  14
ENDBRANCH   1  11
TORSDOF 4
ENDMDL
MODEL 5
REMARK VINA RESULT:    -5.817      2.387      5.826
REMARK INTER + INTRA:          -7.876
REMARK INTER:                  -7.568
REMARK INTRA:                  -0.308
REMARK UNBOUND:                -0.698
REMARK  Name = 
REMARK  4 active torsions:
REMARK  status: ('A' for Active; 'I' for Inactive)
REMARK    1  A    between atoms: C_2  and  C_3
REMARK    2  A    between atoms: C_6  and  N_7
REMARK    3  A    between atoms: N_7  and  C_8
REMARK    4  A    between atoms: C_8  and  C_9
REMARK                            x       y       z     vdW  Elec       q    Type
REMARK                         _______ _______ _______ _____ _____    ______ ____
ROOT
ATOM      1  N   UNL     1      45.030   4.353  12.547  0.00  0.00    +0.000 N 
ATOM      2  H   UNL     1      44.469   4.055  13.337  0.00  0.00    +0.000 HD
ENDROOT
BRANCH   1   6
ATOM      3  C   UNL     1      48.347   6.666  13.774  0.00  0.00    +0.000 A 
ATOM      4  C   UNL     1      47.825   5.681  14.610  0.00  0.00    +0.000 A 
ATOM      5  C   UNL     1      46.740   4.902  14.187  0.00  0.00    +0.000 A 
ATOM      6  C   UNL     1      46.149   5.125  12.938  0.00  0.00    +0.000 A 
ATOM      7  C   UNL     1      46.731   6.074  12.083  0.00  0.00    +0.000 A 
ATOM      8  C   UNL     1      47.806   6.854  12.504  0.00  0.00    +0.000 A 
BRANCH   3  10
ATOM      9  N   UNL     1      50.297   8.162  14.595  0.00  0.00    +0.000 NA
ATOM     10  C   UNL     1      49.425   7.494  14.222  0.00  0.00    +0.000 C 
ENDBRANCH   3  10
ENDBRANCH   1   6
BRANCH   1  11
ATOM     11  C   UNL     1      44.265   4.724  11.328  0.00  0.00    +0.000 C 
ATOM     12  C   UNL     1      43.585   6.086  11.350  0.00  0.00    +0.000 C 
ATOM     13  C   UNL     1      42.742   4.860  11.394  0.00  0.00    +0.000 C 
BRANCH  11  14
ATOM     14  C   UNL     1      44.690   3.989  10.053  0.00  0.00    +0.000 A 
ATOM     15  C   UNL     1      45.323   4.697   9.012  0.00  0.00    +0.000 A 
ATOM     16  C   UNL     1      45.957   4.040   7.955  0.00  0.00    +0.000 A 
ATOM     17  C   UNL     1      45.958   2.651   7.907  0.00  0.00    +0.000 A 
ATOM     18  C   UNL     1      45.269   1.926   8.874  0.00  0.00    +0.000 A 
ATOM     19  C   UNL     1      44.625   2.591   9.922  0.00  0.00    +0.000 A 
ENDBRANCH  11  14
ENDBRANCH   1  11
TORSDOF 4
ENDMDL
MODEL 6
REMARK VINA RESULT:    -5.166      2.457      4.525
REMARK INTER + INTRA:          -7.071
REMARK INTER:                  -6.624
REMARK INTRA:                  -0.447
REMARK UNBOUND:                -0.698
REMARK  Name = 
REMARK  4 active torsions:
REMARK  status: ('A' for Active; 'I' for Inactive)
REMARK    1  A    between atoms: C_2  and  C_3
REMARK    2  A    between atoms: C_6  and  N_7
REMARK    3  A    between atoms: N_7  and  C_8
REMARK    4  A    between atoms: C_8  and  C_9
REMARK                            x       y       z     vdW  Elec       q    Type
REMARK                         _______ _______ _______ _____ _____    ______ ____
ROOT
ATOM      1  N   UNL     1      45.818   6.623  13.338  0.00  0.00    +0.000 N 
ATOM      2  H   UNL     1      45.660   6.331  14.296  0.00  0.00    +0.000 HD
ENDROOT
BRANCH   1   6
ATOM      3  C   UNL     1      44.994   3.529  10.580  0.00  0.00    +0.000 A 
ATOM      4  C   UNL     1      45.138   3.246  11.937  0.00  0.00    +0.000 A 
ATOM      5  C   UNL     1      45.387   4.280  12.849  0.00  0.00    +0.000 A 
ATOM      6  C   UNL     1      45.528   5.600  12.405  0.00  0.00    +0.000 A 
ATOM      7  C   UNL     1      45.312   5.875  11.046  0.00  0.00    +0.000 A 
ATOM      8  C   UNL     1      45.070   4.848  10.137  0.00  0.00    +0.000 A 
BRANCH   3  10
ATOM      9  N   UNL     1      44.621   1.616   8.873  0.00  0.00    +0.000 NA
ATOM     10  C   UNL     1      44.785   2.469   9.641  0.00  0.00    +0.000 C 
ENDBRANCH   3  10
ENDBRANCH   1   6
BRANCH   1  11
ATOM     11  C   UNL     1      46.997   7.502  13.129  0.00  0.00    +0.000 C 
ATOM     12  C   UNL     1      48.330   6.800  12.910  0.00  0.00    +0.000 C 
ATOM     13  C   UNL     1      48.112   7.550  14.177  0.00  0.00    +0.000 C 
BRANCH  11  14
ATOM     14  C   UNL     1      46.668   8.910  12.622  0.00  0.00    +0.000 A 
ATOM     15  C   UNL     1      47.692   9.728  12.104  0.00  0.00    +0.000 A 
ATOM     16  C   UNL     1      47.411  10.900  11.398  0.00  0.00    +0.000 A 
ATOM     17  C   UNL     1      46.091  11.292  11.209  0.00  0.00    +0.000 A 
ATOM     18  C   UNL     1      45.062  10.552  11.781  0.00  0.00    +0.000 A 
ATOM     19  C   UNL     1      45.352   9.386  12.498  0.00  0.00    +0.000 A 
ENDBRANCH  11  14
ENDBRANCH   1  11
TORSDOF 4
ENDMDL
MODEL 7
REMARK VINA RESULT:    -4.842      2.637      5.059
REMARK INTER + INTRA:          -6.673
REMARK INTER:                  -6.116
REMARK INTRA:                  -0.557
REMARK UNBOUND:                -0.698
REMARK  Name = 
REMARK  4 active torsions:
REMARK  status: ('A' for Active; 'I' for Inactive)
REMARK    1  A    between atoms: C_2  and  C_3
REMARK    2  A    between atoms: C_6  and  N_7
REMARK    3  A    between atoms: N_7  and  C_8
REMARK    4  A    between atoms: C_8  and  C_9
REMARK                            x       y       z     vdW  Elec       q    Type
REMARK                         _______ _______ _______ _____ _____    ______ ____
ROOT
ATOM      1  N   UNL     1      46.506   7.427  13.596  0.00  0.00    +0.000 N 
ATOM      2  H   UNL     1      45.914   7.557  14.409  0.00  0.00    +0.000 HD
ENDROOT
BRANCH   1   6
ATOM      3  C   UNL     1      45.153   4.304  11.092  0.00  0.00    +0.000 A 
ATOM      4  C   UNL     1      45.201   4.130  12.474  0.00  0.00    +0.000 A 
ATOM      5  C   UNL     1      45.628   5.179  13.300  0.00  0.00    +0.000 A 
ATOM      6  C   UNL     1      46.042   6.396  12.747  0.00  0.00    +0.000 A 
ATOM      7  C   UNL     1      45.921   6.575  11.360  0.00  0.00    +0.000 A 
ATOM      8  C   UNL     1      45.503   5.533  10.536  0.00  0.00    +0.000 A 
BRANCH   3  10
ATOM      9  N   UNL     1      44.453   2.340   9.553  0.00  0.00    +0.000 NA
ATOM     10  C   UNL     1      44.761   3.220  10.243  0.00  0.00    +0.000 C 
ENDBRANCH   3  10
ENDBRANCH   1   6
BRANCH   1  11
ATOM     11  C   UNL     1      47.963   7.584  13.841  0.00  0.00    +0.000 C 
ATOM     12  C   UNL     1      48.577   6.647  14.871  0.00  0.00    +0.000 C 
ATOM     13  C   UNL     1      48.461   8.095  15.195  0.00  0.00    +0.000 C 
BRANCH  11  14
ATOM     14  C   UNL     1      48.741   8.239  12.695  0.00  0.00    +0.000 A 
ATOM     15  C   UNL     1      48.321   9.481  12.178  0.00  0.00    +0.000 A 
ATOM     16  C   UNL     1      49.130  10.235  11.326  0.00  0.00    +0.000 A 
ATOM     17  C   UNL     1      50.380   9.754  10.956  0.00  0.00    +0.000 A 
ATOM     18  C   UNL     1      50.788   8.494  11.381  0.00  0.00    +0.000 A 
ATOM     19  C   UNL     1      49.967   7.738  12.223  0.00  0.00    +0.000 A 
ENDBRANCH  11  14
ENDBRANCH   1  11
TORSDOF 4
ENDMDL
MODEL 8
REMARK VINA RESULT:    -4.739      3.140      5.182
REMARK INTER + INTRA:          -6.546
REMARK INTER:                  -5.959
REMARK INTRA:                  -0.586
REMARK UNBOUND:                -0.698
REMARK  Name = 
REMARK  4 active torsions:
REMARK  status: ('A' for Active; 'I' for Inactive)
REMARK    1  A    between atoms: C_2  and  C_3
REMARK    2  A    between atoms: C_6  and  N_7
REMARK    3  A    between atoms: N_7  and  C_8
REMARK    4  A    between atoms: C_8  and  C_9
REMARK                            x       y       z     vdW  Elec       q    Type
REMARK                         _______ _______ _______ _____ _____    ______ ____
ROOT
ATOM      1  N   UNL     1      47.622   7.218  11.758  0.00  0.00    +0.000 N 
ATOM      2  H   UNL     1      47.958   7.455  10.831  0.00  0.00    +0.000 HD
ENDROOT
BRANCH   1   6
ATOM      3  C   UNL     1      44.710   4.156  11.716  0.00  0.00    +0.000 A 
ATOM      4  C   UNL     1      45.470   4.392  12.861  0.00  0.00    +0.000 A 
ATOM      5  C   UNL     1      46.416   5.425  12.875  0.00  0.00    +0.000 A 
ATOM      6  C   UNL     1      46.634   6.206  11.734  0.00  0.00    +0.000 A 
ATOM      7  C   UNL     1      45.813   5.998  10.616  0.00  0.00    +0.000 A 
ATOM      8  C   UNL     1      44.875   4.969  10.596  0.00  0.00    +0.000 A 
BRANCH   3  10
ATOM      9  N   UNL     1      43.012   2.200  11.664  0.00  0.00    +0.000 NA
ATOM     10  C   UNL     1      43.775   3.072  11.683  0.00  0.00    +0.000 C 
ENDBRANCH   3  10
ENDBRANCH   1   6
BRANCH   1  11
ATOM     11  C   UNL     1      47.486   8.362  12.696  0.00  0.00    +0.000 C 
ATOM     12  C   UNL     1      46.156   9.101  12.667  0.00  0.00    +0.000 C 
ATOM     13  C   UNL     1      47.371   9.788  12.151  0.00  0.00    +0.000 C 
BRANCH  11  14
ATOM     14  C   UNL     1      48.425   8.317  13.906  0.00  0.00    +0.000 A 
ATOM     15  C   UNL     1      48.014   8.871  15.135  0.00  0.00    +0.000 A 
ATOM     16  C   UNL     1      48.712   8.629  16.320  0.00  0.00    +0.000 A 
ATOM     17  C   UNL     1      49.853   7.836  16.300  0.00  0.00    +0.000 A 
ATOM     18  C   UNL     1      50.332   7.346  15.090  0.00  0.00    +0.000 A 
ATOM     19  C   UNL     1      49.635   7.603  13.905  0.00  0.00    +0.000 A 
ENDBRANCH  11  14
ENDBRANCH   1  11
TORSDOF 4
ENDMDL
