MODEL 1
REMARK VINA RESULT:    -7.972      0.000      0.000
REMARK INTER + INTRA:         -11.517
REMARK INTER:                 -10.769
REMARK INTRA:                  -0.749
REMARK UNBOUND:                -0.749
REMARK  Name = 
REMARK  6 active torsions:
REMARK  status: ('A' for Active; 'I' for Inactive)
REMARK    1  A    between atoms: C_2  and  C_25
REMARK    2  A    between atoms: N_3  and  C_4
REMARK    3  A    between atoms: C_4  and  C_5
REMARK    4  A    between atoms: C_8  and  C_9
REMARK    5  A    between atoms: C_9  and  N_10
REMARK    6  A    between atoms: C_11  and  C_13
REMARK                            x       y       z     vdW  Elec       q    Type
REMARK                         _______ _______ _______ _____ _____    ______ ____
ROOT
ATOM      1  C   UNL     1      44.663   5.133  11.306  0.00  0.00    +0.000 A 
ATOM      2  C   UNL     1      45.780   4.696  12.031  0.00  0.00    +0.000 A 
ATOM      3  C   UNL     1      46.580   5.608  12.729  0.00  0.00    +0.000 A 
ATOM      4  C   UNL     1      46.268   6.973  12.731  0.00  0.00    +0.000 A 
ATOM      5  C   UNL     1      45.158   7.411  11.997  0.00  0.00    +0.000 A 
ATOM      6  C   UNL     1      44.357   6.500  11.301  0.00  0.00    +0.000 A 
ENDROOT
BRANCH   1   7
ATOM      7  C   UNL     1      43.814   4.154  10.539  0.00  0.00    +0.000 C 
BRANCH   7  10
ATOM      8  O   UNL     1      45.238   4.634   8.191  0.00  0.00    +0.000 OA
ATOM      9  C   UNL     1      45.271   3.507   8.680  0.00  0.00    +0.000 C 
ATOM     10  N   UNL     1      44.593   3.174   9.830  0.00  0.00    +0.000 N 
ATOM     11  H   UNL     1      44.723   2.235  10.195  0.00  0.00    +0.000 HD
BRANCH   9  12
ATOM     12  C   UNL     1      46.041   2.425   8.099  0.00  0.00    +0.000 A 
ATOM     13  N   UNL     1      45.911   1.142   8.394  0.00  0.00    +0.000 NA
ATOM     14  C   UNL     1      46.828   0.492   7.604  0.00  0.00    +0.000 A 
ATOM     15  C   UNL     1      47.536   1.384   6.835  0.00  0.00    +0.000 A 
ATOM     16  N   UNL     1      47.020   2.609   7.151  0.00  0.00    +0.000 N 
ATOM     17  H   UNL     1      47.289   3.509   6.777  0.00  0.00    +0.000 HD
ENDBRANCH   9  12
ENDBRANCH   7  10
ENDBRANCH   1   7
BRANCH   4  18
ATOM     18  C   UNL     1      47.120   7.961  13.485  0.00  0.00    +0.000 C 
BRANCH  18  19
ATOM     19  N   UNL     1      47.618   7.402  14.717  0.00  0.00    +0.000 N 
ATOM     20  C   UNL     1      48.897   6.913  14.807  0.00  0.00    +0.000 C 
ATOM     21  O   UNL     1      49.683   6.978  13.865  0.00  0.00    +0.000 OA
ATOM     22  H   UNL     1      46.929   7.131  15.412  0.00  0.00    +0.000 HD
BRANCH  20  23
ATOM     23  C   UNL     1      49.304   6.361  16.105  0.00  0.00    +0.000 A 
ATOM     24  C   UNL     1      50.360   6.942  16.798  0.00  0.00    +0.000 A 
ATOM     25  S   UNL     1      50.665   6.217  18.311  0.00  0.00    +0.000 S 
ATOM     26  C   UNL     1      49.437   5.063  18.068  0.00  0.00    +0.000 A 
ATOM     27  N   UNL     1      49.184   4.105  18.999  0.00  0.00    +0.000 NA
ATOM     28  C   UNL     1      48.248   3.278  18.672  0.00  0.00    +0.000 A 
ATOM     29  N   UNL     1      47.540   3.324  17.500  0.00  0.00    +0.000 N 
ATOM     30  C   UNL     1      47.743   4.289  16.541  0.00  0.00    +0.000 A 
ATOM     31  O   UNL     1      47.066   4.323  15.519  0.00  0.00    +0.000 OA
ATOM     32  C   UNL     1      48.791   5.240  16.857  0.00  0.00    +0.000 A 
ATOM     33  H   UNL     1      46.816   2.648  17.305  0.00  0.00    +0.000 HD
ENDBRANCH  20  23
ENDBRANCH  18  19
ENDBRANCH   4  18
TORSDOF 6
ENDMDL
MODEL 2
REMARK VINA RESULT:    -7.614      4.582      9.301
REMARK INTER + INTRA:         -11.033
REMARK INTER:                 -10.251
REMARK INTRA:                  -0.783
REMARK UNBOUND:                -0.749
REMARK  Name = 
REMARK  6 active torsions:
REMARK  status: ('A' for Active; 'I' for Inactive)
REMARK    1  A    between atoms: C_2  and  C_25
REMARK    2  A    between atoms: N_3  and  C_4
REMARK    3  A    between atoms: C_4  and  C_5
REMARK    4  A    between atoms: C_8  and  C_9
REMARK    5  A    between atoms: C_9  and  N_10
REMARK    6  A    between atoms: C_11  and  C_13
REMARK                            x       y       z     vdW  Elec       q    Type
REMARK                         _______ _______ _______ _____ _____    ______ ____
ROOT
ATOM      1  C   UNL     1      51.388   2.992  17.727  0.00  0.00    +0.000 A 
ATOM      2  C   UNL     1      50.631   1.961  17.154  0.00  0.00    +0.000 A 
ATOM      3  C   UNL     1      49.268   2.137  16.892  0.00  0.00    +0.000 A 
ATOM      4  C   UNL     1      48.638   3.355  17.179  0.00  0.00    +0.000 A 
ATOM      5  C   UNL     1      49.393   4.381  17.762  0.00  0.00    +0.000 A 
ATOM      6  C   UNL     1      50.756   4.206  18.023  0.00  0.00    +0.000 A 
ENDROOT
BRANCH   1   7
ATOM      7  C   UNL     1      52.850   2.796  18.027  0.00  0.00    +0.000 C 
BRANCH   7  10
ATOM      8  O   UNL     1      54.557   0.977  16.781  0.00  0.00    +0.000 OA
ATOM      9  C   UNL     1      54.014   0.649  17.832  0.00  0.00    +0.000 C 
ATOM     10  N   UNL     1      53.149   1.474  18.513  0.00  0.00    +0.000 N 
ATOM     11  H   UNL     1      52.789   1.144  19.405  0.00  0.00    +0.000 HD
BRANCH   9  12
ATOM     12  C   UNL     1      54.244  -0.636  18.463  0.00  0.00    +0.000 A 
ATOM     13  N   UNL     1      54.574  -0.824  19.731  0.00  0.00    +0.000 NA
ATOM     14  C   UNL     1      54.678  -2.185  19.882  0.00  0.00    +0.000 A 
ATOM     15  C   UNL     1      54.430  -2.833  18.696  0.00  0.00    +0.000 A 
ATOM     16  N   UNL     1      54.144  -1.838  17.804  0.00  0.00    +0.000 N 
ATOM     17  H   UNL     1      53.905  -1.933  16.827  0.00  0.00    +0.000 HD
ENDBRANCH   9  12
ENDBRANCH   7  10
ENDBRANCH   1   7
BRANCH   4  18
ATOM     18  C   UNL     1      47.172   3.555  16.894  0.00  0.00    +0.000 C 
BRANCH  18  19
ATOM     19  N   UNL     1      46.960   4.573  15.896  0.00  0.00    +0.000 N 
ATOM     20  C   UNL     1      47.073   4.289  14.558  0.00  0.00    +0.000 C 
ATOM     21  O   UNL     1      47.305   3.152  14.155  0.00  0.00    +0.000 OA
ATOM     22  H   UNL     1      47.001   5.540  16.206  0.00  0.00    +0.000 HD
BRANCH  20  23
ATOM     23  C   UNL     1      46.841   5.398  13.624  0.00  0.00    +0.000 A 
ATOM     24  C   UNL     1      47.877   6.277  13.330  0.00  0.00    +0.000 A 
ATOM     25  S   UNL     1      47.456   7.469  12.185  0.00  0.00    +0.000 S 
ATOM     26  C   UNL     1      45.858   6.891  12.088  0.00  0.00    +0.000 A 
ATOM     27  N   UNL     1      44.944   7.496  11.284  0.00  0.00    +0.000 NA
ATOM     28  C   UNL     1      43.764   6.974  11.330  0.00  0.00    +0.000 A 
ATOM     29  N   UNL     1      43.417   5.898  12.105  0.00  0.00    +0.000 N 
ATOM     30  C   UNL     1      44.313   5.238  12.913  0.00  0.00    +0.000 A 
ATOM     31  O   UNL     1      43.978   4.256  13.566  0.00  0.00    +0.000 OA
ATOM     32  C   UNL     1      45.653   5.792  12.903  0.00  0.00    +0.000 A 
ATOM     33  H   UNL     1      42.476   5.534  12.094  0.00  0.00    +0.000 HD
ENDBRANCH  20  23
ENDBRANCH  18  19
ENDBRANCH   4  18
TORSDOF 6
ENDMDL
MODEL 3
REMARK VINA RESULT:    -7.488      1.154      1.547
REMARK INTER + INTRA:         -10.863
REMARK INTER:                  -9.871
REMARK INTRA:                  -0.992
REMARK UNBOUND:                -0.749
REMARK  Name = 
REMARK  6 active torsions:
REMARK  status: ('A' for Active; 'I' for Inactive)
REMARK    1  A    between atoms: C_2  and  C_25
REMARK    2  A    between atoms: N_3  and  C_4
REMARK    3  A    between atoms: C_4  and  C_5
REMARK    4  A    between atoms: C_8  and  C_9
REMARK    5  A    between atoms: C_9  and  N_10
REMARK    6  A    between atoms: C_11  and  C_13
REMARK                            x       y       z     vdW  Elec       q    Type
REMARK                         _______ _______ _______ _____ _____    ______ ____
ROOT
ATOM      1  C   UNL     1      44.591   5.067  11.354  0.00  0.00    +0.000 A 
ATOM      2  C   UNL     1      44.420   6.445  11.161  0.00  0.00    +0.000 A 
ATOM      3  C   UNL     1      45.156   7.368  11.911  0.00  0.00    +0.000 A 
ATOM      4  C   UNL     1      46.093   6.932  12.857  0.00  0.00    +0.000 A 
ATOM      5  C   UNL     1      46.255   5.556  13.058  0.00  0.00    +0.000 A 
ATOM      6  C   UNL     1      45.520   4.632  12.307  0.00  0.00    +0.000 A 
ENDROOT
BRANCH   1   7
ATOM      7  C   UNL     1      43.784   4.074  10.560  0.00  0.00    +0.000 C 
BRANCH   7  10
ATOM      8  O   UNL     1      45.059   4.496   8.116  0.00  0.00    +0.000 OA
ATOM      9  C   UNL     1      45.201   3.411   8.675  0.00  0.00    +0.000 C 
ATOM     10  N   UNL     1      44.604   3.108   9.876  0.00  0.00    +0.000 N 
ATOM     11  H   UNL     1      44.822   2.208  10.295  0.00  0.00    +0.000 HD
BRANCH   9  12
ATOM     12  C   UNL     1      46.025   2.351   8.126  0.00  0.00    +0.000 A 
ATOM     13  N   UNL     1      45.912   1.064   8.409  0.00  0.00    +0.000 NA
ATOM     14  C   UNL     1      46.882   0.441   7.661  0.00  0.00    +0.000 A 
ATOM     15  C   UNL     1      47.604   1.355   6.933  0.00  0.00    +0.000 A 
ATOM     16  N   UNL     1      47.043   2.564   7.228  0.00  0.00    +0.000 N 
ATOM     17  H   UNL     1      47.308   3.473   6.873  0.00  0.00    +0.000 HD
ENDBRANCH   9  12
ENDBRANCH   7  10
ENDBRANCH   1   7
BRANCH   4  18
ATOM     18  C   UNL     1      46.895   7.920  13.665  0.00  0.00    +0.000 C 
BRANCH  18  19
ATOM     19  N   UNL     1      48.016   7.287  14.314  0.00  0.00    +0.000 N 
ATOM     20  C   UNL     1      48.685   7.909  15.338  0.00  0.00    +0.000 C 
ATOM     21  O   UNL     1      48.326   8.999  15.778  0.00  0.00    +0.000 OA
ATOM     22  H   UNL     1      48.461   6.518  13.822  0.00  0.00    +0.000 HD
BRANCH  20  23
ATOM     23  C   UNL     1      49.816   7.182  15.928  0.00  0.00    +0.000 A 
ATOM     24  C   UNL     1      51.098   7.713  15.837  0.00  0.00    +0.000 A 
ATOM     25  S   UNL     1      52.284   6.773  16.623  0.00  0.00    +0.000 S 
ATOM     26  C   UNL     1      51.137   5.593  17.060  0.00  0.00    +0.000 A 
ATOM     27  N   UNL     1      51.508   4.480  17.749  0.00  0.00    +0.000 NA
ATOM     28  C   UNL     1      50.545   3.655  17.987  0.00  0.00    +0.000 A 
ATOM     29  N   UNL     1      49.243   3.843  17.603  0.00  0.00    +0.000 N 
ATOM     30  C   UNL     1      48.816   4.964  16.929  0.00  0.00    +0.000 A 
ATOM     31  O   UNL     1      47.636   5.118  16.632  0.00  0.00    +0.000 OA
ATOM     32  C   UNL     1      49.864   5.920  16.629  0.00  0.00    +0.000 A 
ATOM     33  H   UNL     1      48.533   3.160  17.824  0.00  0.00    +0.000 HD
ENDBRANCH  20  23
ENDBRANCH  18  19
ENDBRANCH   4  18
TORSDOF 6
ENDMDL
MODEL 4
REMARK VINA RESULT:    -7.405      2.051      2.488
REMARK INTER + INTRA:         -10.751
REMARK INTER:                  -9.765
REMARK INTRA:                  -0.985
REMARK UNBOUND:                -0.749
REMARK  Name = 
REMARK  6 active torsions:
REMARK  status: ('A' for Active; 'I' for Inactive)
REMARK    1  A    between atoms: C_2  and  C_25
REMARK    2  A    between atoms: N_3  and  C_4
REMARK    3  A    between atoms: C_4  and  C_5
REMARK    4  A    between atoms: C_8  and  C_9
REMARK    5  A    between atoms: C_9  and  N_10
REMARK    6  A    between atoms: C_11  and  C_13
REMARK                            x       y       z     vdW  Elec       q    Type
REMARK                         _______ _______ _______ _____ _____    ______ ____
ROOT
ATOM      1  C   UNL     1      45.329   4.853  11.733  0.00  0.00    +0.000 A 
ATOM      2  C   UNL     1      45.978   4.339  12.864  0.00  0.00    +0.000 A 
ATOM      3  C   UNL     1      46.859   5.134  13.605  0.00  0.00    +0.000 A 
ATOM      4  C   UNL     1      47.093   6.467  13.243  0.00  0.00    +0.000 A 
ATOM      5  C   UNL     1      46.453   6.977  12.106  0.00  0.00    +0.000 A 
ATOM      6  C   UNL     1      45.572   6.183  11.365  0.00  0.00    +0.000 A 
ENDROOT
BRANCH   1   7
ATOM      7  C   UNL     1      44.396   3.991  10.924  0.00  0.00    +0.000 C 
BRANCH   7  10
ATOM      8  O   UNL     1      45.182   4.521   8.302  0.00  0.00    +0.000 OA
ATOM      9  C   UNL     1      45.448   3.424   8.786  0.00  0.00    +0.000 C 
ATOM     10  N   UNL     1      45.092   3.068  10.066  0.00  0.00    +0.000 N 
ATOM     11  H   UNL     1      45.402   2.162  10.405  0.00  0.00    +0.000 HD
BRANCH   9  12
ATOM     12  C   UNL     1      46.174   2.403   8.056  0.00  0.00    +0.000 A 
ATOM     13  N   UNL     1      47.084   2.625   7.122  0.00  0.00    +0.000 NA
ATOM     14  C   UNL     1      47.505   1.380   6.721  0.00  0.00    +0.000 A 
ATOM     15  C   UNL     1      46.834   0.391   7.400  0.00  0.00    +0.000 A 
ATOM     16  N   UNL     1      45.999   1.054   8.253  0.00  0.00    +0.000 N 
ATOM     17  H   UNL     1      45.352   0.655   8.919  0.00  0.00    +0.000 HD
ENDBRANCH   9  12
ENDBRANCH   7  10
ENDBRANCH   1   7
BRANCH   4  18
ATOM     18  C   UNL     1      48.036   7.332  14.039  0.00  0.00    +0.000 C 
BRANCH  18  19
ATOM     19  N   UNL     1      48.011   6.994  15.440  0.00  0.00    +0.000 N 
ATOM     20  C   UNL     1      49.141   6.558  16.084  0.00  0.00    +0.000 C 
ATOM     21  O   UNL     1      50.226   6.488  15.512  0.00  0.00    +0.000 OA
ATOM     22  H   UNL     1      47.100   6.824  15.858  0.00  0.00    +0.000 HD
BRANCH  20  23
ATOM     23  C   UNL     1      49.007   6.236  17.510  0.00  0.00    +0.000 A 
ATOM     24  C   UNL     1      49.411   4.989  17.974  0.00  0.00    +0.000 A 
ATOM     25  S   UNL     1      49.242   4.801  19.661  0.00  0.00    +0.000 S 
ATOM     26  C   UNL     1      48.567   6.356  19.823  0.00  0.00    +0.000 A 
ATOM     27  N   UNL     1      48.169   6.822  21.036  0.00  0.00    +0.000 NA
ATOM     28  C   UNL     1      47.647   8.002  21.010  0.00  0.00    +0.000 A 
ATOM     29  N   UNL     1      47.491   8.760  19.879  0.00  0.00    +0.000 N 
ATOM     30  C   UNL     1      47.902   8.342  18.635  0.00  0.00    +0.000 A 
ATOM     31  O   UNL     1      47.781   9.061  17.649  0.00  0.00    +0.000 OA
ATOM     32  C   UNL     1      48.489   7.017  18.609  0.00  0.00    +0.000 A 
ATOM     33  H   UNL     1      47.078   9.680  19.925  0.00  0.00    +0.000 HD
ENDBRANCH  20  23
ENDBRANCH  18  19
ENDBRANCH   4  18
TORSDOF 6
ENDMDL
MODEL 5
REMARK VINA RESULT:    -7.327      4.590      9.202
REMARK INTER + INTRA:         -10.646
REMARK INTER:                  -9.557
REMARK INTRA:                  -1.089
REMARK UNBOUND:                -0.749
REMARK  Name = 
REMARK  6 active torsions:
REMARK  status: ('A' for Active; 'I' for Inactive)
REMARK    1  A    between atoms: C_2  and  C_25
REMARK    2  A    between atoms: N_3  and  C_4
REMARK    3  A    between atoms: C_4  and  C_5
REMARK    4  A    between atoms: C_8  and  C_9
REMARK    5  A    between atoms: C_9  and  N_10
REMARK    6  A    between atoms: C_11  and  C_13
REMARK                            x       y       z     vdW  Elec       q    Type
REMARK                         _______ _______ _______ _____ _____    ______ ____
ROOT
ATOM      1  C   UNL     1      51.401   2.938  17.773  0.00  0.00    +0.000 A 
ATOM      2  C   UNL     1      50.604   1.932  17.210  0.00  0.00    +0.000 A 
ATOM      3  C   UNL     1      49.256   2.170  16.916  0.00  0.00    +0.000 A 
ATOM      4  C   UNL     1      48.684   3.425  17.160  0.00  0.00    +0.000 A 
ATOM      5  C   UNL     1      49.479   4.426  17.734  0.00  0.00    +0.000 A 
ATOM      6  C   UNL     1      50.826   4.189  18.027  0.00  0.00    +0.000 A 
ENDROOT
BRANCH   1   7
ATOM      7  C   UNL     1      52.845   2.676  18.108  0.00  0.00    +0.000 C 
BRANCH   7  10
ATOM      8  O   UNL     1      54.695   0.991  16.876  0.00  0.00    +0.000 OA
ATOM      9  C   UNL     1      54.036   0.555  17.817  0.00  0.00    +0.000 C 
ATOM     10  N   UNL     1      53.094   1.308  18.479  0.00  0.00    +0.000 N 
ATOM     11  H   UNL     1      52.636   0.886  19.283  0.00  0.00    +0.000 HD
BRANCH   9  12
ATOM     12  C   UNL     1      54.199  -0.792  18.328  0.00  0.00    +0.000 A 
ATOM     13  N   UNL     1      54.296  -1.126  19.604  0.00  0.00    +0.000 NA
ATOM     14  C   UNL     1      54.428  -2.493  19.615  0.00  0.00    +0.000 A 
ATOM     15  C   UNL     1      54.433  -2.997  18.336  0.00  0.00    +0.000 A 
ATOM     16  N   UNL     1      54.276  -1.907  17.527  0.00  0.00    +0.000 N 
ATOM     17  H   UNL     1      54.226  -1.888  16.518  0.00  0.00    +0.000 HD
ENDBRANCH   9  12
ENDBRANCH   7  10
ENDBRANCH   1   7
BRANCH   4  18
ATOM     18  C   UNL     1      47.236   3.692  16.841  0.00  0.00    +0.000 C 
BRANCH  18  19
ATOM     19  N   UNL     1      47.095   4.681  15.802  0.00  0.00    +0.000 N 
ATOM     20  C   UNL     1      47.146   4.329  14.477  0.00  0.00    +0.000 C 
ATOM     21  O   UNL     1      47.259   3.158  14.122  0.00  0.00    +0.000 OA
ATOM     22  H   UNL     1      47.235   5.652  16.067  0.00  0.00    +0.000 HD
BRANCH  20  23
ATOM     23  C   UNL     1      46.996   5.413  13.498  0.00  0.00    +0.000 A 
ATOM     24  C   UNL     1      45.971   5.355  12.560  0.00  0.00    +0.000 A 
ATOM     25  S   UNL     1      45.904   6.719  11.538  0.00  0.00    +0.000 S 
ATOM     26  C   UNL     1      47.277   7.406  12.272  0.00  0.00    +0.000 A 
ATOM     27  N   UNL     1      47.778   8.596  11.843  0.00  0.00    +0.000 NA
ATOM     28  C   UNL     1      48.838   8.985  12.467  0.00  0.00    +0.000 A 
ATOM     29  N   UNL     1      49.442   8.293  13.485  0.00  0.00    +0.000 N 
ATOM     30  C   UNL     1      48.958   7.101  13.970  0.00  0.00    +0.000 A 
ATOM     31  O   UNL     1      49.502   6.526  14.907  0.00  0.00    +0.000 OA
ATOM     32  C   UNL     1      47.769   6.616  13.296  0.00  0.00    +0.000 A 
ATOM     33  H   UNL     1      50.270   8.654  13.937  0.00  0.00    +0.000 HD
ENDBRANCH  20  23
ENDBRANCH  18  19
ENDBRANCH   4  18
TORSDOF 6
ENDMDL
MODEL 6
REMARK VINA RESULT:    -7.272      3.969      5.089
REMARK INTER + INTRA:         -10.571
REMARK INTER:                  -9.619
REMARK INTRA:                  -0.953
REMARK UNBOUND:                -0.749
REMARK  Name = 
REMARK  6 active torsions:
REMARK  status: ('A' for Active; 'I' for Inactive)
REMARK    1  A    between atoms: C_2  and  C_25
REMARK    2  A    between atoms: N_3  and  C_4
REMARK    3  A    between atoms: C_4  and  C_5
REMARK    4  A    between atoms: C_8  and  C_9
REMARK    5  A    between atoms: C_9  and  N_10
REMARK    6  A    between atoms: C_11  and  C_13
REMARK                            x       y       z     vdW  Elec       q    Type
REMARK                         _______ _______ _______ _____ _____    ______ ____
ROOT
ATOM      1  C   UNL     1      44.538   4.822  11.597  0.00  0.00    +0.000 A 
ATOM      2  C   UNL     1      43.938   6.039  11.246  0.00  0.00    +0.000 A 
ATOM      3  C   UNL     1      44.489   7.254  11.666  0.00  0.00    +0.000 A 
ATOM      4  C   UNL     1      45.662   7.278  12.431  0.00  0.00    +0.000 A 
ATOM      5  C   UNL     1      46.255   6.062  12.792  0.00  0.00    +0.000 A 
ATOM      6  C   UNL     1      45.706   4.846  12.370  0.00  0.00    +0.000 A 
ENDROOT
BRANCH   1   7
ATOM      7  C   UNL     1      43.935   3.514  11.161  0.00  0.00    +0.000 C 
BRANCH   7  10
ATOM      8  O   UNL     1      44.391   4.016   8.456  0.00  0.00    +0.000 OA
ATOM      9  C   UNL     1      44.981   3.079   8.989  0.00  0.00    +0.000 C 
ATOM     10  N   UNL     1      44.811   2.748  10.314  0.00  0.00    +0.000 N 
ATOM     11  H   UNL     1      45.382   1.994  10.686  0.00  0.00    +0.000 HD
BRANCH   9  12
ATOM     12  C   UNL     1      45.922   2.240   8.273  0.00  0.00    +0.000 A 
ATOM     13  N   UNL     1      45.986   0.920   8.344  0.00  0.00    +0.000 NA
ATOM     14  C   UNL     1      47.010   0.559   7.502  0.00  0.00    +0.000 A 
ATOM     15  C   UNL     1      47.589   1.666   6.929  0.00  0.00    +0.000 A 
ATOM     16  N   UNL     1      46.882   2.727   7.419  0.00  0.00    +0.000 N 
ATOM     17  H   UNL     1      47.017   3.708   7.214  0.00  0.00    +0.000 HD
ENDBRANCH   9  12
ENDBRANCH   7  10
ENDBRANCH   1   7
BRANCH   4  18
ATOM     18  C   UNL     1      46.266   8.583  12.883  0.00  0.00    +0.000 C 
BRANCH  18  19
ATOM     19  N   UNL     1      47.480   8.883  12.166  0.00  0.00    +0.000 N 
ATOM     20  C   UNL     1      48.352   9.841  12.618  0.00  0.00    +0.000 C 
ATOM     21  O   UNL     1      48.164  10.441  13.674  0.00  0.00    +0.000 OA
ATOM     22  H   UNL     1      47.533   8.577  11.198  0.00  0.00    +0.000 HD
BRANCH  20  23
ATOM     23  C   UNL     1      49.557  10.073  11.812  0.00  0.00    +0.000 A 
ATOM     24  C   UNL     1      49.884  11.367  11.421  0.00  0.00    +0.000 A 
ATOM     25  S   UNL     1      51.342  11.466  10.542  0.00  0.00    +0.000 S 
ATOM     26  C   UNL     1      51.556   9.778  10.599  0.00  0.00    +0.000 A 
ATOM     27  N   UNL     1      52.625   9.189  10.000  0.00  0.00    +0.000 NA
ATOM     28  C   UNL     1      52.647   7.902  10.095  0.00  0.00    +0.000 A 
ATOM     29  N   UNL     1      51.698   7.150  10.738  0.00  0.00    +0.000 N 
ATOM     30  C   UNL     1      50.615   7.703  11.380  0.00  0.00    +0.000 A 
ATOM     31  O   UNL     1      49.803   7.005  11.978  0.00  0.00    +0.000 OA
ATOM     32  C   UNL     1      50.540   9.149  11.296  0.00  0.00    +0.000 A 
ATOM     33  H   UNL     1      51.774   6.145  10.780  0.00  0.00    +0.000 HD
ENDBRANCH  20  23
ENDBRANCH  18  19
ENDBRANCH   4  18
TORSDOF 6
ENDMDL
MODEL 7
REMARK VINA RESULT:    -7.224      2.239      3.913
REMARK INTER + INTRA:         -10.506
REMARK INTER:                  -9.460
REMARK INTRA:                  -1.047
REMARK UNBOUND:                -0.749
REMARK  Name = 
REMARK  6 active torsions:
REMARK  status: ('A' for Active; 'I' for Inactive)
REMARK    1  A    between atoms: C_2  and  C_25
REMARK    2  A    between atoms: N_3  and  C_4
REMARK    3  A    between atoms: C_4  and  C_5
REMARK    4  A    between atoms: C_8  and  C_9
REMARK    5  A    between atoms: C_9  and  N_10
REMARK    6  A    between atoms: C_11  and  C_13
REMARK                            x       y       z     vdW  Elec       q    Type
REMARK                         _______ _______ _______ _____ _____    ______ ____
ROOT
ATOM      1  C   UNL     1      44.961   4.245  11.526  0.00  0.00    +0.000 A 
ATOM      2  C   UNL     1      45.510   3.190  12.267  0.00  0.00    +0.000 A 
ATOM      3  C   UNL     1      46.282   3.443  13.407  0.00  0.00    +0.000 A 
ATOM      4  C   UNL     1      46.505   4.756  13.839  0.00  0.00    +0.000 A 
ATOM      5  C   UNL     1      45.966   5.811  13.091  0.00  0.00    +0.000 A 
ATOM      6  C   UNL     1      45.193   5.558  11.953  0.00  0.00    +0.000 A 
ENDROOT
BRANCH   1   7
ATOM      7  C   UNL     1      44.147   3.973  10.289  0.00  0.00    +0.000 C 
BRANCH   7  10
ATOM      8  O   UNL     1      45.872   5.161   8.448  0.00  0.00    +0.000 OA
ATOM      9  C   UNL     1      45.725   3.942   8.415  0.00  0.00    +0.000 C 
ATOM     10  N   UNL     1      44.888   3.269   9.276  0.00  0.00    +0.000 N 
ATOM     11  H   UNL     1      44.871   2.255   9.216  0.00  0.00    +0.000 HD
BRANCH   9  12
ATOM     12  C   UNL     1      46.431   3.094   7.474  0.00  0.00    +0.000 A 
ATOM     13  N   UNL     1      46.713   1.814   7.652  0.00  0.00    +0.000 NA
ATOM     14  C   UNL     1      47.374   1.425   6.513  0.00  0.00    +0.000 A 
ATOM     15  C   UNL     1      47.514   2.478   5.641  0.00  0.00    +0.000 A 
ATOM     16  N   UNL     1      46.901   3.531   6.258  0.00  0.00    +0.000 N 
ATOM     17  H   UNL     1      46.798   4.476   5.914  0.00  0.00    +0.000 HD
ENDBRANCH   9  12
ENDBRANCH   7  10
ENDBRANCH   1   7
BRANCH   4  18
ATOM     18  C   UNL     1      47.330   5.037  15.068  0.00  0.00    +0.000 C 
BRANCH  18  19
ATOM     19  N   UNL     1      47.933   6.346  15.014  0.00  0.00    +0.000 N 
ATOM     20  C   UNL     1      49.123   6.603  15.647  0.00  0.00    +0.000 C 
ATOM     21  O   UNL     1      49.747   5.724  16.236  0.00  0.00    +0.000 OA
ATOM     22  H   UNL     1      47.334   7.120  14.743  0.00  0.00    +0.000 HD
BRANCH  20  23
ATOM     23  C   UNL     1      49.650   7.969  15.534  0.00  0.00    +0.000 A 
ATOM     24  C   UNL     1      49.891   8.710  16.685  0.00  0.00    +0.000 A 
ATOM     25  S   UNL     1      50.555  10.251  16.378  0.00  0.00    +0.000 S 
ATOM     26  C   UNL     1      50.489  10.006  14.695  0.00  0.00    +0.000 A 
ATOM     27  N   UNL     1      50.897  10.974  13.831  0.00  0.00    +0.000 NA
ATOM     28  C   UNL     1      50.764  10.667  12.585  0.00  0.00    +0.000 A 
ATOM     29  N   UNL     1      50.262   9.478  12.123  0.00  0.00    +0.000 N 
ATOM     30  C   UNL     1      49.862   8.460  12.958  0.00  0.00    +0.000 A 
ATOM     31  O   UNL     1      49.452   7.394  12.511  0.00  0.00    +0.000 OA
ATOM     32  C   UNL     1      49.984   8.758  14.371  0.00  0.00    +0.000 A 
ATOM     33  H   UNL     1      50.186   9.296  11.133  0.00  0.00    +0.000 HD
ENDBRANCH  20  23
ENDBRANCH  18  19
ENDBRANCH   4  18
TORSDOF 6
ENDMDL
MODEL 8
REMARK VINA RESULT:    -7.124      3.641      8.313
REMARK INTER + INTRA:         -10.371
REMARK INTER:                  -9.314
REMARK INTRA:                  -1.058
REMARK UNBOUND:                -0.749
REMARK  Name = 
REMARK  6 active torsions:
REMARK  status: ('A' for Active; 'I' for Inactive)
REMARK    1  A    between atoms: C_2  and  C_25
REMARK    2  A    between atoms: N_3  and  C_4
REMARK    3  A    between atoms: C_4  and  C_5
REMARK    4  A    between atoms: C_8  and  C_9
REMARK    5  A    between atoms: C_9  and  N_10
REMARK    6  A    between atoms: C_11  and  C_13
REMARK                            x       y       z     vdW  Elec       q    Type
REMARK                         _______ _______ _______ _____ _____    ______ ____
ROOT
ATOM      1  C   UNL     1      49.789   4.758  17.636  0.00  0.00    +0.000 A 
ATOM      2  C   UNL     1      50.558   5.830  17.166  0.00  0.00    +0.000 A 
ATOM      3  C   UNL     1      50.098   6.634  16.117  0.00  0.00    +0.000 A 
ATOM      4  C   UNL     1      48.850   6.392  15.529  0.00  0.00    +0.000 A 
ATOM      5  C   UNL     1      48.087   5.313  15.990  0.00  0.00    +0.000 A 
ATOM      6  C   UNL     1      48.545   4.510  17.040  0.00  0.00    +0.000 A 
ENDROOT
BRANCH   1   7
ATOM      7  C   UNL     1      50.292   3.882  18.752  0.00  0.00    +0.000 C 
BRANCH   7  10
ATOM      8  O   UNL     1      50.512   1.508  17.306  0.00  0.00    +0.000 OA
ATOM      9  C   UNL     1      51.539   2.054  17.700  0.00  0.00    +0.000 C 
ATOM     10  N   UNL     1      51.529   3.221  18.429  0.00  0.00    +0.000 N 
ATOM     11  H   UNL     1      52.428   3.634  18.664  0.00  0.00    +0.000 HD
BRANCH   9  12
ATOM     12  C   UNL     1      52.861   1.527  17.422  0.00  0.00    +0.000 A 
ATOM     13  N   UNL     1      53.997   2.193  17.545  0.00  0.00    +0.000 NA
ATOM     14  C   UNL     1      54.981   1.304  17.187  0.00  0.00    +0.000 A 
ATOM     15  C   UNL     1      54.442   0.093  16.825  0.00  0.00    +0.000 A 
ATOM     16  N   UNL     1      53.094   0.244  16.989  0.00  0.00    +0.000 N 
ATOM     17  H   UNL     1      52.371  -0.443  16.825  0.00  0.00    +0.000 HD
ENDBRANCH   9  12
ENDBRANCH   7  10
ENDBRANCH   1   7
BRANCH   4  18
ATOM     18  C   UNL     1      48.344   7.256  14.402  0.00  0.00    +0.000 C 
BRANCH  18  19
ATOM     19  N   UNL     1      47.095   6.765  13.876  0.00  0.00    +0.000 N 
ATOM     20  C   UNL     1      46.844   6.767  12.527  0.00  0.00    +0.000 C 
ATOM     21  O   UNL     1      47.687   7.135  11.712  0.00  0.00    +0.000 OA
ATOM     22  H   UNL     1      46.320   6.682  14.528  0.00  0.00    +0.000 HD
BRANCH  20  23
ATOM     23  C   UNL     1      45.540   6.249  12.096  0.00  0.00    +0.000 A 
ATOM     24  C   UNL     1      44.599   7.119  11.555  0.00  0.00    +0.000 A 
ATOM     25  S   UNL     1      43.164   6.346  11.054  0.00  0.00    +0.000 S 
ATOM     26  C   UNL     1      43.723   4.833  11.596  0.00  0.00    +0.000 A 
ATOM     27  N   UNL     1      42.949   3.720  11.483  0.00  0.00    +0.000 NA
ATOM     28  C   UNL     1      43.484   2.648  11.962  0.00  0.00    +0.000 A 
ATOM     29  N   UNL     1      44.725   2.586  12.540  0.00  0.00    +0.000 N 
ATOM     30  C   UNL     1      45.554   3.677  12.652  0.00  0.00    +0.000 A 
ATOM     31  O   UNL     1      46.674   3.580  13.142  0.00  0.00    +0.000 OA
ATOM     32  C   UNL     1      44.995   4.912  12.135  0.00  0.00    +0.000 A 
ATOM     33  H   UNL     1      45.090   1.713  12.893  0.00  0.00    +0.000 HD
ENDBRANCH  20  23
ENDBRANCH  18  19
ENDBRANCH   4  18
TORSDOF 6
ENDMDL
MODEL 9
REMARK VINA RESULT:    -6.876      4.719      7.549
REMARK INTER + INTRA:         -10.037
REMARK INTER:                  -9.134
REMARK INTRA:                  -0.903
REMARK UNBOUND:                -0.749
REMARK  Name = 
REMARK  6 active torsions:
REMARK  status: ('A' for Active; 'I' for Inactive)
REMARK    1  A    between atoms: C_2  and  C_25
REMARK    2  A    between atoms: N_3  and  C_4
REMARK    3  A    between atoms: C_4  and  C_5
REMARK    4  A    between atoms: C_8  and  C_9
REMARK    5  A    between atoms: C_9  and  N_10
REMARK    6  A    between atoms: C_11  and  C_13
REMARK                            x       y       z     vdW  Elec       q    Type
REMARK                         _______ _______ _______ _____ _____    ______ ____
ROOT
ATOM      1  C   UNL     1      50.585   8.700  11.343  0.00  0.00    +0.000 A 
ATOM      2  C   UNL     1      49.752   9.815  11.508  0.00  0.00    +0.000 A 
ATOM      3  C   UNL     1      48.456   9.669  12.018  0.00  0.00    +0.000 A 
ATOM      4  C   UNL     1      47.975   8.407  12.389  0.00  0.00    +0.000 A 
ATOM      5  C   UNL     1      48.804   7.292  12.213  0.00  0.00    +0.000 A 
ATOM      6  C   UNL     1      50.099   7.438  11.706  0.00  0.00    +0.000 A 
ENDROOT
BRANCH   1   7
ATOM      7  C   UNL     1      51.972   8.855  10.777  0.00  0.00    +0.000 C 
BRANCH   7  10
ATOM      8  O   UNL     1      52.783   8.906   8.110  0.00  0.00    +0.000 OA
ATOM      9  C   UNL     1      52.790   7.832   8.707  0.00  0.00    +0.000 C 
ATOM     10  N   UNL     1      52.397   7.707  10.020  0.00  0.00    +0.000 N 
ATOM     11  H   UNL     1      52.490   6.792  10.452  0.00  0.00    +0.000 HD
BRANCH   9  12
ATOM     12  C   UNL     1      53.226   6.596   8.088  0.00  0.00    +0.000 A 
ATOM     13  N   UNL     1      52.823   6.139   6.914  0.00  0.00    +0.000 NA
ATOM     14  C   UNL     1      53.498   4.956   6.732  0.00  0.00    +0.000 A 
ATOM     15  C   UNL     1      54.304   4.679   7.810  0.00  0.00    +0.000 A 
ATOM     16  N   UNL     1      54.131   5.734   8.660  0.00  0.00    +0.000 N 
ATOM     17  H   UNL     1      54.570   5.883   9.559  0.00  0.00    +0.000 HD
ENDBRANCH   9  12
ENDBRANCH   7  10
ENDBRANCH   1   7
BRANCH   4  18
ATOM     18  C   UNL     1      46.583   8.242  12.944  0.00  0.00    +0.000 C 
BRANCH  18  19
ATOM     19  N   UNL     1      46.061   6.923  12.682  0.00  0.00    +0.000 N 
ATOM     20  C   UNL     1      45.102   6.719  11.724  0.00  0.00    +0.000 C 
ATOM     21  O   UNL     1      44.688   7.634  11.016  0.00  0.00    +0.000 OA
ATOM     22  H   UNL     1      46.213   6.217  13.396  0.00  0.00    +0.000 HD
BRANCH  20  23
ATOM     23  C   UNL     1      44.634   5.340  11.539  0.00  0.00    +0.000 A 
ATOM     24  C   UNL     1      43.920   4.714  12.555  0.00  0.00    +0.000 A 
ATOM     25  S   UNL     1      43.404   3.138  12.155  0.00  0.00    +0.000 S 
ATOM     26  C   UNL     1      44.167   3.214  10.635  0.00  0.00    +0.000 A 
ATOM     27  N   UNL     1      44.128   2.156   9.781  0.00  0.00    +0.000 NA
ATOM     28  C   UNL     1      44.773   2.339   8.677  0.00  0.00    +0.000 A 
ATOM     29  N   UNL     1      45.451   3.484   8.350  0.00  0.00    +0.000 N 
ATOM     30  C   UNL     1      45.495   4.587   9.169  0.00  0.00    +0.000 A 
ATOM     31  O   UNL     1      46.080   5.611   8.830  0.00  0.00    +0.000 OA
ATOM     32  C   UNL     1      44.791   4.431  10.427  0.00  0.00    +0.000 A 
ATOM     33  H   UNL     1      45.934   3.566   7.467  0.00  0.00    +0.000 HD
ENDBRANCH  20  23
ENDBRANCH  18  19
ENDBRANCH   4  18
TORSDOF 6
ENDMDL
