MODEL 1
REMARK VINA RESULT:    -8.820      0.000      0.000
REMARK INTER + INTRA:         -12.322
REMARK INTER:                 -11.398
REMARK INTRA:                  -0.924
REMARK UNBOUND:                -0.924
REMARK  Name = 
REMARK  5 active torsions:
REMARK  status: ('A' for Active; 'I' for Inactive)
REMARK    1  A    between atoms: C_2  and  C_4
REMARK    2  A    between atoms: C_7  and  N_8
REMARK    3  A    between atoms: N_8  and  C_9
REMARK    4  A    between atoms: C_9  and  C_10
REMARK    5  A    between atoms: C_14  and  C_15
REMARK                            x       y       z     vdW  Elec       q    Type
REMARK                         _______ _______ _______ _____ _____    ______ ____
ROOT
ATOM      1  C   UNL     1      43.606   4.615  11.436  0.00  0.00    +0.000 C 
ENDROOT
BRANCH   1   2
ATOM      2  C   UNL     1      44.898   4.916  12.169  0.00  0.00    +0.000 A 
ATOM      3  C   UNL     1      45.446   3.970  13.030  0.00  0.00    +0.000 A 
ATOM      4  C   UNL     1      46.651   4.259  13.656  0.00  0.00    +0.000 A 
ATOM      5  C   UNL     1      47.269   5.482  13.415  0.00  0.00    +0.000 A 
ATOM      6  C   UNL     1      46.670   6.395  12.549  0.00  0.00    +0.000 A 
ATOM      7  N   UNL     1      45.489   6.120  11.939  0.00  0.00    +0.000 NA
BRANCH   6   8
ATOM      8  C   UNL     1      47.266   7.711  12.233  0.00  0.00    +0.000 A 
ATOM      9  C   UNL     1      48.607   7.816  11.805  0.00  0.00    +0.000 A 
ATOM     10  C   UNL     1      49.178   9.052  11.476  0.00  0.00    +0.000 A 
ATOM     11  C   UNL     1      48.413  10.206  11.578  0.00  0.00    +0.000 A 
ATOM     12  F   UNL     1      48.953  11.388  11.251  0.00  0.00    +0.000 F 
ATOM     13  C   UNL     1      47.101  10.133  12.017  0.00  0.00    +0.000 A 
ATOM     14  F   UNL     1      46.362  11.246  12.126  0.00  0.00    +0.000 F 
ATOM     15  C   UNL     1      46.529   8.906  12.346  0.00  0.00    +0.000 A 
ENDBRANCH   6   8
ENDBRANCH   1   2
BRANCH   1  16
ATOM     16  N   UNL     1      43.744   4.765   9.997  0.00  0.00    +0.000 N 
ATOM     17  H   UNL     1      43.098   5.387   9.527  0.00  0.00    +0.000 HD
BRANCH  16  21
ATOM     18  C   UNL     1      46.457   2.487   7.713  0.00  0.00    +0.000 A 
ATOM     19  C   UNL     1      45.583   1.849   8.594  0.00  0.00    +0.000 A 
ATOM     20  C   UNL     1      44.674   2.600   9.347  0.00  0.00    +0.000 A 
ATOM     21  C   UNL     1      44.605   3.993   9.238  0.00  0.00    +0.000 A 
ATOM     22  C   UNL     1      45.503   4.621   8.363  0.00  0.00    +0.000 A 
ATOM     23  C   UNL     1      46.420   3.880   7.609  0.00  0.00    +0.000 A 
BRANCH  18  25
ATOM     24  N   UNL     1      48.523   2.426   6.421  0.00  0.00    +0.000 N 
ATOM     25  C   UNL     1      47.452   1.730   6.911  0.00  0.00    +0.000 C 
ATOM     26  O   UNL     1      47.342   0.528   6.717  0.00  0.00    +0.000 OA
ATOM     27  H   UNL     1      49.236   1.878   5.957  0.00  0.00    +0.000 HD
ATOM     28  H   UNL     1      48.779   3.340   6.763  0.00  0.00    +0.000 HD
ENDBRANCH  18  25
ENDBRANCH  16  21
ENDBRANCH   1  16
TORSDOF 5
ENDMDL
MODEL 2
REMARK VINA RESULT:    -8.769      3.354      4.470
REMARK INTER + INTRA:         -12.256
REMARK INTER:                 -11.579
REMARK INTRA:                  -0.677
REMARK UNBOUND:                -0.924
REMARK  Name = 
REMARK  5 active torsions:
REMARK  status: ('A' for Active; 'I' for Inactive)
REMARK    1  A    between atoms: C_2  and  C_4
REMARK    2  A    between atoms: C_7  and  N_8
REMARK    3  A    between atoms: N_8  and  C_9
REMARK    4  A    between atoms: C_9  and  C_10
REMARK    5  A    between atoms: C_14  and  C_15
REMARK                            x       y       z     vdW  Elec       q    Type
REMARK                         _______ _______ _______ _____ _____    ______ ____
ROOT
ATOM      1  C   UNL     1      44.163   4.803  11.629  0.00  0.00    +0.000 C 
ENDROOT
BRANCH   1   2
ATOM      2  C   UNL     1      45.440   5.464  12.110  0.00  0.00    +0.000 A 
ATOM      3  C   UNL     1      46.039   6.459  11.343  0.00  0.00    +0.000 A 
ATOM      4  C   UNL     1      47.186   7.072  11.829  0.00  0.00    +0.000 A 
ATOM      5  C   UNL     1      47.705   6.675  13.057  0.00  0.00    +0.000 A 
ATOM      6  C   UNL     1      47.067   5.668  13.779  0.00  0.00    +0.000 A 
ATOM      7  N   UNL     1      45.949   5.060  13.305  0.00  0.00    +0.000 NA
BRANCH   6   8
ATOM      8  C   UNL     1      47.549   5.194  15.094  0.00  0.00    +0.000 A 
ATOM      9  C   UNL     1      48.566   5.886  15.785  0.00  0.00    +0.000 A 
ATOM     10  C   UNL     1      49.015   5.466  17.044  0.00  0.00    +0.000 A 
ATOM     11  C   UNL     1      48.454   4.337  17.626  0.00  0.00    +0.000 A 
ATOM     12  F   UNL     1      48.872   3.940  18.836  0.00  0.00    +0.000 F 
ATOM     13  C   UNL     1      47.470   3.627  16.959  0.00  0.00    +0.000 A 
ATOM     14  F   UNL     1      46.932   2.531  17.513  0.00  0.00    +0.000 F 
ATOM     15  C   UNL     1      47.021   4.041  15.706  0.00  0.00    +0.000 A 
ENDBRANCH   6   8
ENDBRANCH   1   2
BRANCH   1  16
ATOM     16  N   UNL     1      44.059   4.803  10.179  0.00  0.00    +0.000 N 
ATOM     17  H   UNL     1      43.336   5.375   9.761  0.00  0.00    +0.000 HD
BRANCH  16  21
ATOM     18  C   UNL     1      46.392   2.281   7.736  0.00  0.00    +0.000 A 
ATOM     19  C   UNL     1      45.568   1.729   8.718  0.00  0.00    +0.000 A 
ATOM     20  C   UNL     1      44.785   2.561   9.525  0.00  0.00    +0.000 A 
ATOM     21  C   UNL     1      44.793   3.952   9.372  0.00  0.00    +0.000 A 
ATOM     22  C   UNL     1      45.641   4.492   8.395  0.00  0.00    +0.000 A 
ATOM     23  C   UNL     1      46.434   3.669   7.586  0.00  0.00    +0.000 A 
BRANCH  18  25
ATOM     24  N   UNL     1      48.311   2.046   6.251  0.00  0.00    +0.000 N 
ATOM     25  C   UNL     1      47.257   1.435   6.873  0.00  0.00    +0.000 C 
ATOM     26  O   UNL     1      47.059   0.236   6.743  0.00  0.00    +0.000 OA
ATOM     27  H   UNL     1      48.941   1.438   5.744  0.00  0.00    +0.000 HD
ATOM     28  H   UNL     1      48.652   2.954   6.528  0.00  0.00    +0.000 HD
ENDBRANCH  18  25
ENDBRANCH  16  21
ENDBRANCH   1  16
TORSDOF 5
ENDMDL
MODEL 3
REMARK VINA RESULT:    -8.246      4.263      7.146
REMARK INTER + INTRA:         -11.580
REMARK INTER:                 -10.791
REMARK INTRA:                  -0.789
REMARK UNBOUND:                -0.924
REMARK  Name = 
REMARK  5 active torsions:
REMARK  status: ('A' for Active; 'I' for Inactive)
REMARK    1  A    between atoms: C_2  and  C_4
REMARK    2  A    between atoms: C_7  and  N_8
REMARK    3  A    between atoms: N_8  and  C_9
REMARK    4  A    between atoms: C_9  and  C_10
REMARK    5  A    between atoms: C_14  and  C_15
REMARK                            x       y       z     vdW  Elec       q    Type
REMARK                         _______ _______ _______ _____ _____    ______ ____
ROOT
ATOM      1  C   UNL     1      43.857   6.661  11.456  0.00  0.00    +0.000 C 
ENDROOT
BRANCH   1   2
ATOM      2  C   UNL     1      43.909   5.165  11.218  0.00  0.00    +0.000 A 
ATOM      3  C   UNL     1      43.185   4.305  12.039  0.00  0.00    +0.000 A 
ATOM      4  C   UNL     1      43.221   2.944  11.773  0.00  0.00    +0.000 A 
ATOM      5  C   UNL     1      43.981   2.477  10.704  0.00  0.00    +0.000 A 
ATOM      6  C   UNL     1      44.692   3.384   9.920  0.00  0.00    +0.000 A 
ATOM      7  N   UNL     1      44.665   4.715  10.181  0.00  0.00    +0.000 NA
BRANCH   6   8
ATOM      8  C   UNL     1      45.515   2.971   8.763  0.00  0.00    +0.000 A 
ATOM      9  C   UNL     1      45.949   3.915   7.808  0.00  0.00    +0.000 A 
ATOM     10  C   UNL     1      46.752   3.544   6.721  0.00  0.00    +0.000 A 
ATOM     11  C   UNL     1      47.126   2.216   6.571  0.00  0.00    +0.000 A 
ATOM     12  F   UNL     1      47.904   1.860   5.540  0.00  0.00    +0.000 F 
ATOM     13  C   UNL     1      46.694   1.265   7.482  0.00  0.00    +0.000 A 
ATOM     14  F   UNL     1      47.045  -0.021   7.335  0.00  0.00    +0.000 F 
ATOM     15  C   UNL     1      45.895   1.629   8.564  0.00  0.00    +0.000 A 
ENDBRANCH   6   8
ENDBRANCH   1   2
BRANCH   1  16
ATOM     16  N   UNL     1      44.644   7.060  12.612  0.00  0.00    +0.000 N 
ATOM     17  H   UNL     1      44.153   7.200  13.486  0.00  0.00    +0.000 HD
BRANCH  16  21
ATOM     18  C   UNL     1      48.743   7.992  12.300  0.00  0.00    +0.000 A 
ATOM     19  C   UNL     1      47.787   8.990  12.110  0.00  0.00    +0.000 A 
ATOM     20  C   UNL     1      46.425   8.689  12.221  0.00  0.00    +0.000 A 
ATOM     21  C   UNL     1      45.982   7.398  12.532  0.00  0.00    +0.000 A 
ATOM     22  C   UNL     1      46.955   6.402  12.701  0.00  0.00    +0.000 A 
ATOM     23  C   UNL     1      48.319   6.691  12.585  0.00  0.00    +0.000 A 
BRANCH  18  25
ATOM     24  N   UNL     1      50.941   7.367  11.452  0.00  0.00    +0.000 N 
ATOM     25  C   UNL     1      50.197   8.265  12.168  0.00  0.00    +0.000 C 
ATOM     26  O   UNL     1      50.711   9.263  12.652  0.00  0.00    +0.000 OA
ATOM     27  H   UNL     1      51.909   7.617  11.295  0.00  0.00    +0.000 HD
ATOM     28  H   UNL     1      50.524   6.685  10.836  0.00  0.00    +0.000 HD
ENDBRANCH  18  25
ENDBRANCH  16  21
ENDBRANCH   1  16
TORSDOF 5
ENDMDL
MODEL 4
REMARK VINA RESULT:    -7.719      4.673      7.830
REMARK INTER + INTRA:         -10.899
REMARK INTER:                 -10.316
REMARK INTRA:                  -0.584
REMARK UNBOUND:                -0.924
REMARK  Name = 
REMARK  5 active torsions:
REMARK  status: ('A' for Active; 'I' for Inactive)
REMARK    1  A    between atoms: C_2  and  C_4
REMARK    2  A    between atoms: C_7  and  N_8
REMARK    3  A    between atoms: N_8  and  C_9
REMARK    4  A    between atoms: C_9  and  C_10
REMARK    5  A    between atoms: C_14  and  C_15
REMARK                            x       y       z     vdW  Elec       q    Type
REMARK                         _______ _______ _______ _____ _____    ______ ____
ROOT
ATOM      1  C   UNL     1      45.363   6.524  12.415  0.00  0.00    +0.000 C 
ENDROOT
BRANCH   1   2
ATOM      2  C   UNL     1      44.791   5.248  11.830  0.00  0.00    +0.000 A 
ATOM      3  C   UNL     1      43.682   4.649  12.420  0.00  0.00    +0.000 A 
ATOM      4  C   UNL     1      43.158   3.502  11.839  0.00  0.00    +0.000 A 
ATOM      5  C   UNL     1      43.755   2.983  10.694  0.00  0.00    +0.000 A 
ATOM      6  C   UNL     1      44.869   3.621  10.151  0.00  0.00    +0.000 A 
ATOM      7  N   UNL     1      45.389   4.738  10.720  0.00  0.00    +0.000 NA
BRANCH   6   8
ATOM      8  C   UNL     1      45.556   3.138   8.934  0.00  0.00    +0.000 A 
ATOM      9  C   UNL     1      45.955   4.038   7.922  0.00  0.00    +0.000 A 
ATOM     10  C   UNL     1      46.630   3.600   6.776  0.00  0.00    +0.000 A 
ATOM     11  C   UNL     1      46.909   2.249   6.622  0.00  0.00    +0.000 A 
ATOM     12  F   UNL     1      47.567   1.829   5.533  0.00  0.00    +0.000 F 
ATOM     13  C   UNL     1      46.509   1.342   7.590  0.00  0.00    +0.000 A 
ATOM     14  F   UNL     1      46.767   0.035   7.442  0.00  0.00    +0.000 F 
ATOM     15  C   UNL     1      45.836   1.773   8.732  0.00  0.00    +0.000 A 
ENDBRANCH   6   8
ENDBRANCH   1   2
BRANCH   1  16
ATOM     16  N   UNL     1      46.778   6.399  12.727  0.00  0.00    +0.000 N 
ATOM     17  H   UNL     1      47.437   6.537  11.972  0.00  0.00    +0.000 HD
BRANCH  16  21
ATOM     18  C   UNL     1      48.207   4.944  16.416  0.00  0.00    +0.000 A 
ATOM     19  C   UNL     1      48.696   6.147  15.907  0.00  0.00    +0.000 A 
ATOM     20  C   UNL     1      48.219   6.640  14.688  0.00  0.00    +0.000 A 
ATOM     21  C   UNL     1      47.242   5.957  13.952  0.00  0.00    +0.000 A 
ATOM     22  C   UNL     1      46.776   4.740  14.468  0.00  0.00    +0.000 A 
ATOM     23  C   UNL     1      47.251   4.235  15.684  0.00  0.00    +0.000 A 
BRANCH  18  25
ATOM     24  N   UNL     1      47.812   3.664  18.453  0.00  0.00    +0.000 N 
ATOM     25  C   UNL     1      48.703   4.375  17.695  0.00  0.00    +0.000 C 
ATOM     26  O   UNL     1      49.865   4.506  18.050  0.00  0.00    +0.000 OA
ATOM     27  H   UNL     1      48.191   3.207  19.273  0.00  0.00    +0.000 HD
ATOM     28  H   UNL     1      46.937   3.323  18.084  0.00  0.00    +0.000 HD
ENDBRANCH  18  25
ENDBRANCH  16  21
ENDBRANCH   1  16
TORSDOF 5
ENDMDL
MODEL 5
REMARK VINA RESULT:    -7.494      4.227      7.270
REMARK INTER + INTRA:         -10.608
REMARK INTER:                  -9.921
REMARK INTRA:                  -0.687
REMARK UNBOUND:                -0.924
REMARK  Name = 
REMARK  5 active torsions:
REMARK  status: ('A' for Active; 'I' for Inactive)
REMARK    1  A    between atoms: C_2  and  C_4
REMARK    2  A    between atoms: C_7  and  N_8
REMARK    3  A    between atoms: N_8  and  C_9
REMARK    4  A    between atoms: C_9  and  C_10
REMARK    5  A    between atoms: C_14  and  C_15
REMARK                            x       y       z     vdW  Elec       q    Type
REMARK                         _______ _______ _______ _____ _____    ______ ____
ROOT
ATOM      1  C   UNL     1      45.731   4.838  13.878  0.00  0.00    +0.000 C 
ENDROOT
BRANCH   1   2
ATOM      2  C   UNL     1      44.880   4.759  12.626  0.00  0.00    +0.000 A 
ATOM      3  C   UNL     1      43.596   5.296  12.623  0.00  0.00    +0.000 A 
ATOM      4  C   UNL     1      42.856   5.243  11.450  0.00  0.00    +0.000 A 
ATOM      5  C   UNL     1      43.411   4.652  10.319  0.00  0.00    +0.000 A 
ATOM      6  C   UNL     1      44.699   4.124  10.382  0.00  0.00    +0.000 A 
ATOM      7  N   UNL     1      45.424   4.167  11.528  0.00  0.00    +0.000 NA
BRANCH   6   8
ATOM      8  C   UNL     1      45.363   3.488   9.224  0.00  0.00    +0.000 A 
ATOM      9  C   UNL     1      45.853   4.265   8.152  0.00  0.00    +0.000 A 
ATOM     10  C   UNL     1      46.509   3.680   7.061  0.00  0.00    +0.000 A 
ATOM     11  C   UNL     1      46.677   2.303   7.024  0.00  0.00    +0.000 A 
ATOM     12  F   UNL     1      47.315   1.742   5.988  0.00  0.00    +0.000 F 
ATOM     13  C   UNL     1      46.185   1.515   8.052  0.00  0.00    +0.000 A 
ATOM     14  F   UNL     1      46.336   0.183   8.016  0.00  0.00    +0.000 F 
ATOM     15  C   UNL     1      45.532   2.092   9.139  0.00  0.00    +0.000 A 
ENDBRANCH   6   8
ENDBRANCH   1   2
BRANCH   1  16
ATOM     16  N   UNL     1      47.089   5.272  13.592  0.00  0.00    +0.000 N 
ATOM     17  H   UNL     1      47.845   4.659  13.870  0.00  0.00    +0.000 HD
BRANCH  16  21
ATOM     18  C   UNL     1      48.042   9.060  12.006  0.00  0.00    +0.000 A 
ATOM     19  C   UNL     1      46.817   8.861  12.643  0.00  0.00    +0.000 A 
ATOM     20  C   UNL     1      46.499   7.609  13.179  0.00  0.00    +0.000 A 
ATOM     21  C   UNL     1      47.389   6.531  13.105  0.00  0.00    +0.000 A 
ATOM     22  C   UNL     1      48.608   6.742  12.445  0.00  0.00    +0.000 A 
ATOM     23  C   UNL     1      48.933   7.989  11.899  0.00  0.00    +0.000 A 
BRANCH  18  25
ATOM     24  N   UNL     1      47.394  11.247  11.145  0.00  0.00    +0.000 N 
ATOM     25  C   UNL     1      48.409  10.367  11.404  0.00  0.00    +0.000 C 
ATOM     26  O   UNL     1      49.572  10.664  11.173  0.00  0.00    +0.000 OA
ATOM     27  H   UNL     1      47.671  12.165  10.822  0.00  0.00    +0.000 HD
ATOM     28  H   UNL     1      46.474  11.146  11.547  0.00  0.00    +0.000 HD
ENDBRANCH  18  25
ENDBRANCH  16  21
ENDBRANCH   1  16
TORSDOF 5
ENDMDL
MODEL 6
REMARK VINA RESULT:    -6.898      4.453      7.651
REMARK INTER + INTRA:          -9.838
REMARK INTER:                  -9.511
REMARK INTRA:                  -0.327
REMARK UNBOUND:                -0.924
REMARK  Name = 
REMARK  5 active torsions:
REMARK  status: ('A' for Active; 'I' for Inactive)
REMARK    1  A    between atoms: C_2  and  C_4
REMARK    2  A    between atoms: C_7  and  N_8
REMARK    3  A    between atoms: N_8  and  C_9
REMARK    4  A    between atoms: C_9  and  C_10
REMARK    5  A    between atoms: C_14  and  C_15
REMARK                            x       y       z     vdW  Elec       q    Type
REMARK                         _______ _______ _______ _____ _____    ______ ____
ROOT
ATOM      1  C   UNL     1      48.853   7.764  12.922  0.00  0.00    +0.000 C 
ENDROOT
BRANCH   1   2
ATOM      2  C   UNL     1      47.421   7.768  12.426  0.00  0.00    +0.000 A 
ATOM      3  C   UNL     1      46.625   8.895  12.610  0.00  0.00    +0.000 A 
ATOM      4  C   UNL     1      45.330   8.884  12.111  0.00  0.00    +0.000 A 
ATOM      5  C   UNL     1      44.863   7.751  11.450  0.00  0.00    +0.000 A 
ATOM      6  C   UNL     1      45.702   6.648  11.302  0.00  0.00    +0.000 A 
ATOM      7  N   UNL     1      46.967   6.652  11.795  0.00  0.00    +0.000 NA
BRANCH   6   8
ATOM      8  C   UNL     1      45.286   5.411  10.607  0.00  0.00    +0.000 A 
ATOM      9  C   UNL     1      45.679   5.161   9.274  0.00  0.00    +0.000 A 
ATOM     10  C   UNL     1      45.316   3.982   8.611  0.00  0.00    +0.000 A 
ATOM     11  C   UNL     1      44.544   3.036   9.273  0.00  0.00    +0.000 A 
ATOM     12  F   UNL     1      44.206   1.902   8.646  0.00  0.00    +0.000 F 
ATOM     13  C   UNL     1      44.127   3.267  10.574  0.00  0.00    +0.000 A 
ATOM     14  F   UNL     1      43.373   2.362  11.214  0.00  0.00    +0.000 F 
ATOM     15  C   UNL     1      44.485   4.439  11.237  0.00  0.00    +0.000 A 
ENDBRANCH   6   8
ENDBRANCH   1   2
BRANCH   1  16
ATOM     16  N   UNL     1      48.930   7.775  14.374  0.00  0.00    +0.000 N 
ATOM     17  H   UNL     1      49.349   8.585  14.815  0.00  0.00    +0.000 HD
BRANCH  16  21
ATOM     18  C   UNL     1      47.896   4.515  16.839  0.00  0.00    +0.000 A 
ATOM     19  C   UNL     1      47.453   4.555  15.517  0.00  0.00    +0.000 A 
ATOM     20  C   UNL     1      47.800   5.630  14.692  0.00  0.00    +0.000 A 
ATOM     21  C   UNL     1      48.601   6.681  15.154  0.00  0.00    +0.000 A 
ATOM     22  C   UNL     1      49.022   6.636  16.490  0.00  0.00    +0.000 A 
ATOM     23  C   UNL     1      48.675   5.568  17.326  0.00  0.00    +0.000 A 
BRANCH  18  25
ATOM     24  N   UNL     1      48.365   3.165  18.813  0.00  0.00    +0.000 N 
ATOM     25  C   UNL     1      47.532   3.404  17.754  0.00  0.00    +0.000 C 
ATOM     26  O   UNL     1      46.515   2.745  17.593  0.00  0.00    +0.000 OA
ATOM     27  H   UNL     1      48.052   2.467  19.476  0.00  0.00    +0.000 HD
ATOM     28  H   UNL     1      49.057   3.831  19.121  0.00  0.00    +0.000 HD
ENDBRANCH  18  25
ENDBRANCH  16  21
ENDBRANCH   1  16
TORSDOF 5
ENDMDL
MODEL 7
REMARK VINA RESULT:    -6.838      5.300      7.965
REMARK INTER + INTRA:          -9.760
REMARK INTER:                  -8.964
REMARK INTRA:                  -0.797
REMARK UNBOUND:                -0.924
REMARK  Name = 
REMARK  5 active torsions:
REMARK  status: ('A' for Active; 'I' for Inactive)
REMARK    1  A    between atoms: C_2  and  C_4
REMARK    2  A    between atoms: C_7  and  N_8
REMARK    3  A    between atoms: N_8  and  C_9
REMARK    4  A    between atoms: C_9  and  C_10
REMARK    5  A    between atoms: C_14  and  C_15
REMARK                            x       y       z     vdW  Elec       q    Type
REMARK                         _______ _______ _______ _____ _____    ______ ____
ROOT
ATOM      1  C   UNL     1      48.933   6.881  16.392  0.00  0.00    +0.000 C 
ENDROOT
BRANCH   1   2
ATOM      2  C   UNL     1      48.765   6.991  14.890  0.00  0.00    +0.000 A 
ATOM      3  C   UNL     1      49.735   7.633  14.126  0.00  0.00    +0.000 A 
ATOM      4  C   UNL     1      49.572   7.683  12.749  0.00  0.00    +0.000 A 
ATOM      5  C   UNL     1      48.448   7.100  12.173  0.00  0.00    +0.000 A 
ATOM      6  C   UNL     1      47.504   6.477  12.987  0.00  0.00    +0.000 A 
ATOM      7  N   UNL     1      47.656   6.431  14.335  0.00  0.00    +0.000 NA
BRANCH   6   8
ATOM      8  C   UNL     1      46.288   5.827  12.454  0.00  0.00    +0.000 A 
ATOM      9  C   UNL     1      46.018   5.819  11.068  0.00  0.00    +0.000 A 
ATOM     10  C   UNL     1      44.885   5.184  10.545  0.00  0.00    +0.000 A 
ATOM     11  C   UNL     1      43.998   4.552  11.406  0.00  0.00    +0.000 A 
ATOM     12  F   UNL     1      42.919   3.933  10.907  0.00  0.00    +0.000 F 
ATOM     13  C   UNL     1      44.227   4.565  12.772  0.00  0.00    +0.000 A 
ATOM     14  F   UNL     1      43.368   3.965  13.608  0.00  0.00    +0.000 F 
ATOM     15  C   UNL     1      45.353   5.196  13.297  0.00  0.00    +0.000 A 
ENDBRANCH   6   8
ENDBRANCH   1   2
BRANCH   1  16
ATOM     16  N   UNL     1      48.508   5.586  16.899  0.00  0.00    +0.000 N 
ATOM     17  H   UNL     1      47.566   5.511  17.261  0.00  0.00    +0.000 HD
BRANCH  16  21
ATOM     18  C   UNL     1      51.176   2.368  17.440  0.00  0.00    +0.000 A 
ATOM     19  C   UNL     1      49.856   2.120  17.063  0.00  0.00    +0.000 A 
ATOM     20  C   UNL     1      48.969   3.185  16.873  0.00  0.00    +0.000 A 
ATOM     21  C   UNL     1      49.371   4.515  17.043  0.00  0.00    +0.000 A 
ATOM     22  C   UNL     1      50.695   4.746  17.440  0.00  0.00    +0.000 A 
ATOM     23  C   UNL     1      51.590   3.687  17.640  0.00  0.00    +0.000 A 
BRANCH  18  25
ATOM     24  N   UNL     1      51.651   0.094  18.181  0.00  0.00    +0.000 N 
ATOM     25  C   UNL     1      52.144   1.266  17.674  0.00  0.00    +0.000 C 
ATOM     26  O   UNL     1      53.330   1.381  17.399  0.00  0.00    +0.000 OA
ATOM     27  H   UNL     1      52.307  -0.673  18.246  0.00  0.00    +0.000 HD
ATOM     28  H   UNL     1      50.666  -0.125  18.181  0.00  0.00    +0.000 HD
ENDBRANCH  18  25
ENDBRANCH  16  21
ENDBRANCH   1  16
TORSDOF 5
ENDMDL
MODEL 8
REMARK VINA RESULT:    -6.583      6.037      7.715
REMARK INTER + INTRA:          -9.431
REMARK INTER:                  -8.916
REMARK INTRA:                  -0.514
REMARK UNBOUND:                -0.924
REMARK  Name = 
REMARK  5 active torsions:
REMARK  status: ('A' for Active; 'I' for Inactive)
REMARK    1  A    between atoms: C_2  and  C_4
REMARK    2  A    between atoms: C_7  and  N_8
REMARK    3  A    between atoms: N_8  and  C_9
REMARK    4  A    between atoms: C_9  and  C_10
REMARK    5  A    between atoms: C_14  and  C_15
REMARK                            x       y       z     vdW  Elec       q    Type
REMARK                         _______ _______ _______ _____ _____    ______ ____
ROOT
ATOM      1  C   UNL     1      47.130   3.997  15.684  0.00  0.00    +0.000 C 
ENDROOT
BRANCH   1   2
ATOM      2  C   UNL     1      48.161   4.332  16.744  0.00  0.00    +0.000 A 
ATOM      3  C   UNL     1      47.918   5.359  17.651  0.00  0.00    +0.000 A 
ATOM      4  C   UNL     1      48.863   5.617  18.634  0.00  0.00    +0.000 A 
ATOM      5  C   UNL     1      50.024   4.851  18.681  0.00  0.00    +0.000 A 
ATOM      6  C   UNL     1      50.219   3.840  17.741  0.00  0.00    +0.000 A 
ATOM      7  N   UNL     1      49.301   3.589  16.774  0.00  0.00    +0.000 NA
BRANCH   6   8
ATOM      8  C   UNL     1      51.420   2.978  17.728  0.00  0.00    +0.000 A 
ATOM      9  C   UNL     1      51.325   1.606  17.410  0.00  0.00    +0.000 A 
ATOM     10  C   UNL     1      52.456   0.782  17.366  0.00  0.00    +0.000 A 
ATOM     11  C   UNL     1      53.704   1.321  17.650  0.00  0.00    +0.000 A 
ATOM     12  F   UNL     1      54.790   0.538  17.596  0.00  0.00    +0.000 F 
ATOM     13  C   UNL     1      53.823   2.659  17.987  0.00  0.00    +0.000 A 
ATOM     14  F   UNL     1      55.024   3.182  18.271  0.00  0.00    +0.000 F 
ATOM     15  C   UNL     1      52.700   3.483  18.032  0.00  0.00    +0.000 A 
ENDBRANCH   6   8
ENDBRANCH   1   2
BRANCH   1  16
ATOM     16  N   UNL     1      46.750   5.163  14.902  0.00  0.00    +0.000 N 
ATOM     17  H   UNL     1      46.695   6.052  15.382  0.00  0.00    +0.000 HD
BRANCH  16  21
ATOM     18  C   UNL     1      45.551   4.943  10.866  0.00  0.00    +0.000 A 
ATOM     19  C   UNL     1      45.202   3.923  11.751  0.00  0.00    +0.000 A 
ATOM     20  C   UNL     1      45.590   3.995  13.094  0.00  0.00    +0.000 A 
ATOM     21  C   UNL     1      46.321   5.081  13.589  0.00  0.00    +0.000 A 
ATOM     22  C   UNL     1      46.680   6.088  12.683  0.00  0.00    +0.000 A 
ATOM     23  C   UNL     1      46.303   6.023  11.337  0.00  0.00    +0.000 A 
BRANCH  18  25
ATOM     24  N   UNL     1      43.919   4.462   9.121  0.00  0.00    +0.000 N 
ATOM     25  C   UNL     1      45.180   4.895   9.429  0.00  0.00    +0.000 C 
ATOM     26  O   UNL     1      45.952   5.254   8.553  0.00  0.00    +0.000 OA
ATOM     27  H   UNL     1      43.653   4.524   8.146  0.00  0.00    +0.000 HD
ATOM     28  H   UNL     1      43.183   4.402   9.808  0.00  0.00    +0.000 HD
ENDBRANCH  18  25
ENDBRANCH  16  21
ENDBRANCH   1  16
TORSDOF 5
ENDMDL
MODEL 9
REMARK VINA RESULT:    -6.084      2.701      4.131
REMARK INTER + INTRA:          -8.787
REMARK INTER:                  -8.021
REMARK INTRA:                  -0.765
REMARK UNBOUND:                -0.924
REMARK  Name = 
REMARK  5 active torsions:
REMARK  status: ('A' for Active; 'I' for Inactive)
REMARK    1  A    between atoms: C_2  and  C_4
REMARK    2  A    between atoms: C_7  and  N_8
REMARK    3  A    between atoms: N_8  and  C_9
REMARK    4  A    between atoms: C_9  and  C_10
REMARK    5  A    between atoms: C_14  and  C_15
REMARK                            x       y       z     vdW  Elec       q    Type
REMARK                         _______ _______ _______ _____ _____    ______ ____
ROOT
ATOM      1  C   UNL     1      47.160   4.160  15.339  0.00  0.00    +0.000 C 
ENDROOT
BRANCH   1   2
ATOM      2  C   UNL     1      48.165   5.245  15.674  0.00  0.00    +0.000 A 
ATOM      3  C   UNL     1      48.672   5.347  16.965  0.00  0.00    +0.000 A 
ATOM      4  C   UNL     1      49.620   6.326  17.232  0.00  0.00    +0.000 A 
ATOM      5  C   UNL     1      50.028   7.177  16.210  0.00  0.00    +0.000 A 
ATOM      6  C   UNL     1      49.480   7.033  14.937  0.00  0.00    +0.000 A 
ATOM      7  N   UNL     1      48.548   6.082  14.673  0.00  0.00    +0.000 NA
BRANCH   6   8
ATOM      8  C   UNL     1      49.866   7.891  13.796  0.00  0.00    +0.000 A 
ATOM      9  C   UNL     1      49.545   7.523  12.471  0.00  0.00    +0.000 A 
ATOM     10  C   UNL     1      49.880   8.338  11.382  0.00  0.00    +0.000 A 
ATOM     11  C   UNL     1      50.551   9.532  11.604  0.00  0.00    +0.000 A 
ATOM     12  F   UNL     1      50.861  10.319  10.565  0.00  0.00    +0.000 F 
ATOM     13  C   UNL     1      50.898   9.905  12.892  0.00  0.00    +0.000 A 
ATOM     14  F   UNL     1      51.556  11.053  13.110  0.00  0.00    +0.000 F 
ATOM     15  C   UNL     1      50.568   9.098  13.979  0.00  0.00    +0.000 A 
ENDBRANCH   6   8
ENDBRANCH   1   2
BRANCH   1  16
ATOM     16  N   UNL     1      45.962   4.697  14.712  0.00  0.00    +0.000 N 
ATOM     17  H   UNL     1      45.213   5.002  15.320  0.00  0.00    +0.000 HD
BRANCH  16  21
ATOM     18  C   UNL     1      45.421   4.654  10.532  0.00  0.00    +0.000 A 
ATOM     19  C   UNL     1      45.135   3.513  11.281  0.00  0.00    +0.000 A 
ATOM     20  C   UNL     1      45.304   3.524  12.670  0.00  0.00    +0.000 A 
ATOM     21  C   UNL     1      45.750   4.666  13.346  0.00  0.00    +0.000 A 
ATOM     22  C   UNL     1      46.051   5.798  12.576  0.00  0.00    +0.000 A 
ATOM     23  C   UNL     1      45.892   5.796  11.185  0.00  0.00    +0.000 A 
BRANCH  18  25
ATOM     24  N   UNL     1      44.099   4.216   8.531  0.00  0.00    +0.000 N 
ATOM     25  C   UNL     1      45.276   4.678   9.054  0.00  0.00    +0.000 C 
ATOM     26  O   UNL     1      46.156   5.118   8.328  0.00  0.00    +0.000 OA
ATOM     27  H   UNL     1      43.983   4.325   7.531  0.00  0.00    +0.000 HD
ATOM     28  H   UNL     1      43.270   4.087   9.091  0.00  0.00    +0.000 HD
ENDBRANCH  18  25
ENDBRANCH  16  21
ENDBRANCH   1  16
TORSDOF 5
ENDMDL
