MODEL 1
REMARK VINA RESULT:    -7.230      0.000      0.000
REMARK INTER + INTRA:          -9.932
REMARK INTER:                  -9.343
REMARK INTRA:                  -0.589
REMARK UNBOUND:                -0.589
REMARK  Name = 
REMARK  5 active torsions:
REMARK  status: ('A' for Active; 'I' for Inactive)
REMARK    1  A    between atoms: C_2  and  C_4
REMARK    2  A    between atoms: C_7  and  N_8
REMARK    3  A    between atoms: N_8  and  C_9
REMARK    4  A    between atoms: C_9  and  C_10
REMARK    5  A    between atoms: C_10  and  C_11
REMARK                            x       y       z     vdW  Elec       q    Type
REMARK                         _______ _______ _______ _____ _____    ______ ____
ROOT
ATOM      1  C   UNL     1      46.356   2.282   7.859  0.00  0.00    +0.000 A 
ATOM      2  C   UNL     1      45.429   1.758   8.762  0.00  0.00    +0.000 A 
ATOM      3  C   UNL     1      44.558   2.615   9.439  0.00  0.00    +0.000 A 
ATOM      4  C   UNL     1      44.631   4.002   9.261  0.00  0.00    +0.000 A 
ATOM      5  C   UNL     1      45.531   4.510   8.318  0.00  0.00    +0.000 A 
ATOM      6  C   UNL     1      46.409   3.658   7.641  0.00  0.00    +0.000 A 
ENDROOT
BRANCH   1   8
ATOM      7  N   UNL     1      48.387   2.004   6.568  0.00  0.00    +0.000 N 
ATOM      8  C   UNL     1      47.303   1.401   7.136  0.00  0.00    +0.000 C 
ATOM      9  O   UNL     1      47.146   0.188   7.083  0.00  0.00    +0.000 OA
ATOM     10  H   UNL     1      49.085   1.383   6.171  0.00  0.00    +0.000 HD
ATOM     11  H   UNL     1      48.681   2.939   6.810  0.00  0.00    +0.000 HD
ENDBRANCH   1   8
BRANCH   4  12
ATOM     12  N   UNL     1      43.814   4.912   9.945  0.00  0.00    +0.000 N 
ATOM     13  H   UNL     1      42.871   4.881   9.557  0.00  0.00    +0.000 HD
BRANCH  12  14
ATOM     14  C   UNL     1      43.806   4.851  11.404  0.00  0.00    +0.000 C 
BRANCH  14  15
ATOM     15  C   UNL     1      45.098   5.439  11.989  0.00  0.00    +0.000 C 
BRANCH  15  16
ATOM     16  C   UNL     1      45.538   4.599  13.171  0.00  0.00    +0.000 C 
ATOM     17  C   UNL     1      46.964   4.777  13.713  0.00  0.00    +0.000 C 
ATOM     18  O   UNL     1      47.120   3.331  13.797  0.00  0.00    +0.000 OA
ATOM     19  C   UNL     1      46.022   3.175  12.857  0.00  0.00    +0.000 C 
ENDBRANCH  15  16
ENDBRANCH  14  15
ENDBRANCH  12  14
ENDBRANCH   4  12
TORSDOF 5
ENDMDL
MODEL 2
REMARK VINA RESULT:    -7.055      1.234      1.849
REMARK INTER + INTRA:          -9.706
REMARK INTER:                  -9.183
REMARK INTRA:                  -0.522
REMARK UNBOUND:                -0.589
REMARK  Name = 
REMARK  5 active torsions:
REMARK  status: ('A' for Active; 'I' for Inactive)
REMARK    1  A    between atoms: C_2  and  C_4
REMARK    2  A    between atoms: C_7  and  N_8
REMARK    3  A    between atoms: N_8  and  C_9
REMARK    4  A    between atoms: C_9  and  C_10
REMARK    5  A    between atoms: C_10  and  C_11
REMARK                            x       y       z     vdW  Elec       q    Type
REMARK                         _______ _______ _______ _____ _____    ______ ____
ROOT
ATOM      1  C   UNL     1      46.278   2.087   7.957  0.00  0.00    +0.000 A 
ATOM      2  C   UNL     1      46.415   3.433   7.609  0.00  0.00    +0.000 A 
ATOM      3  C   UNL     1      45.600   4.393   8.213  0.00  0.00    +0.000 A 
ATOM      4  C   UNL     1      44.612   4.022   9.133  0.00  0.00    +0.000 A 
ATOM      5  C   UNL     1      44.517   2.678   9.509  0.00  0.00    +0.000 A 
ATOM      6  C   UNL     1      45.326   1.711   8.904  0.00  0.00    +0.000 A 
ENDROOT
BRANCH   1   8
ATOM      7  N   UNL     1      46.814  -0.252   7.629  0.00  0.00    +0.000 N 
ATOM      8  C   UNL     1      47.116   1.043   7.323  0.00  0.00    +0.000 C 
ATOM      9  O   UNL     1      48.009   1.321   6.534  0.00  0.00    +0.000 OA
ATOM     10  H   UNL     1      47.320  -0.962   7.108  0.00  0.00    +0.000 HD
ATOM     11  H   UNL     1      45.941  -0.523   8.055  0.00  0.00    +0.000 HD
ENDBRANCH   1   8
BRANCH   4  12
ATOM     12  N   UNL     1      43.738   4.935   9.738  0.00  0.00    +0.000 N 
ATOM     13  H   UNL     1      42.974   5.152   9.097  0.00  0.00    +0.000 HD
BRANCH  12  14
ATOM     14  C   UNL     1      43.252   4.620  11.079  0.00  0.00    +0.000 C 
BRANCH  14  15
ATOM     15  C   UNL     1      43.240   5.871  11.970  0.00  0.00    +0.000 C 
BRANCH  15  16
ATOM     16  C   UNL     1      44.466   5.860  12.862  0.00  0.00    +0.000 C 
ATOM     17  C   UNL     1      45.799   6.363  12.289  0.00  0.00    +0.000 C 
ATOM     18  O   UNL     1      46.489   5.223  12.877  0.00  0.00    +0.000 OA
ATOM     19  C   UNL     1      45.218   4.525  12.975  0.00  0.00    +0.000 C 
ENDBRANCH  15  16
ENDBRANCH  14  15
ENDBRANCH  12  14
ENDBRANCH   4  12
TORSDOF 5
ENDMDL
MODEL 3
REMARK VINA RESULT:    -6.536      2.013      6.085
REMARK INTER + INTRA:          -9.035
REMARK INTER:                  -8.623
REMARK INTRA:                  -0.412
REMARK UNBOUND:                -0.589
REMARK  Name = 
REMARK  5 active torsions:
REMARK  status: ('A' for Active; 'I' for Inactive)
REMARK    1  A    between atoms: C_2  and  C_4
REMARK    2  A    between atoms: C_7  and  N_8
REMARK    3  A    between atoms: N_8  and  C_9
REMARK    4  A    between atoms: C_9  and  C_10
REMARK    5  A    between atoms: C_10  and  C_11
REMARK                            x       y       z     vdW  Elec       q    Type
REMARK                         _______ _______ _______ _____ _____    ______ ____
ROOT
ATOM      1  C   UNL     1      46.260   4.978  12.728  0.00  0.00    +0.000 A 
ATOM      2  C   UNL     1      46.277   6.010  11.787  0.00  0.00    +0.000 A 
ATOM      3  C   UNL     1      45.586   5.863  10.583  0.00  0.00    +0.000 A 
ATOM      4  C   UNL     1      44.911   4.674  10.281  0.00  0.00    +0.000 A 
ATOM      5  C   UNL     1      44.861   3.667  11.251  0.00  0.00    +0.000 A 
ATOM      6  C   UNL     1      45.555   3.806  12.457  0.00  0.00    +0.000 A 
ENDROOT
BRANCH   1   8
ATOM      7  N   UNL     1      46.489   4.405  15.070  0.00  0.00    +0.000 N 
ATOM      8  C   UNL     1      46.995   5.097  14.009  0.00  0.00    +0.000 C 
ATOM      9  O   UNL     1      48.027   5.749  14.105  0.00  0.00    +0.000 OA
ATOM     10  H   UNL     1      47.056   4.404  15.912  0.00  0.00    +0.000 HD
ATOM     11  H   UNL     1      45.809   3.667  14.967  0.00  0.00    +0.000 HD
ENDBRANCH   1   8
BRANCH   4  12
ATOM     12  N   UNL     1      44.238   4.454   9.072  0.00  0.00    +0.000 N 
ATOM     13  H   UNL     1      44.179   5.329   8.550  0.00  0.00    +0.000 HD
BRANCH  12  14
ATOM     14  C   UNL     1      44.696   3.349   8.234  0.00  0.00    +0.000 C 
BRANCH  14  15
ATOM     15  C   UNL     1      46.106   3.616   7.688  0.00  0.00    +0.000 C 
BRANCH  15  16
ATOM     16  C   UNL     1      46.517   2.469   6.787  0.00  0.00    +0.000 C 
ATOM     17  C   UNL     1      47.796   1.689   7.123  0.00  0.00    +0.000 C 
ATOM     18  O   UNL     1      48.196   1.727   5.723  0.00  0.00    +0.000 OA
ATOM     19  C   UNL     1      47.289   2.843   5.511  0.00  0.00    +0.000 C 
ENDBRANCH  15  16
ENDBRANCH  14  15
ENDBRANCH  12  14
ENDBRANCH   4  12
TORSDOF 5
ENDMDL
MODEL 4
REMARK VINA RESULT:    -5.500      2.378      6.060
REMARK INTER + INTRA:          -7.696
REMARK INTER:                  -7.240
REMARK INTRA:                  -0.456
REMARK UNBOUND:                -0.589
REMARK  Name = 
REMARK  5 active torsions:
REMARK  status: ('A' for Active; 'I' for Inactive)
REMARK    1  A    between atoms: C_2  and  C_4
REMARK    2  A    between atoms: C_7  and  N_8
REMARK    3  A    between atoms: N_8  and  C_9
REMARK    4  A    between atoms: C_9  and  C_10
REMARK    5  A    between atoms: C_10  and  C_11
REMARK                            x       y       z     vdW  Elec       q    Type
REMARK                         _______ _______ _______ _____ _____    ______ ____
ROOT
ATOM      1  C   UNL     1      45.561   6.342  12.414  0.00  0.00    +0.000 A 
ATOM      2  C   UNL     1      46.034   5.211  13.082  0.00  0.00    +0.000 A 
ATOM      3  C   UNL     1      45.728   3.938  12.595  0.00  0.00    +0.000 A 
ATOM      4  C   UNL     1      44.911   3.775  11.470  0.00  0.00    +0.000 A 
ATOM      5  C   UNL     1      44.483   4.916  10.782  0.00  0.00    +0.000 A 
ATOM      6  C   UNL     1      44.782   6.193  11.267  0.00  0.00    +0.000 A 
ENDROOT
BRANCH   1   8
ATOM      7  N   UNL     1      44.881   8.644  12.738  0.00  0.00    +0.000 N 
ATOM      8  C   UNL     1      45.855   7.706  12.913  0.00  0.00    +0.000 C 
ATOM      9  O   UNL     1      46.903   7.972  13.489  0.00  0.00    +0.000 OA
ATOM     10  H   UNL     1      45.046   9.544  13.178  0.00  0.00    +0.000 HD
ATOM     11  H   UNL     1      43.927   8.405  12.512  0.00  0.00    +0.000 HD
ENDBRANCH   1   8
BRANCH   4  12
ATOM     12  N   UNL     1      44.536   2.525  10.962  0.00  0.00    +0.000 N 
ATOM     13  H   UNL     1      43.735   2.171  11.487  0.00  0.00    +0.000 HD
BRANCH  12  14
ATOM     14  C   UNL     1      44.336   2.412   9.520  0.00  0.00    +0.000 C 
BRANCH  14  15
ATOM     15  C   UNL     1      45.560   1.780   8.841  0.00  0.00    +0.000 C 
BRANCH  15  16
ATOM     16  C   UNL     1      45.870   2.539   7.566  0.00  0.00    +0.000 C 
ATOM     17  C   UNL     1      47.339   2.788   7.194  0.00  0.00    +0.000 C 
ATOM     18  O   UNL     1      47.026   4.170   6.857  0.00  0.00    +0.000 OA
ATOM     19  C   UNL     1      45.813   4.072   7.650  0.00  0.00    +0.000 C 
ENDBRANCH  15  16
ENDBRANCH  14  15
ENDBRANCH  12  14
ENDBRANCH   4  12
TORSDOF 5
ENDMDL
MODEL 5
REMARK VINA RESULT:    -5.042      3.080      5.872
REMARK INTER + INTRA:          -7.105
REMARK INTER:                  -6.552
REMARK INTRA:                  -0.553
REMARK UNBOUND:                -0.589
REMARK  Name = 
REMARK  5 active torsions:
REMARK  status: ('A' for Active; 'I' for Inactive)
REMARK    1  A    between atoms: C_2  and  C_4
REMARK    2  A    between atoms: C_7  and  N_8
REMARK    3  A    between atoms: N_8  and  C_9
REMARK    4  A    between atoms: C_9  and  C_10
REMARK    5  A    between atoms: C_10  and  C_11
REMARK                            x       y       z     vdW  Elec       q    Type
REMARK                         _______ _______ _______ _____ _____    ______ ____
ROOT
ATOM      1  C   UNL     1      47.303   6.939  12.732  0.00  0.00    +0.000 A 
ATOM      2  C   UNL     1      46.128   7.418  12.148  0.00  0.00    +0.000 A 
ATOM      3  C   UNL     1      44.942   6.693  12.278  0.00  0.00    +0.000 A 
ATOM      4  C   UNL     1      44.920   5.463  12.947  0.00  0.00    +0.000 A 
ATOM      5  C   UNL     1      46.092   5.017  13.568  0.00  0.00    +0.000 A 
ATOM      6  C   UNL     1      47.284   5.736  13.438  0.00  0.00    +0.000 A 
ENDROOT
BRANCH   1   8
ATOM      7  N   UNL     1      49.718   6.925  12.554  0.00  0.00    +0.000 N 
ATOM      8  C   UNL     1      48.580   7.677  12.600  0.00  0.00    +0.000 C 
ATOM      9  O   UNL     1      48.616   8.896  12.496  0.00  0.00    +0.000 OA
ATOM     10  H   UNL     1      50.577   7.429  12.354  0.00  0.00    +0.000 HD
ATOM     11  H   UNL     1      49.710   5.932  12.375  0.00  0.00    +0.000 HD
ENDBRANCH   1   8
BRANCH   4  12
ATOM     12  N   UNL     1      43.770   4.672  13.072  0.00  0.00    +0.000 N 
ATOM     13  H   UNL     1      42.962   5.187  12.719  0.00  0.00    +0.000 HD
BRANCH  12  14
ATOM     14  C   UNL     1      43.824   3.312  12.541  0.00  0.00    +0.000 C 
BRANCH  14  15
ATOM     15  C   UNL     1      43.398   3.277  11.066  0.00  0.00    +0.000 C 
BRANCH  15  16
ATOM     16  C   UNL     1      44.634   3.208  10.192  0.00  0.00    +0.000 C 
ATOM     17  C   UNL     1      44.713   4.114   8.954  0.00  0.00    +0.000 C 
ATOM     18  O   UNL     1      45.209   2.997   8.161  0.00  0.00    +0.000 OA
ATOM     19  C   UNL     1      44.676   2.077   9.153  0.00  0.00    +0.000 C 
ENDBRANCH  15  16
ENDBRANCH  14  15
ENDBRANCH  12  14
ENDBRANCH   4  12
TORSDOF 5
ENDMDL
MODEL 6
REMARK VINA RESULT:    -5.000      3.370      5.345
REMARK INTER + INTRA:          -7.051
REMARK INTER:                  -6.731
REMARK INTRA:                  -0.320
REMARK UNBOUND:                -0.589
REMARK  Name = 
REMARK  5 active torsions:
REMARK  status: ('A' for Active; 'I' for Inactive)
REMARK    1  A    between atoms: C_2  and  C_4
REMARK    2  A    between atoms: C_7  and  N_8
REMARK    3  A    between atoms: N_8  and  C_9
REMARK    4  A    between atoms: C_9  and  C_10
REMARK    5  A    between atoms: C_10  and  C_11
REMARK                            x       y       z     vdW  Elec       q    Type
REMARK                         _______ _______ _______ _____ _____    ______ ____
ROOT
ATOM      1  C   UNL     1      45.126   4.423  11.491  0.00  0.00    +0.000 A 
ATOM      2  C   UNL     1      45.542   5.752  11.596  0.00  0.00    +0.000 A 
ATOM      3  C   UNL     1      46.347   6.146  12.667  0.00  0.00    +0.000 A 
ATOM      4  C   UNL     1      46.707   5.236  13.669  0.00  0.00    +0.000 A 
ATOM      5  C   UNL     1      46.324   3.898  13.528  0.00  0.00    +0.000 A 
ATOM      6  C   UNL     1      45.514   3.498  12.461  0.00  0.00    +0.000 A 
ENDROOT
BRANCH   1   8
ATOM      7  N   UNL     1      44.288   4.733   9.241  0.00  0.00    +0.000 N 
ATOM      8  C   UNL     1      44.260   3.977  10.376  0.00  0.00    +0.000 C 
ATOM      9  O   UNL     1      43.582   2.960  10.448  0.00  0.00    +0.000 OA
ATOM     10  H   UNL     1      43.778   4.362   8.445  0.00  0.00    +0.000 HD
ATOM     11  H   UNL     1      45.013   5.409   9.052  0.00  0.00    +0.000 HD
ENDBRANCH   1   8
BRANCH   4  12
ATOM     12  N   UNL     1      47.475   5.584  14.788  0.00  0.00    +0.000 N 
ATOM     13  H   UNL     1      47.222   6.524  15.096  0.00  0.00    +0.000 HD
BRANCH  12  14
ATOM     14  C   UNL     1      47.516   4.638  15.900  0.00  0.00    +0.000 C 
BRANCH  14  15
ATOM     15  C   UNL     1      48.391   5.171  17.045  0.00  0.00    +0.000 C 
BRANCH  15  16
ATOM     16  C   UNL     1      49.024   4.002  17.774  0.00  0.00    +0.000 C 
ATOM     17  C   UNL     1      50.522   3.733  17.575  0.00  0.00    +0.000 C 
ATOM     18  O   UNL     1      50.253   2.309  17.423  0.00  0.00    +0.000 OA
ATOM     19  C   UNL     1      48.866   2.620  17.120  0.00  0.00    +0.000 C 
ENDBRANCH  15  16
ENDBRANCH  14  15
ENDBRANCH  12  14
ENDBRANCH   4  12
TORSDOF 5
ENDMDL
MODEL 7
REMARK VINA RESULT:    -4.850      3.635      5.312
REMARK INTER + INTRA:          -6.856
REMARK INTER:                  -6.417
REMARK INTRA:                  -0.439
REMARK UNBOUND:                -0.589
REMARK  Name = 
REMARK  5 active torsions:
REMARK  status: ('A' for Active; 'I' for Inactive)
REMARK    1  A    between atoms: C_2  and  C_4
REMARK    2  A    between atoms: C_7  and  N_8
REMARK    3  A    between atoms: N_8  and  C_9
REMARK    4  A    between atoms: C_9  and  C_10
REMARK    5  A    between atoms: C_10  and  C_11
REMARK                            x       y       z     vdW  Elec       q    Type
REMARK                         _______ _______ _______ _____ _____    ______ ____
ROOT
ATOM      1  C   UNL     1      44.661   4.059  11.556  0.00  0.00    +0.000 A 
ATOM      2  C   UNL     1      44.913   5.166  10.743  0.00  0.00    +0.000 A 
ATOM      3  C   UNL     1      45.533   6.296  11.280  0.00  0.00    +0.000 A 
ATOM      4  C   UNL     1      45.867   6.356  12.639  0.00  0.00    +0.000 A 
ATOM      5  C   UNL     1      45.653   5.224  13.432  0.00  0.00    +0.000 A 
ATOM      6  C   UNL     1      45.027   4.091  12.902  0.00  0.00    +0.000 A 
ENDROOT
BRANCH   1   8
ATOM      7  N   UNL     1      44.596   2.235   9.965  0.00  0.00    +0.000 N 
ATOM      8  C   UNL     1      43.991   2.852  11.020  0.00  0.00    +0.000 C 
ATOM      9  O   UNL     1      42.967   2.403  11.521  0.00  0.00    +0.000 OA
ATOM     10  H   UNL     1      44.191   1.350   9.675  0.00  0.00    +0.000 HD
ATOM     11  H   UNL     1      45.553   2.416   9.702  0.00  0.00    +0.000 HD
ENDBRANCH   1   8
BRANCH   4  12
ATOM     12  N   UNL     1      46.450   7.478  13.242  0.00  0.00    +0.000 N 
ATOM     13  H   UNL     1      45.806   7.868  13.931  0.00  0.00    +0.000 HD
BRANCH  12  14
ATOM     14  C   UNL     1      47.801   7.332  13.779  0.00  0.00    +0.000 C 
BRANCH  14  15
ATOM     15  C   UNL     1      48.761   6.777  12.716  0.00  0.00    +0.000 C 
BRANCH  15  16
ATOM     16  C   UNL     1      49.187   7.902  11.794  0.00  0.00    +0.000 C 
ATOM     17  C   UNL     1      50.657   7.978  11.353  0.00  0.00    +0.000 C 
ATOM     18  O   UNL     1      50.665   9.412  11.608  0.00  0.00    +0.000 OA
ATOM     19  C   UNL     1      49.498   9.252  12.458  0.00  0.00    +0.000 C 
ENDBRANCH  15  16
ENDBRANCH  14  15
ENDBRANCH  12  14
ENDBRANCH   4  12
TORSDOF 5
ENDMDL
MODEL 8
REMARK VINA RESULT:    -4.735      3.372      5.100
REMARK INTER + INTRA:          -6.707
REMARK INTER:                  -6.294
REMARK INTRA:                  -0.413
REMARK UNBOUND:                -0.589
REMARK  Name = 
REMARK  5 active torsions:
REMARK  status: ('A' for Active; 'I' for Inactive)
REMARK    1  A    between atoms: C_2  and  C_4
REMARK    2  A    between atoms: C_7  and  N_8
REMARK    3  A    between atoms: N_8  and  C_9
REMARK    4  A    between atoms: C_9  and  C_10
REMARK    5  A    between atoms: C_10  and  C_11
REMARK                            x       y       z     vdW  Elec       q    Type
REMARK                         _______ _______ _______ _____ _____    ______ ____
ROOT
ATOM      1  C   UNL     1      45.002   4.190  11.801  0.00  0.00    +0.000 A 
ATOM      2  C   UNL     1      45.819   3.807  12.867  0.00  0.00    +0.000 A 
ATOM      3  C   UNL     1      46.541   4.773  13.571  0.00  0.00    +0.000 A 
ATOM      4  C   UNL     1      46.496   6.121  13.195  0.00  0.00    +0.000 A 
ATOM      5  C   UNL     1      45.637   6.499  12.157  0.00  0.00    +0.000 A 
ATOM      6  C   UNL     1      44.916   5.536  11.445  0.00  0.00    +0.000 A 
ENDROOT
BRANCH   1   8
ATOM      7  N   UNL     1      44.939   2.448  10.120  0.00  0.00    +0.000 N 
ATOM      8  C   UNL     1      44.236   3.189  11.024  0.00  0.00    +0.000 C 
ATOM      9  O   UNL     1      43.040   3.003  11.210  0.00  0.00    +0.000 OA
ATOM     10  H   UNL     1      44.430   1.692   9.672  0.00  0.00    +0.000 HD
ATOM     11  H   UNL     1      45.946   2.390  10.126  0.00  0.00    +0.000 HD
ENDBRANCH   1   8
BRANCH   4  12
ATOM     12  N   UNL     1      47.231   7.126  13.836  0.00  0.00    +0.000 N 
ATOM     13  H   UNL     1      46.618   7.650  14.463  0.00  0.00    +0.000 HD
BRANCH  12  14
ATOM     14  C   UNL     1      48.478   6.740  14.491  0.00  0.00    +0.000 C 
BRANCH  14  15
ATOM     15  C   UNL     1      48.625   7.434  15.853  0.00  0.00    +0.000 C 
BRANCH  15  16
ATOM     16  C   UNL     1      48.969   6.398  16.905  0.00  0.00    +0.000 C 
ATOM     17  C   UNL     1      50.352   5.732  16.861  0.00  0.00    +0.000 C 
ATOM     18  O   UNL     1      49.740   4.431  17.094  0.00  0.00    +0.000 OA
ATOM     19  C   UNL     1      48.465   4.969  16.650  0.00  0.00    +0.000 C 
ENDBRANCH  15  16
ENDBRANCH  14  15
ENDBRANCH  12  14
ENDBRANCH   4  12
TORSDOF 5
ENDMDL
MODEL 9
REMARK VINA RESULT:    -4.620      4.815      8.136
REMARK INTER + INTRA:          -6.559
REMARK INTER:                  -6.286
REMARK INTRA:                  -0.274
REMARK UNBOUND:                -0.589
REMARK  Name = 
REMARK  5 active torsions:
REMARK  status: ('A' for Active; 'I' for Inactive)
REMARK    1  A    between atoms: C_2  and  C_4
REMARK    2  A    between atoms: C_7  and  N_8
REMARK    3  A    between atoms: N_8  and  C_9
REMARK    4  A    between atoms: C_9  and  C_10
REMARK    5  A    between atoms: C_10  and  C_11
REMARK                            x       y       z     vdW  Elec       q    Type
REMARK                         _______ _______ _______ _____ _____    ______ ____
ROOT
ATOM      1  C   UNL     1      49.718   4.130  17.566  0.00  0.00    +0.000 A 
ATOM      2  C   UNL     1      49.027   2.960  17.243  0.00  0.00    +0.000 A 
ATOM      3  C   UNL     1      47.923   3.018  16.390  0.00  0.00    +0.000 A 
ATOM      4  C   UNL     1      47.464   4.242  15.889  0.00  0.00    +0.000 A 
ATOM      5  C   UNL     1      48.192   5.400  16.181  0.00  0.00    +0.000 A 
ATOM      6  C   UNL     1      49.296   5.350  17.038  0.00  0.00    +0.000 A 
ENDROOT
BRANCH   1   8
ATOM      7  N   UNL     1      51.704   3.017  18.392  0.00  0.00    +0.000 N 
ATOM      8  C   UNL     1      50.884   4.104  18.479  0.00  0.00    +0.000 C 
ATOM      9  O   UNL     1      51.126   5.027  19.246  0.00  0.00    +0.000 OA
ATOM     10  H   UNL     1      52.557   3.058  18.941  0.00  0.00    +0.000 HD
ATOM     11  H   UNL     1      51.685   2.380  17.610  0.00  0.00    +0.000 HD
ENDBRANCH   1   8
BRANCH   4  12
ATOM     12  N   UNL     1      46.337   4.366  15.066  0.00  0.00    +0.000 N 
ATOM     13  H   UNL     1      45.615   4.896  15.555  0.00  0.00    +0.000 HD
BRANCH  12  14
ATOM     14  C   UNL     1      46.544   4.853  13.705  0.00  0.00    +0.000 C 
BRANCH  14  15
ATOM     15  C   UNL     1      45.211   5.246  13.051  0.00  0.00    +0.000 C 
BRANCH  15  16
ATOM     16  C   UNL     1      44.818   4.184  12.043  0.00  0.00    +0.000 C 
ATOM     17  C   UNL     1      43.800   4.544  10.951  0.00  0.00    +0.000 C 
ATOM     18  O   UNL     1      43.103   3.285  11.178  0.00  0.00    +0.000 OA
ATOM     19  C   UNL     1      43.733   3.189  12.484  0.00  0.00    +0.000 C 
ENDBRANCH  15  16
ENDBRANCH  14  15
ENDBRANCH  12  14
ENDBRANCH   4  12
TORSDOF 5
ENDMDL
