MODEL 1
REMARK VINA RESULT:    -8.561      0.000      0.000
REMARK INTER + INTRA:         -12.722
REMARK INTER:                 -11.563
REMARK INTRA:                  -1.158
REMARK UNBOUND:                -1.158
REMARK  Name = 
REMARK  6 active torsions:
REMARK  status: ('A' for Active; 'I' for Inactive)
REMARK    1  A    between atoms: C_2  and  C_3
REMARK    2  A    between atoms: N_7  and  C_8
REMARK    3  A    between atoms: C_8  and  C_9
REMARK    4  A    between atoms: C_9  and  C_12
REMARK    5  A    between atoms: C_16  and  C_17
REMARK    6  A    between atoms: C_21  and  C_22
REMARK                            x       y       z     vdW  Elec       q    Type
REMARK                         _______ _______ _______ _____ _____    ______ ____
ROOT
ATOM      1  C   UNL     1      43.558   4.878  12.218  0.00  0.00    +0.000 C 
ATOM      2  F   UNL     1      42.698   5.887  12.544  0.00  0.00    +0.000 F 
ATOM      3  F   UNL     1      43.144   3.798  12.945  0.00  0.00    +0.000 F 
ENDROOT
BRANCH   1   4
ATOM      4  C   UNL     1      45.006   5.243  12.498  0.00  0.00    +0.000 A 
ATOM      5  C   UNL     1      45.694   6.117  11.647  0.00  0.00    +0.000 A 
ATOM      6  C   UNL     1      46.993   6.507  11.951  0.00  0.00    +0.000 A 
ATOM      7  C   UNL     1      47.611   6.041  13.114  0.00  0.00    +0.000 A 
ATOM      8  C   UNL     1      46.950   5.183  14.011  0.00  0.00    +0.000 A 
ATOM      9  C   UNL     1      45.646   4.781  13.666  0.00  0.00    +0.000 A 
BRANCH   8  10
ATOM     10  C   UNL     1      47.592   4.748  15.278  0.00  0.00    +0.000 A 
ATOM     11  C   UNL     1      47.482   3.427  15.750  0.00  0.00    +0.000 A 
ATOM     12  C   UNL     1      48.077   3.025  16.951  0.00  0.00    +0.000 A 
ATOM     13  C   UNL     1      48.819   3.930  17.702  0.00  0.00    +0.000 A 
ATOM     14  C   UNL     1      48.958   5.244  17.258  0.00  0.00    +0.000 A 
ATOM     15  C   UNL     1      48.335   5.648  16.068  0.00  0.00    +0.000 A 
BRANCH  14  16
ATOM     16  C   UNL     1      49.749   6.176  18.004  0.00  0.00    +0.000 C 
ATOM     17  N   UNL     1      50.400   6.919  18.616  0.00  0.00    +0.000 NA
ENDBRANCH  14  16
ENDBRANCH   8  10
ENDBRANCH   1   4
BRANCH   1  18
ATOM     18  C   UNL     1      43.409   4.557  10.710  0.00  0.00    +0.000 C 
BRANCH  18  23
ATOM     19  C   UNL     1      46.690   2.437   7.386  0.00  0.00    +0.000 A 
ATOM     20  C   UNL     1      46.303   3.756   7.583  0.00  0.00    +0.000 A 
ATOM     21  C   UNL     1      45.362   4.047   8.571  0.00  0.00    +0.000 A 
ATOM     22  C   UNL     1      44.820   3.021   9.343  0.00  0.00    +0.000 A 
ATOM     23  N   UNL     1      43.874   3.234  10.311  0.00  0.00    +0.000 N 
ATOM     24  N   UNL     1      45.197   1.741   9.162  0.00  0.00    +0.000 NA
ATOM     25  C   UNL     1      46.116   1.474   8.199  0.00  0.00    +0.000 A 
ATOM     26  H   UNL     1      43.567   2.406  10.811  0.00  0.00    +0.000 HD
BRANCH  19  28
ATOM     27  N   UNL     1      48.405   1.795   5.558  0.00  0.00    +0.000 NA
ATOM     28  C   UNL     1      47.643   2.085   6.384  0.00  0.00    +0.000 C 
ENDBRANCH  19  28
ENDBRANCH  18  23
ENDBRANCH   1  18
TORSDOF 6
ENDMDL
MODEL 2
REMARK VINA RESULT:    -8.439      2.559      4.310
REMARK INTER + INTRA:         -12.557
REMARK INTER:                 -11.483
REMARK INTRA:                  -1.074
REMARK UNBOUND:                -1.158
REMARK  Name = 
REMARK  6 active torsions:
REMARK  status: ('A' for Active; 'I' for Inactive)
REMARK    1  A    between atoms: C_2  and  C_3
REMARK    2  A    between atoms: N_7  and  C_8
REMARK    3  A    between atoms: C_8  and  C_9
REMARK    4  A    between atoms: C_9  and  C_12
REMARK    5  A    between atoms: C_16  and  C_17
REMARK    6  A    between atoms: C_21  and  C_22
REMARK                            x       y       z     vdW  Elec       q    Type
REMARK                         _______ _______ _______ _____ _____    ______ ____
ROOT
ATOM      1  C   UNL     1      43.486   4.705  12.395  0.00  0.00    +0.000 C 
ATOM      2  F   UNL     1      42.462   5.530  12.761  0.00  0.00    +0.000 F 
ATOM      3  F   UNL     1      43.227   3.510  13.005  0.00  0.00    +0.000 F 
ENDROOT
BRANCH   1   4
ATOM      4  C   UNL     1      44.844   5.269  12.781  0.00  0.00    +0.000 A 
ATOM      5  C   UNL     1      45.798   4.456  13.403  0.00  0.00    +0.000 A 
ATOM      6  C   UNL     1      47.065   4.957  13.684  0.00  0.00    +0.000 A 
ATOM      7  C   UNL     1      47.395   6.268  13.331  0.00  0.00    +0.000 A 
ATOM      8  C   UNL     1      46.477   7.113  12.680  0.00  0.00    +0.000 A 
ATOM      9  C   UNL     1      45.193   6.590  12.433  0.00  0.00    +0.000 A 
BRANCH   8  10
ATOM     10  C   UNL     1      46.860   8.481  12.248  0.00  0.00    +0.000 A 
ATOM     11  C   UNL     1      45.914   9.518  12.144  0.00  0.00    +0.000 A 
ATOM     12  C   UNL     1      46.276  10.803  11.723  0.00  0.00    +0.000 A 
ATOM     13  C   UNL     1      47.602  11.091  11.418  0.00  0.00    +0.000 A 
ATOM     14  C   UNL     1      48.567  10.090  11.522  0.00  0.00    +0.000 A 
ATOM     15  C   UNL     1      48.192   8.797  11.915  0.00  0.00    +0.000 A 
BRANCH  14  16
ATOM     16  C   UNL     1      49.941  10.383  11.244  0.00  0.00    +0.000 C 
ATOM     17  N   UNL     1      51.053  10.619  11.001  0.00  0.00    +0.000 NA
ENDBRANCH  14  16
ENDBRANCH   8  10
ENDBRANCH   1   4
BRANCH   1  18
ATOM     18  C   UNL     1      43.449   4.505  10.860  0.00  0.00    +0.000 C 
BRANCH  18  23
ATOM     19  C   UNL     1      46.654   2.488   7.401  0.00  0.00    +0.000 A 
ATOM     20  C   UNL     1      46.290   3.802   7.661  0.00  0.00    +0.000 A 
ATOM     21  C   UNL     1      45.366   4.062   8.674  0.00  0.00    +0.000 A 
ATOM     22  C   UNL     1      44.819   3.012   9.407  0.00  0.00    +0.000 A 
ATOM     23  N   UNL     1      43.889   3.194  10.397  0.00  0.00    +0.000 N 
ATOM     24  N   UNL     1      45.174   1.736   9.165  0.00  0.00    +0.000 NA
ATOM     25  C   UNL     1      46.077   1.498   8.178  0.00  0.00    +0.000 A 
ATOM     26  H   UNL     1      43.576   2.350  10.864  0.00  0.00    +0.000 HD
BRANCH  19  28
ATOM     27  N   UNL     1      48.344   1.892   5.534  0.00  0.00    +0.000 NA
ATOM     28  C   UNL     1      47.589   2.168   6.371  0.00  0.00    +0.000 C 
ENDBRANCH  19  28
ENDBRANCH  18  23
ENDBRANCH   1  18
TORSDOF 6
ENDMDL
MODEL 3
REMARK VINA RESULT:    -8.253      1.151      1.657
REMARK INTER + INTRA:         -12.306
REMARK INTER:                 -11.108
REMARK INTRA:                  -1.198
REMARK UNBOUND:                -1.158
REMARK  Name = 
REMARK  6 active torsions:
REMARK  status: ('A' for Active; 'I' for Inactive)
REMARK    1  A    between atoms: C_2  and  C_3
REMARK    2  A    between atoms: N_7  and  C_8
REMARK    3  A    between atoms: C_8  and  C_9
REMARK    4  A    between atoms: C_9  and  C_12
REMARK    5  A    between atoms: C_16  and  C_17
REMARK    6  A    between atoms: C_21  and  C_22
REMARK                            x       y       z     vdW  Elec       q    Type
REMARK                         _______ _______ _______ _____ _____    ______ ____
ROOT
ATOM      1  C   UNL     1      43.752   4.277  12.335  0.00  0.00    +0.000 C 
ATOM      2  F   UNL     1      42.683   4.894  12.919  0.00  0.00    +0.000 F 
ATOM      3  F   UNL     1      43.916   3.106  13.020  0.00  0.00    +0.000 F 
ENDROOT
BRANCH   1   4
ATOM      4  C   UNL     1      45.001   5.143  12.363  0.00  0.00    +0.000 A 
ATOM      5  C   UNL     1      45.228   6.092  11.359  0.00  0.00    +0.000 A 
ATOM      6  C   UNL     1      46.333   6.933  11.431  0.00  0.00    +0.000 A 
ATOM      7  C   UNL     1      47.211   6.845  12.514  0.00  0.00    +0.000 A 
ATOM      8  C   UNL     1      47.009   5.924  13.559  0.00  0.00    +0.000 A 
ATOM      9  C   UNL     1      45.899   5.066  13.447  0.00  0.00    +0.000 A 
BRANCH   8  10
ATOM     10  C   UNL     1      47.911   5.886  14.738  0.00  0.00    +0.000 A 
ATOM     11  C   UNL     1      48.932   6.838  14.923  0.00  0.00    +0.000 A 
ATOM     12  C   UNL     1      49.788   6.790  16.028  0.00  0.00    +0.000 A 
ATOM     13  C   UNL     1      49.633   5.800  16.993  0.00  0.00    +0.000 A 
ATOM     14  C   UNL     1      48.625   4.847  16.846  0.00  0.00    +0.000 A 
ATOM     15  C   UNL     1      47.788   4.883  15.721  0.00  0.00    +0.000 A 
BRANCH  14  16
ATOM     16  C   UNL     1      48.432   3.844  17.849  0.00  0.00    +0.000 C 
ATOM     17  N   UNL     1      48.282   3.041  18.676  0.00  0.00    +0.000 NA
ENDBRANCH  14  16
ENDBRANCH   8  10
ENDBRANCH   1   4
BRANCH   1  18
ATOM     18  C   UNL     1      43.405   3.954  10.861  0.00  0.00    +0.000 C 
BRANCH  18  23
ATOM     19  C   UNL     1      46.696   2.349   7.270  0.00  0.00    +0.000 A 
ATOM     20  C   UNL     1      46.208   3.614   7.571  0.00  0.00    +0.000 A 
ATOM     21  C   UNL     1      45.293   3.756   8.614  0.00  0.00    +0.000 A 
ATOM     22  C   UNL     1      44.876   2.640   9.336  0.00  0.00    +0.000 A 
ATOM     23  N   UNL     1      43.962   2.705  10.354  0.00  0.00    +0.000 N 
ATOM     24  N   UNL     1      45.352   1.412   9.053  0.00  0.00    +0.000 NA
ATOM     25  C   UNL     1      46.245   1.289   8.037  0.00  0.00    +0.000 A 
ATOM     26  H   UNL     1      43.749   1.823  10.809  0.00  0.00    +0.000 HD
BRANCH  19  28
ATOM     27  N   UNL     1      48.380   1.970   5.342  0.00  0.00    +0.000 NA
ATOM     28  C   UNL     1      47.628   2.148   6.207  0.00  0.00    +0.000 C 
ENDBRANCH  19  28
ENDBRANCH  18  23
ENDBRANCH   1  18
TORSDOF 6
ENDMDL
MODEL 4
REMARK VINA RESULT:    -8.172      3.051      5.298
REMARK INTER + INTRA:         -12.197
REMARK INTER:                 -11.123
REMARK INTRA:                  -1.074
REMARK UNBOUND:                -1.158
REMARK  Name = 
REMARK  6 active torsions:
REMARK  status: ('A' for Active; 'I' for Inactive)
REMARK    1  A    between atoms: C_2  and  C_3
REMARK    2  A    between atoms: N_7  and  C_8
REMARK    3  A    between atoms: C_8  and  C_9
REMARK    4  A    between atoms: C_9  and  C_12
REMARK    5  A    between atoms: C_16  and  C_17
REMARK    6  A    between atoms: C_21  and  C_22
REMARK                            x       y       z     vdW  Elec       q    Type
REMARK                         _______ _______ _______ _____ _____    ______ ____
ROOT
ATOM      1  C   UNL     1      43.833   4.022  12.413  0.00  0.00    +0.000 C 
ATOM      2  F   UNL     1      42.645   4.389  12.978  0.00  0.00    +0.000 F 
ATOM      3  F   UNL     1      44.126   2.799  12.947  0.00  0.00    +0.000 F 
ENDROOT
BRANCH   1   4
ATOM      4  C   UNL     1      44.930   5.042  12.667  0.00  0.00    +0.000 A 
ATOM      5  C   UNL     1      46.166   4.640  13.187  0.00  0.00    +0.000 A 
ATOM      6  C   UNL     1      47.191   5.566  13.345  0.00  0.00    +0.000 A 
ATOM      7  C   UNL     1      46.996   6.898  12.971  0.00  0.00    +0.000 A 
ATOM      8  C   UNL     1      45.780   7.342  12.420  0.00  0.00    +0.000 A 
ATOM      9  C   UNL     1      44.750   6.391  12.297  0.00  0.00    +0.000 A 
BRANCH   8  10
ATOM     10  C   UNL     1      45.608   8.744  11.963  0.00  0.00    +0.000 A 
ATOM     11  C   UNL     1      46.603   9.719  12.167  0.00  0.00    +0.000 A 
ATOM     12  C   UNL     1      46.430  11.043  11.747  0.00  0.00    +0.000 A 
ATOM     13  C   UNL     1      45.266  11.423  11.088  0.00  0.00    +0.000 A 
ATOM     14  C   UNL     1      44.265  10.480  10.859  0.00  0.00    +0.000 A 
ATOM     15  C   UNL     1      44.431   9.161  11.309  0.00  0.00    +0.000 A 
BRANCH  14  16
ATOM     16  C   UNL     1      43.076  10.850  10.152  0.00  0.00    +0.000 C 
ATOM     17  N   UNL     1      42.109  11.163   9.589  0.00  0.00    +0.000 NA
ENDBRANCH  14  16
ENDBRANCH   8  10
ENDBRANCH   1   4
BRANCH   1  18
ATOM     18  C   UNL     1      43.639   3.870  10.885  0.00  0.00    +0.000 C 
BRANCH  18  23
ATOM     19  C   UNL     1      46.805   2.388   7.131  0.00  0.00    +0.000 A 
ATOM     20  C   UNL     1      46.335   3.643   7.496  0.00  0.00    +0.000 A 
ATOM     21  C   UNL     1      45.453   3.750   8.573  0.00  0.00    +0.000 A 
ATOM     22  C   UNL     1      45.053   2.608   9.264  0.00  0.00    +0.000 A 
ATOM     23  N   UNL     1      44.172   2.639  10.313  0.00  0.00    +0.000 N 
ATOM     24  N   UNL     1      45.512   1.390   8.919  0.00  0.00    +0.000 NA
ATOM     25  C   UNL     1      46.372   1.302   7.872  0.00  0.00    +0.000 A 
ATOM     26  H   UNL     1      43.968   1.741  10.740  0.00  0.00    +0.000 HD
BRANCH  19  28
ATOM     27  N   UNL     1      48.417   2.085   5.130  0.00  0.00    +0.000 NA
ATOM     28  C   UNL     1      47.701   2.224   6.033  0.00  0.00    +0.000 C 
ENDBRANCH  19  28
ENDBRANCH  18  23
ENDBRANCH   1  18
TORSDOF 6
ENDMDL
MODEL 5
REMARK VINA RESULT:    -8.116      2.084      2.960
REMARK INTER + INTRA:         -12.121
REMARK INTER:                 -10.921
REMARK INTRA:                  -1.200
REMARK UNBOUND:                -1.158
REMARK  Name = 
REMARK  6 active torsions:
REMARK  status: ('A' for Active; 'I' for Inactive)
REMARK    1  A    between atoms: C_2  and  C_3
REMARK    2  A    between atoms: N_7  and  C_8
REMARK    3  A    between atoms: C_8  and  C_9
REMARK    4  A    between atoms: C_9  and  C_12
REMARK    5  A    between atoms: C_16  and  C_17
REMARK    6  A    between atoms: C_21  and  C_22
REMARK                            x       y       z     vdW  Elec       q    Type
REMARK                         _______ _______ _______ _____ _____    ______ ____
ROOT
ATOM      1  C   UNL     1      44.334   3.829  12.212  0.00  0.00    +0.000 C 
ATOM      2  F   UNL     1      43.476   3.745  13.270  0.00  0.00    +0.000 F 
ATOM      3  F   UNL     1      45.363   2.980  12.508  0.00  0.00    +0.000 F 
ENDROOT
BRANCH   1   4
ATOM      4  C   UNL     1      44.810   5.252  11.969  0.00  0.00    +0.000 A 
ATOM      5  C   UNL     1      43.912   6.236  11.538  0.00  0.00    +0.000 A 
ATOM      6  C   UNL     1      44.336   7.552  11.392  0.00  0.00    +0.000 A 
ATOM      7  C   UNL     1      45.656   7.900  11.689  0.00  0.00    +0.000 A 
ATOM      8  C   UNL     1      46.587   6.950  12.149  0.00  0.00    +0.000 A 
ATOM      9  C   UNL     1      46.139   5.620  12.262  0.00  0.00    +0.000 A 
BRANCH   8  10
ATOM     10  C   UNL     1      47.968   7.344  12.527  0.00  0.00    +0.000 A 
ATOM     11  C   UNL     1      48.801   8.063  11.648  0.00  0.00    +0.000 A 
ATOM     12  C   UNL     1      50.107   8.420  12.003  0.00  0.00    +0.000 A 
ATOM     13  C   UNL     1      50.608   8.088  13.257  0.00  0.00    +0.000 A 
ATOM     14  C   UNL     1      49.806   7.386  14.156  0.00  0.00    +0.000 A 
ATOM     15  C   UNL     1      48.508   7.005  13.784  0.00  0.00    +0.000 A 
BRANCH  14  16
ATOM     16  C   UNL     1      50.298   7.069  15.463  0.00  0.00    +0.000 C 
ATOM     17  N   UNL     1      50.688   6.796  16.523  0.00  0.00    +0.000 NA
ENDBRANCH  14  16
ENDBRANCH   8  10
ENDBRANCH   1   4
BRANCH   1  18
ATOM     18  C   UNL     1      43.615   3.322  10.938  0.00  0.00    +0.000 C 
BRANCH  18  23
ATOM     19  C   UNL     1      46.813   2.277   7.066  0.00  0.00    +0.000 A 
ATOM     20  C   UNL     1      46.252   3.472   7.500  0.00  0.00    +0.000 A 
ATOM     21  C   UNL     1      45.387   3.457   8.594  0.00  0.00    +0.000 A 
ATOM     22  C   UNL     1      45.091   2.255   9.235  0.00  0.00    +0.000 A 
ATOM     23  N   UNL     1      44.231   2.166  10.298  0.00  0.00    +0.000 N 
ATOM     24  N   UNL     1      45.638   1.095   8.824  0.00  0.00    +0.000 NA
ATOM     25  C   UNL     1      46.481   1.126   7.760  0.00  0.00    +0.000 A 
ATOM     26  H   UNL     1      44.108   1.236  10.684  0.00  0.00    +0.000 HD
BRANCH  19  28
ATOM     27  N   UNL     1      48.429   2.200   5.047  0.00  0.00    +0.000 NA
ATOM     28  C   UNL     1      47.697   2.237   5.947  0.00  0.00    +0.000 C 
ENDBRANCH  19  28
ENDBRANCH  18  23
ENDBRANCH   1  18
TORSDOF 6
ENDMDL
MODEL 6
REMARK VINA RESULT:    -7.888      3.166      3.813
REMARK INTER + INTRA:         -11.813
REMARK INTER:                 -10.622
REMARK INTRA:                  -1.191
REMARK UNBOUND:                -1.158
REMARK  Name = 
REMARK  6 active torsions:
REMARK  status: ('A' for Active; 'I' for Inactive)
REMARK    1  A    between atoms: C_2  and  C_3
REMARK    2  A    between atoms: N_7  and  C_8
REMARK    3  A    between atoms: C_8  and  C_9
REMARK    4  A    between atoms: C_9  and  C_12
REMARK    5  A    between atoms: C_16  and  C_17
REMARK    6  A    between atoms: C_21  and  C_22
REMARK                            x       y       z     vdW  Elec       q    Type
REMARK                         _______ _______ _______ _____ _____    ______ ____
ROOT
ATOM      1  C   UNL     1      44.342   4.140  12.140  0.00  0.00    +0.000 C 
ATOM      2  F   UNL     1      43.494   4.025  13.203  0.00  0.00    +0.000 F 
ATOM      3  F   UNL     1      45.392   3.312  12.420  0.00  0.00    +0.000 F 
ENDROOT
BRANCH   1   4
ATOM      4  C   UNL     1      44.783   5.576  11.909  0.00  0.00    +0.000 A 
ATOM      5  C   UNL     1      43.845   6.558  11.567  0.00  0.00    +0.000 A 
ATOM      6  C   UNL     1      44.242   7.884  11.432  0.00  0.00    +0.000 A 
ATOM      7  C   UNL     1      45.574   8.243  11.653  0.00  0.00    +0.000 A 
ATOM      8  C   UNL     1      46.546   7.294  12.023  0.00  0.00    +0.000 A 
ATOM      9  C   UNL     1      46.123   5.955  12.125  0.00  0.00    +0.000 A 
BRANCH   8  10
ATOM     10  C   UNL     1      47.943   7.697  12.322  0.00  0.00    +0.000 A 
ATOM     11  C   UNL     1      48.293   8.317  13.536  0.00  0.00    +0.000 A 
ATOM     12  C   UNL     1      49.609   8.708  13.808  0.00  0.00    +0.000 A 
ATOM     13  C   UNL     1      50.617   8.468  12.880  0.00  0.00    +0.000 A 
ATOM     14  C   UNL     1      50.307   7.846  11.671  0.00  0.00    +0.000 A 
ATOM     15  C   UNL     1      48.981   7.483  11.392  0.00  0.00    +0.000 A 
BRANCH  14  16
ATOM     16  C   UNL     1      51.341   7.562  10.722  0.00  0.00    +0.000 C 
ATOM     17  N   UNL     1      52.184   7.317   9.961  0.00  0.00    +0.000 NA
ENDBRANCH  14  16
ENDBRANCH   8  10
ENDBRANCH   1   4
BRANCH   1  18
ATOM     18  C   UNL     1      43.625   3.629  10.866  0.00  0.00    +0.000 C 
BRANCH  18  23
ATOM     19  C   UNL     1      46.817   2.347   7.061  0.00  0.00    +0.000 A 
ATOM     20  C   UNL     1      46.298   3.574   7.452  0.00  0.00    +0.000 A 
ATOM     21  C   UNL     1      45.422   3.625   8.538  0.00  0.00    +0.000 A 
ATOM     22  C   UNL     1      45.076   2.456   9.212  0.00  0.00    +0.000 A 
ATOM     23  N   UNL     1      44.204   2.432  10.268  0.00  0.00    +0.000 N 
ATOM     24  N   UNL     1      45.582   1.264   8.842  0.00  0.00    +0.000 NA
ATOM     25  C   UNL     1      46.436   1.230   7.786  0.00  0.00    +0.000 A 
ATOM     26  H   UNL     1      44.042   1.519  10.681  0.00  0.00    +0.000 HD
BRANCH  19  28
ATOM     27  N   UNL     1      48.427   2.163   5.044  0.00  0.00    +0.000 NA
ATOM     28  C   UNL     1      47.710   2.239   5.953  0.00  0.00    +0.000 C 
ENDBRANCH  19  28
ENDBRANCH  18  23
ENDBRANCH   1  18
TORSDOF 6
ENDMDL
MODEL 7
REMARK VINA RESULT:    -7.656      2.211      8.053
REMARK INTER + INTRA:         -11.500
REMARK INTER:                 -10.492
REMARK INTRA:                  -1.008
REMARK UNBOUND:                -1.158
REMARK  Name = 
REMARK  6 active torsions:
REMARK  status: ('A' for Active; 'I' for Inactive)
REMARK    1  A    between atoms: C_2  and  C_3
REMARK    2  A    between atoms: N_7  and  C_8
REMARK    3  A    between atoms: C_8  and  C_9
REMARK    4  A    between atoms: C_9  and  C_12
REMARK    5  A    between atoms: C_16  and  C_17
REMARK    6  A    between atoms: C_21  and  C_22
REMARK                            x       y       z     vdW  Elec       q    Type
REMARK                         _______ _______ _______ _____ _____    ______ ____
ROOT
ATOM      1  C   UNL     1      45.572   7.548  11.927  0.00  0.00    +0.000 C 
ATOM      2  F   UNL     1      45.144   7.814  13.196  0.00  0.00    +0.000 F 
ATOM      3  F   UNL     1      45.236   8.648  11.190  0.00  0.00    +0.000 F 
ENDROOT
BRANCH   1   4
ATOM      4  C   UNL     1      44.963   6.270  11.372  0.00  0.00    +0.000 A 
ATOM      5  C   UNL     1      43.702   5.842  11.801  0.00  0.00    +0.000 A 
ATOM      6  C   UNL     1      43.117   4.715  11.234  0.00  0.00    +0.000 A 
ATOM      7  C   UNL     1      43.780   4.016  10.222  0.00  0.00    +0.000 A 
ATOM      8  C   UNL     1      45.037   4.425   9.740  0.00  0.00    +0.000 A 
ATOM      9  C   UNL     1      45.619   5.552  10.352  0.00  0.00    +0.000 A 
BRANCH   8  10
ATOM     10  C   UNL     1      45.702   3.715   8.618  0.00  0.00    +0.000 A 
ATOM     11  C   UNL     1      46.226   4.406   7.509  0.00  0.00    +0.000 A 
ATOM     12  C   UNL     1      46.839   3.731   6.447  0.00  0.00    +0.000 A 
ATOM     13  C   UNL     1      46.965   2.347   6.476  0.00  0.00    +0.000 A 
ATOM     14  C   UNL     1      46.467   1.632   7.565  0.00  0.00    +0.000 A 
ATOM     15  C   UNL     1      45.828   2.311   8.613  0.00  0.00    +0.000 A 
BRANCH  14  16
ATOM     16  C   UNL     1      46.622   0.210   7.624  0.00  0.00    +0.000 C 
ATOM     17  N   UNL     1      46.763  -0.943   7.662  0.00  0.00    +0.000 NA
ENDBRANCH  14  16
ENDBRANCH   8  10
ENDBRANCH   1   4
BRANCH   1  18
ATOM     18  C   UNL     1      47.114   7.400  11.936  0.00  0.00    +0.000 C 
BRANCH  18  23
ATOM     19  C   UNL     1      47.807   4.509  16.116  0.00  0.00    +0.000 A 
ATOM     20  C   UNL     1      47.097   4.277  14.945  0.00  0.00    +0.000 A 
ATOM     21  C   UNL     1      47.069   5.268  13.962  0.00  0.00    +0.000 A 
ATOM     22  C   UNL     1      47.744   6.471  14.163  0.00  0.00    +0.000 A 
ATOM     23  N   UNL     1      47.736   7.493  13.252  0.00  0.00    +0.000 N 
ATOM     24  N   UNL     1      48.440   6.697  15.293  0.00  0.00    +0.000 NA
ATOM     25  C   UNL     1      48.461   5.722  16.239  0.00  0.00    +0.000 A 
ATOM     26  H   UNL     1      48.275   8.314  13.510  0.00  0.00    +0.000 HD
BRANCH  19  28
ATOM     27  N   UNL     1      47.901   2.749  18.011  0.00  0.00    +0.000 NA
ATOM     28  C   UNL     1      47.860   3.532  17.155  0.00  0.00    +0.000 C 
ENDBRANCH  19  28
ENDBRANCH  18  23
ENDBRANCH   1  18
TORSDOF 6
ENDMDL
MODEL 8
REMARK VINA RESULT:    -6.808      2.977      7.596
REMARK INTER + INTRA:         -10.355
REMARK INTER:                  -9.028
REMARK INTRA:                  -1.327
REMARK UNBOUND:                -1.158
REMARK  Name = 
REMARK  6 active torsions:
REMARK  status: ('A' for Active; 'I' for Inactive)
REMARK    1  A    between atoms: C_2  and  C_3
REMARK    2  A    between atoms: N_7  and  C_8
REMARK    3  A    between atoms: C_8  and  C_9
REMARK    4  A    between atoms: C_9  and  C_12
REMARK    5  A    between atoms: C_16  and  C_17
REMARK    6  A    between atoms: C_21  and  C_22
REMARK                            x       y       z     vdW  Elec       q    Type
REMARK                         _______ _______ _______ _____ _____    ______ ____
ROOT
ATOM      1  C   UNL     1      48.078   9.207  12.394  0.00  0.00    +0.000 C 
ATOM      2  F   UNL     1      48.183   9.964  13.525  0.00  0.00    +0.000 F 
ATOM      3  F   UNL     1      48.670   9.942  11.407  0.00  0.00    +0.000 F 
ENDROOT
BRANCH   1   4
ATOM      4  C   UNL     1      46.635   8.857  12.068  0.00  0.00    +0.000 A 
ATOM      5  C   UNL     1      45.739   9.853  11.660  0.00  0.00    +0.000 A 
ATOM      6  C   UNL     1      44.442   9.515  11.290  0.00  0.00    +0.000 A 
ATOM      7  C   UNL     1      44.033   8.179  11.310  0.00  0.00    +0.000 A 
ATOM      8  C   UNL     1      44.906   7.142  11.689  0.00  0.00    +0.000 A 
ATOM      9  C   UNL     1      46.205   7.515  12.085  0.00  0.00    +0.000 A 
BRANCH   8  10
ATOM     10  C   UNL     1      44.481   5.720  11.641  0.00  0.00    +0.000 A 
ATOM     11  C   UNL     1      43.576   5.184  12.576  0.00  0.00    +0.000 A 
ATOM     12  C   UNL     1      43.189   3.840  12.536  0.00  0.00    +0.000 A 
ATOM     13  C   UNL     1      43.679   3.000  11.542  0.00  0.00    +0.000 A 
ATOM     14  C   UNL     1      44.569   3.501  10.592  0.00  0.00    +0.000 A 
ATOM     15  C   UNL     1      44.976   4.842  10.656  0.00  0.00    +0.000 A 
BRANCH  14  16
ATOM     16  C   UNL     1      45.054   2.655   9.544  0.00  0.00    +0.000 C 
ATOM     17  N   UNL     1      45.447   1.954   8.704  0.00  0.00    +0.000 NA
ENDBRANCH  14  16
ENDBRANCH   8  10
ENDBRANCH   1   4
BRANCH   1  18
ATOM     18  C   UNL     1      48.875   7.894  12.590  0.00  0.00    +0.000 C 
BRANCH  18  23
ATOM     19  C   UNL     1      47.684   4.503  16.249  0.00  0.00    +0.000 A 
ATOM     20  C   UNL     1      47.169   4.699  14.975  0.00  0.00    +0.000 A 
ATOM     21  C   UNL     1      47.685   5.728  14.186  0.00  0.00    +0.000 A 
ATOM     22  C   UNL     1      48.700   6.546  14.681  0.00  0.00    +0.000 A 
ATOM     23  N   UNL     1      49.233   7.589  13.971  0.00  0.00    +0.000 N 
ATOM     24  N   UNL     1      49.208   6.355  15.913  0.00  0.00    +0.000 NA
ATOM     25  C   UNL     1      48.698   5.347  16.667  0.00  0.00    +0.000 A 
ATOM     26  H   UNL     1      49.974   8.102  14.437  0.00  0.00    +0.000 HD
BRANCH  19  28
ATOM     27  N   UNL     1      46.772   2.623  17.776  0.00  0.00    +0.000 NA
ATOM     28  C   UNL     1      47.186   3.469  17.098  0.00  0.00    +0.000 C 
ENDBRANCH  19  28
ENDBRANCH  18  23
ENDBRANCH   1  18
TORSDOF 6
ENDMDL
MODEL 9
REMARK VINA RESULT:    -6.694      2.807      8.506
REMARK INTER + INTRA:         -10.201
REMARK INTER:                  -9.201
REMARK INTRA:                  -1.000
REMARK UNBOUND:                -1.158
REMARK  Name = 
REMARK  6 active torsions:
REMARK  status: ('A' for Active; 'I' for Inactive)
REMARK    1  A    between atoms: C_2  and  C_3
REMARK    2  A    between atoms: N_7  and  C_8
REMARK    3  A    between atoms: C_8  and  C_9
REMARK    4  A    between atoms: C_9  and  C_12
REMARK    5  A    between atoms: C_16  and  C_17
REMARK    6  A    between atoms: C_21  and  C_22
REMARK                            x       y       z     vdW  Elec       q    Type
REMARK                         _______ _______ _______ _____ _____    ______ ____
ROOT
ATOM      1  C   UNL     1      48.541   7.987  13.211  0.00  0.00    +0.000 C 
ATOM      2  F   UNL     1      49.149   9.129  12.775  0.00  0.00    +0.000 F 
ATOM      3  F   UNL     1      49.388   6.971  12.870  0.00  0.00    +0.000 F 
ENDROOT
BRANCH   1   4
ATOM      4  C   UNL     1      47.154   7.810  12.614  0.00  0.00    +0.000 A 
ATOM      5  C   UNL     1      46.236   8.866  12.632  0.00  0.00    +0.000 A 
ATOM      6  C   UNL     1      44.997   8.723  12.017  0.00  0.00    +0.000 A 
ATOM      7  C   UNL     1      44.671   7.531  11.366  0.00  0.00    +0.000 A 
ATOM      8  C   UNL     1      45.573   6.452  11.301  0.00  0.00    +0.000 A 
ATOM      9  C   UNL     1      46.808   6.613  11.955  0.00  0.00    +0.000 A 
BRANCH   8  10
ATOM     10  C   UNL     1      45.242   5.216  10.548  0.00  0.00    +0.000 A 
ATOM     11  C   UNL     1      44.387   4.230  11.078  0.00  0.00    +0.000 A 
ATOM     12  C   UNL     1      44.090   3.060  10.371  0.00  0.00    +0.000 A 
ATOM     13  C   UNL     1      44.621   2.853   9.103  0.00  0.00    +0.000 A 
ATOM     14  C   UNL     1      45.462   3.814   8.543  0.00  0.00    +0.000 A 
ATOM     15  C   UNL     1      45.781   4.972   9.268  0.00  0.00    +0.000 A 
BRANCH  14  16
ATOM     16  C   UNL     1      45.988   3.630   7.224  0.00  0.00    +0.000 C 
ATOM     17  N   UNL     1      46.430   3.486   6.159  0.00  0.00    +0.000 NA
ENDBRANCH  14  16
ENDBRANCH   8  10
ENDBRANCH   1   4
BRANCH   1  18
ATOM     18  C   UNL     1      48.416   8.041  14.753  0.00  0.00    +0.000 C 
BRANCH  18  23
ATOM     19  C   UNL     1      51.122   4.719  17.572  0.00  0.00    +0.000 A 
ATOM     20  C   UNL     1      51.485   5.905  16.948  0.00  0.00    +0.000 A 
ATOM     21  C   UNL     1      50.525   6.610  16.221  0.00  0.00    +0.000 A 
ATOM     22  C   UNL     1      49.224   6.121  16.123  0.00  0.00    +0.000 A 
ATOM     23  N   UNL     1      48.241   6.748  15.405  0.00  0.00    +0.000 N 
ATOM     24  N   UNL     1      48.865   4.975  16.732  0.00  0.00    +0.000 NA
ATOM     25  C   UNL     1      49.809   4.302  17.440  0.00  0.00    +0.000 A 
ATOM     26  H   UNL     1      47.332   6.297  15.421  0.00  0.00    +0.000 HD
BRANCH  19  28
ATOM     27  N   UNL     1      52.825   3.328  18.937  0.00  0.00    +0.000 NA
ATOM     28  C   UNL     1      52.068   3.956  18.321  0.00  0.00    +0.000 C 
ENDBRANCH  19  28
ENDBRANCH  18  23
ENDBRANCH   1  18
TORSDOF 6
ENDMDL
