MODEL 1
REMARK VINA RESULT:    -7.989      0.000      0.000
REMARK INTER + INTRA:         -10.373
REMARK INTER:                  -9.858
REMARK INTRA:                  -0.515
REMARK UNBOUND:                -0.515
REMARK  Name = 
REMARK  4 active torsions:
REMARK  status: ('A' for Active; 'I' for Inactive)
REMARK    1  A    between atoms: C_2  and  C_4
REMARK    2  A    between atoms: C_7  and  O_8
REMARK    3  A    between atoms: O_8  and  C_9
REMARK    4  A    between atoms: C_9  and  C_10
REMARK                            x       y       z     vdW  Elec       q    Type
REMARK                         _______ _______ _______ _____ _____    ______ ____
ROOT
ATOM      1  C   UNL     1      46.423   2.501   7.664  0.00  0.00    +0.000 A 
ATOM      2  C   UNL     1      45.553   1.849   8.544  0.00  0.00    +0.000 A 
ATOM      3  C   UNL     1      44.641   2.605   9.286  0.00  0.00    +0.000 A 
ATOM      4  C   UNL     1      44.647   3.984   9.136  0.00  0.00    +0.000 A 
ATOM      5  N   UNL     1      45.468   4.637   8.286  0.00  0.00    +0.000 NA
ATOM      6  C   UNL     1      46.338   3.882   7.573  0.00  0.00    +0.000 A 
ENDROOT
BRANCH   1   8
ATOM      7  N   UNL     1      48.522   2.534   6.430  0.00  0.00    +0.000 N 
ATOM      8  C   UNL     1      47.446   1.808   6.855  0.00  0.00    +0.000 C 
ATOM      9  O   UNL     1      47.351   0.615   6.599  0.00  0.00    +0.000 OA
ATOM     10  H   UNL     1      49.257   2.013   5.968  0.00  0.00    +0.000 HD
ATOM     11  H   UNL     1      48.764   3.436   6.819  0.00  0.00    +0.000 HD
ENDBRANCH   1   8
BRANCH   4  12
ATOM     12  O   UNL     1      43.750   4.708   9.896  0.00  0.00    +0.000 OA
BRANCH  12  13
ATOM     13  C   UNL     1      43.630   4.175  11.216  0.00  0.00    +0.000 C 
BRANCH  13  14
ATOM     14  C   UNL     1      44.804   4.632  12.049  0.00  0.00    +0.000 A 
ATOM     15  C   UNL     1      45.168   5.988  12.080  0.00  0.00    +0.000 A 
ATOM     16  C   UNL     1      46.266   6.416  12.830  0.00  0.00    +0.000 A 
ATOM     17  C   UNL     1      47.006   5.492  13.565  0.00  0.00    +0.000 A 
ATOM     18  C   UNL     1      46.640   4.151  13.545  0.00  0.00    +0.000 A 
ATOM     19  F   UNL     1      47.354   3.264  14.251  0.00  0.00    +0.000 F 
ATOM     20  C   UNL     1      45.548   3.714  12.801  0.00  0.00    +0.000 A 
ENDBRANCH  13  14
ENDBRANCH  12  13
ENDBRANCH   4  12
TORSDOF 4
ENDMDL
MODEL 2
REMARK VINA RESULT:    -7.855      1.102      1.578
REMARK INTER + INTRA:         -10.207
REMARK INTER:                  -9.701
REMARK INTRA:                  -0.506
REMARK UNBOUND:                -0.515
REMARK  Name = 
REMARK  4 active torsions:
REMARK  status: ('A' for Active; 'I' for Inactive)
REMARK    1  A    between atoms: C_2  and  C_4
REMARK    2  A    between atoms: C_7  and  O_8
REMARK    3  A    between atoms: O_8  and  C_9
REMARK    4  A    between atoms: C_9  and  C_10
REMARK                            x       y       z     vdW  Elec       q    Type
REMARK                         _______ _______ _______ _____ _____    ______ ____
ROOT
ATOM      1  C   UNL     1      46.374   2.412   7.735  0.00  0.00    +0.000 A 
ATOM      2  C   UNL     1      45.516   1.757   8.624  0.00  0.00    +0.000 A 
ATOM      3  C   UNL     1      44.595   2.509   9.360  0.00  0.00    +0.000 A 
ATOM      4  C   UNL     1      44.582   3.887   9.196  0.00  0.00    +0.000 A 
ATOM      5  N   UNL     1      45.392   4.542   8.337  0.00  0.00    +0.000 NA
ATOM      6  C   UNL     1      46.271   3.791   7.630  0.00  0.00    +0.000 A 
ENDROOT
BRANCH   1   8
ATOM      7  N   UNL     1      48.483   2.454   6.519  0.00  0.00    +0.000 N 
ATOM      8  C   UNL     1      47.405   1.724   6.932  0.00  0.00    +0.000 C 
ATOM      9  O   UNL     1      47.315   0.533   6.670  0.00  0.00    +0.000 OA
ATOM     10  H   UNL     1      49.223   1.936   6.060  0.00  0.00    +0.000 HD
ATOM     11  H   UNL     1      48.721   3.354   6.913  0.00  0.00    +0.000 HD
ENDBRANCH   1   8
BRANCH   4  12
ATOM     12  O   UNL     1      43.676   4.606   9.949  0.00  0.00    +0.000 OA
BRANCH  12  13
ATOM     13  C   UNL     1      43.582   4.099  11.282  0.00  0.00    +0.000 C 
BRANCH  13  14
ATOM     14  C   UNL     1      44.772   4.570  12.083  0.00  0.00    +0.000 A 
ATOM     15  C   UNL     1      45.634   3.639  12.686  0.00  0.00    +0.000 A 
ATOM     16  C   UNL     1      46.725   4.066  13.448  0.00  0.00    +0.000 A 
ATOM     17  C   UNL     1      46.970   5.428  13.606  0.00  0.00    +0.000 A 
ATOM     18  C   UNL     1      46.125   6.351  13.000  0.00  0.00    +0.000 A 
ATOM     19  F   UNL     1      46.361   7.660  13.154  0.00  0.00    +0.000 F 
ATOM     20  C   UNL     1      45.035   5.937  12.239  0.00  0.00    +0.000 A 
ENDBRANCH  13  14
ENDBRANCH  12  13
ENDBRANCH   4  12
TORSDOF 4
ENDMDL
MODEL 3
REMARK VINA RESULT:    -7.747      3.073      6.026
REMARK INTER + INTRA:         -10.074
REMARK INTER:                  -9.584
REMARK INTRA:                  -0.489
REMARK UNBOUND:                -0.515
REMARK  Name = 
REMARK  4 active torsions:
REMARK  status: ('A' for Active; 'I' for Inactive)
REMARK    1  A    between atoms: C_2  and  C_4
REMARK    2  A    between atoms: C_7  and  O_8
REMARK    3  A    between atoms: O_8  and  C_9
REMARK    4  A    between atoms: C_9  and  C_10
REMARK                            x       y       z     vdW  Elec       q    Type
REMARK                         _______ _______ _______ _____ _____    ______ ____
ROOT
ATOM      1  C   UNL     1      46.512   5.301  12.981  0.00  0.00    +0.000 A 
ATOM      2  C   UNL     1      46.162   6.010  11.827  0.00  0.00    +0.000 A 
ATOM      3  C   UNL     1      45.371   5.386  10.858  0.00  0.00    +0.000 A 
ATOM      4  C   UNL     1      44.978   4.071  11.069  0.00  0.00    +0.000 A 
ATOM      5  N   UNL     1      45.293   3.370  12.179  0.00  0.00    +0.000 NA
ATOM      6  C   UNL     1      46.055   3.998  13.106  0.00  0.00    +0.000 A 
ENDROOT
BRANCH   1   8
ATOM      7  N   UNL     1      47.465   7.207  14.160  0.00  0.00    +0.000 N 
ATOM      8  C   UNL     1      47.368   5.849  14.053  0.00  0.00    +0.000 C 
ATOM      9  O   UNL     1      47.946   5.113  14.841  0.00  0.00    +0.000 OA
ATOM     10  H   UNL     1      47.972   7.556  14.964  0.00  0.00    +0.000 HD
ATOM     11  H   UNL     1      46.823   7.841  13.704  0.00  0.00    +0.000 HD
ENDBRANCH   1   8
BRANCH   4  12
ATOM     12  O   UNL     1      44.214   3.473  10.088  0.00  0.00    +0.000 OA
BRANCH  12  13
ATOM     13  C   UNL     1      44.531   3.984   8.791  0.00  0.00    +0.000 C 
BRANCH  13  14
ATOM     14  C   UNL     1      45.595   3.120   8.158  0.00  0.00    +0.000 A 
ATOM     15  C   UNL     1      46.574   3.693   7.330  0.00  0.00    +0.000 A 
ATOM     16  C   UNL     1      47.549   2.898   6.722  0.00  0.00    +0.000 A 
ATOM     17  C   UNL     1      47.560   1.522   6.943  0.00  0.00    +0.000 A 
ATOM     18  C   UNL     1      46.598   0.955   7.772  0.00  0.00    +0.000 A 
ATOM     19  F   UNL     1      46.608  -0.367   7.982  0.00  0.00    +0.000 F 
ATOM     20  C   UNL     1      45.622   1.738   8.383  0.00  0.00    +0.000 A 
ENDBRANCH  13  14
ENDBRANCH  12  13
ENDBRANCH   4  12
TORSDOF 4
ENDMDL
MODEL 4
REMARK VINA RESULT:    -7.321      3.223      6.204
REMARK INTER + INTRA:          -9.548
REMARK INTER:                  -9.140
REMARK INTRA:                  -0.408
REMARK UNBOUND:                -0.515
REMARK  Name = 
REMARK  4 active torsions:
REMARK  status: ('A' for Active; 'I' for Inactive)
REMARK    1  A    between atoms: C_2  and  C_4
REMARK    2  A    between atoms: C_7  and  O_8
REMARK    3  A    between atoms: O_8  and  C_9
REMARK    4  A    between atoms: C_9  and  C_10
REMARK                            x       y       z     vdW  Elec       q    Type
REMARK                         _______ _______ _______ _____ _____    ______ ____
ROOT
ATOM      1  C   UNL     1      46.643   5.782  12.693  0.00  0.00    +0.000 A 
ATOM      2  C   UNL     1      46.079   4.555  13.056  0.00  0.00    +0.000 A 
ATOM      3  C   UNL     1      45.291   3.866  12.130  0.00  0.00    +0.000 A 
ATOM      4  C   UNL     1      45.079   4.440  10.884  0.00  0.00    +0.000 A 
ATOM      5  N   UNL     1      45.620   5.618  10.505  0.00  0.00    +0.000 NA
ATOM      6  C   UNL     1      46.385   6.263  11.418  0.00  0.00    +0.000 A 
ENDROOT
BRANCH   1   8
ATOM      7  N   UNL     1      46.987   7.842  13.946  0.00  0.00    +0.000 N 
ATOM      8  C   UNL     1      47.464   6.610  13.600  0.00  0.00    +0.000 C 
ATOM      9  O   UNL     1      48.522   6.195  14.054  0.00  0.00    +0.000 OA
ATOM     10  H   UNL     1      47.517   8.344  14.647  0.00  0.00    +0.000 HD
ATOM     11  H   UNL     1      46.025   8.119  13.802  0.00  0.00    +0.000 HD
ENDBRANCH   1   8
BRANCH   4  12
ATOM     12  O   UNL     1      44.281   3.748   9.995  0.00  0.00    +0.000 OA
BRANCH  12  13
ATOM     13  C   UNL     1      44.559   4.116   8.643  0.00  0.00    +0.000 C 
BRANCH  13  14
ATOM     14  C   UNL     1      45.484   3.093   8.026  0.00  0.00    +0.000 A 
ATOM     15  C   UNL     1      45.582   1.803   8.573  0.00  0.00    +0.000 A 
ATOM     16  C   UNL     1      46.452   0.858   8.023  0.00  0.00    +0.000 A 
ATOM     17  C   UNL     1      47.226   1.192   6.914  0.00  0.00    +0.000 A 
ATOM     18  C   UNL     1      47.122   2.464   6.364  0.00  0.00    +0.000 A 
ATOM     19  F   UNL     1      47.869   2.784   5.299  0.00  0.00    +0.000 F 
ATOM     20  C   UNL     1      46.259   3.414   6.904  0.00  0.00    +0.000 A 
ENDBRANCH  13  14
ENDBRANCH  12  13
ENDBRANCH   4  12
TORSDOF 4
ENDMDL
MODEL 5
REMARK VINA RESULT:    -6.864      3.478      6.338
REMARK INTER + INTRA:          -8.984
REMARK INTER:                  -8.469
REMARK INTRA:                  -0.515
REMARK UNBOUND:                -0.515
REMARK  Name = 
REMARK  4 active torsions:
REMARK  status: ('A' for Active; 'I' for Inactive)
REMARK    1  A    between atoms: C_2  and  C_4
REMARK    2  A    between atoms: C_7  and  O_8
REMARK    3  A    between atoms: O_8  and  C_9
REMARK    4  A    between atoms: C_9  and  C_10
REMARK                            x       y       z     vdW  Elec       q    Type
REMARK                         _______ _______ _______ _____ _____    ______ ____
ROOT
ATOM      1  C   UNL     1      46.735   5.142  13.950  0.00  0.00    +0.000 A 
ATOM      2  C   UNL     1      47.180   6.053  12.987  0.00  0.00    +0.000 A 
ATOM      3  C   UNL     1      46.475   6.173  11.785  0.00  0.00    +0.000 A 
ATOM      4  C   UNL     1      45.366   5.363  11.584  0.00  0.00    +0.000 A 
ATOM      5  N   UNL     1      44.909   4.485  12.502  0.00  0.00    +0.000 NA
ATOM      6  C   UNL     1      45.605   4.392  13.661  0.00  0.00    +0.000 A 
ENDROOT
BRANCH   1   8
ATOM      7  N   UNL     1      46.805   4.095  16.148  0.00  0.00    +0.000 N 
ATOM      8  C   UNL     1      47.418   4.910  15.239  0.00  0.00    +0.000 C 
ATOM      9  O   UNL     1      48.512   5.405  15.475  0.00  0.00    +0.000 OA
ATOM     10  H   UNL     1      47.341   3.870  16.977  0.00  0.00    +0.000 HD
ATOM     11  H   UNL     1      46.042   3.478  15.904  0.00  0.00    +0.000 HD
ENDBRANCH   1   8
BRANCH   4  12
ATOM     12  O   UNL     1      44.700   5.488  10.381  0.00  0.00    +0.000 OA
BRANCH  12  13
ATOM     13  C   UNL     1      44.049   4.271  10.013  0.00  0.00    +0.000 C 
BRANCH  13  14
ATOM     14  C   UNL     1      44.924   3.506   9.049  0.00  0.00    +0.000 A 
ATOM     15  C   UNL     1      45.168   2.137   9.246  0.00  0.00    +0.000 A 
ATOM     16  C   UNL     1      45.996   1.427   8.372  0.00  0.00    +0.000 A 
ATOM     17  C   UNL     1      46.581   2.077   7.287  0.00  0.00    +0.000 A 
ATOM     18  C   UNL     1      46.331   3.430   7.085  0.00  0.00    +0.000 A 
ATOM     19  F   UNL     1      46.895   4.054   6.043  0.00  0.00    +0.000 F 
ATOM     20  C   UNL     1      45.509   4.147   7.949  0.00  0.00    +0.000 A 
ENDBRANCH  13  14
ENDBRANCH  12  13
ENDBRANCH   4  12
TORSDOF 4
ENDMDL
MODEL 6
REMARK VINA RESULT:    -5.911      4.224      6.861
REMARK INTER + INTRA:          -7.809
REMARK INTER:                  -7.389
REMARK INTRA:                  -0.420
REMARK UNBOUND:                -0.515
REMARK  Name = 
REMARK  4 active torsions:
REMARK  status: ('A' for Active; 'I' for Inactive)
REMARK    1  A    between atoms: C_2  and  C_4
REMARK    2  A    between atoms: C_7  and  O_8
REMARK    3  A    between atoms: O_8  and  C_9
REMARK    4  A    between atoms: C_9  and  C_10
REMARK                            x       y       z     vdW  Elec       q    Type
REMARK                         _______ _______ _______ _____ _____    ______ ____
ROOT
ATOM      1  C   UNL     1      48.212   5.801  15.345  0.00  0.00    +0.000 A 
ATOM      2  C   UNL     1      47.898   6.272  14.066  0.00  0.00    +0.000 A 
ATOM      3  C   UNL     1      46.943   5.592  13.305  0.00  0.00    +0.000 A 
ATOM      4  C   UNL     1      46.355   4.455  13.842  0.00  0.00    +0.000 A 
ATOM      5  N   UNL     1      46.632   3.986  15.077  0.00  0.00    +0.000 NA
ATOM      6  C   UNL     1      47.556   4.666  15.798  0.00  0.00    +0.000 A 
ENDROOT
BRANCH   1   8
ATOM      7  N   UNL     1      48.990   6.420  17.568  0.00  0.00    +0.000 N 
ATOM      8  C   UNL     1      49.226   6.420  16.222  0.00  0.00    +0.000 C 
ATOM      9  O   UNL     1      50.258   6.891  15.765  0.00  0.00    +0.000 OA
ATOM     10  H   UNL     1      49.745   6.756  18.153  0.00  0.00    +0.000 HD
ATOM     11  H   UNL     1      48.289   5.834  18.002  0.00  0.00    +0.000 HD
ENDBRANCH   1   8
BRANCH   4  12
ATOM     12  O   UNL     1      45.429   3.792  13.061  0.00  0.00    +0.000 OA
BRANCH  12  13
ATOM     13  C   UNL     1      44.808   4.671  12.122  0.00  0.00    +0.000 C 
BRANCH  13  14
ATOM     14  C   UNL     1      44.992   4.125  10.726  0.00  0.00    +0.000 A 
ATOM     15  C   UNL     1      45.465   4.954   9.696  0.00  0.00    +0.000 A 
ATOM     16  C   UNL     1      45.617   4.463   8.396  0.00  0.00    +0.000 A 
ATOM     17  C   UNL     1      45.306   3.134   8.116  0.00  0.00    +0.000 A 
ATOM     18  C   UNL     1      44.849   2.308   9.137  0.00  0.00    +0.000 A 
ATOM     19  F   UNL     1      44.550   1.032   8.867  0.00  0.00    +0.000 F 
ATOM     20  C   UNL     1      44.694   2.787  10.435  0.00  0.00    +0.000 A 
ENDBRANCH  13  14
ENDBRANCH  12  13
ENDBRANCH   4  12
TORSDOF 4
ENDMDL
MODEL 7
REMARK VINA RESULT:    -5.771      3.838      5.761
REMARK INTER + INTRA:          -7.636
REMARK INTER:                  -7.292
REMARK INTRA:                  -0.344
REMARK UNBOUND:                -0.515
REMARK  Name = 
REMARK  4 active torsions:
REMARK  status: ('A' for Active; 'I' for Inactive)
REMARK    1  A    between atoms: C_2  and  C_4
REMARK    2  A    between atoms: C_7  and  O_8
REMARK    3  A    between atoms: O_8  and  C_9
REMARK    4  A    between atoms: C_9  and  C_10
REMARK                            x       y       z     vdW  Elec       q    Type
REMARK                         _______ _______ _______ _____ _____    ______ ____
ROOT
ATOM      1  C   UNL     1      45.185   4.447  11.499  0.00  0.00    +0.000 A 
ATOM      2  C   UNL     1      45.849   5.670  11.636  0.00  0.00    +0.000 A 
ATOM      3  C   UNL     1      46.655   5.886  12.758  0.00  0.00    +0.000 A 
ATOM      4  C   UNL     1      46.749   4.880  13.709  0.00  0.00    +0.000 A 
ATOM      5  N   UNL     1      46.127   3.687  13.595  0.00  0.00    +0.000 NA
ATOM      6  C   UNL     1      45.358   3.499  12.496  0.00  0.00    +0.000 A 
ENDROOT
BRANCH   1   8
ATOM      7  N   UNL     1      44.497   4.759   9.184  0.00  0.00    +0.000 N 
ATOM      8  C   UNL     1      44.285   4.122  10.373  0.00  0.00    +0.000 C 
ATOM      9  O   UNL     1      43.398   3.288  10.491  0.00  0.00    +0.000 OA
ATOM     10  H   UNL     1      43.935   4.443   8.403  0.00  0.00    +0.000 HD
ATOM     11  H   UNL     1      45.352   5.255   8.971  0.00  0.00    +0.000 HD
ENDBRANCH   1   8
BRANCH   4  12
ATOM     12  O   UNL     1      47.536   5.127  14.816  0.00  0.00    +0.000 OA
BRANCH  12  13
ATOM     13  C   UNL     1      47.269   4.197  15.868  0.00  0.00    +0.000 C 
BRANCH  13  14
ATOM     14  C   UNL     1      48.571   3.775  16.505  0.00  0.00    +0.000 A 
ATOM     15  C   UNL     1      48.929   2.417  16.555  0.00  0.00    +0.000 A 
ATOM     16  C   UNL     1      50.122   2.015  17.163  0.00  0.00    +0.000 A 
ATOM     17  C   UNL     1      50.972   2.968  17.719  0.00  0.00    +0.000 A 
ATOM     18  C   UNL     1      50.625   4.313  17.660  0.00  0.00    +0.000 A 
ATOM     19  F   UNL     1      51.443   5.228  18.197  0.00  0.00    +0.000 F 
ATOM     20  C   UNL     1      49.440   4.725  17.058  0.00  0.00    +0.000 A 
ENDBRANCH  13  14
ENDBRANCH  12  13
ENDBRANCH   4  12
TORSDOF 4
ENDMDL
MODEL 8
REMARK VINA RESULT:    -5.764      3.891      6.553
REMARK INTER + INTRA:          -7.627
REMARK INTER:                  -7.174
REMARK INTRA:                  -0.453
REMARK UNBOUND:                -0.515
REMARK  Name = 
REMARK  4 active torsions:
REMARK  status: ('A' for Active; 'I' for Inactive)
REMARK    1  A    between atoms: C_2  and  C_4
REMARK    2  A    between atoms: C_7  and  O_8
REMARK    3  A    between atoms: O_8  and  C_9
REMARK    4  A    between atoms: C_9  and  C_10
REMARK                            x       y       z     vdW  Elec       q    Type
REMARK                         _______ _______ _______ _____ _____    ______ ____
ROOT
ATOM      1  C   UNL     1      48.304   6.877  13.714  0.00  0.00    +0.000 A 
ATOM      2  C   UNL     1      47.777   7.261  12.477  0.00  0.00    +0.000 A 
ATOM      3  C   UNL     1      46.662   6.586  11.972  0.00  0.00    +0.000 A 
ATOM      4  C   UNL     1      46.129   5.540  12.713  0.00  0.00    +0.000 A 
ATOM      5  N   UNL     1      46.612   5.157  13.914  0.00  0.00    +0.000 NA
ATOM      6  C   UNL     1      47.689   5.831  14.385  0.00  0.00    +0.000 A 
ENDROOT
BRANCH   1   8
ATOM      7  N   UNL     1      49.999   6.926  15.462  0.00  0.00    +0.000 N 
ATOM      8  C   UNL     1      49.496   7.497  14.328  0.00  0.00    +0.000 C 
ATOM      9  O   UNL     1      50.036   8.472  13.822  0.00  0.00    +0.000 OA
ATOM     10  H   UNL     1      50.873   7.307  15.803  0.00  0.00    +0.000 HD
ATOM     11  H   UNL     1      49.745   5.996  15.768  0.00  0.00    +0.000 HD
ENDBRANCH   1   8
BRANCH   4  12
ATOM     12  O   UNL     1      45.040   4.878  12.182  0.00  0.00    +0.000 OA
BRANCH  12  13
ATOM     13  C   UNL     1      44.702   5.378  10.887  0.00  0.00    +0.000 C 
BRANCH  13  14
ATOM     14  C   UNL     1      45.027   4.334   9.846  0.00  0.00    +0.000 A 
ATOM     15  C   UNL     1      44.637   2.998  10.035  0.00  0.00    +0.000 A 
ATOM     16  C   UNL     1      44.953   2.020   9.088  0.00  0.00    +0.000 A 
ATOM     17  C   UNL     1      45.655   2.372   7.937  0.00  0.00    +0.000 A 
ATOM     18  C   UNL     1      46.032   3.696   7.742  0.00  0.00    +0.000 A 
ATOM     19  F   UNL     1      46.708   4.032   6.636  0.00  0.00    +0.000 F 
ATOM     20  C   UNL     1      45.722   4.678   8.680  0.00  0.00    +0.000 A 
ENDBRANCH  13  14
ENDBRANCH  12  13
ENDBRANCH   4  12
TORSDOF 4
ENDMDL
MODEL 9
REMARK VINA RESULT:    -5.731      5.438      8.185
REMARK INTER + INTRA:          -7.587
REMARK INTER:                  -7.209
REMARK INTRA:                  -0.378
REMARK UNBOUND:                -0.515
REMARK  Name = 
REMARK  4 active torsions:
REMARK  status: ('A' for Active; 'I' for Inactive)
REMARK    1  A    between atoms: C_2  and  C_4
REMARK    2  A    between atoms: C_7  and  O_8
REMARK    3  A    between atoms: O_8  and  C_9
REMARK    4  A    between atoms: C_9  and  C_10
REMARK                            x       y       z     vdW  Elec       q    Type
REMARK                         _______ _______ _______ _____ _____    ______ ____
ROOT
ATOM      1  C   UNL     1      48.091   4.755  18.182  0.00  0.00    +0.000 A 
ATOM      2  C   UNL     1      48.507   5.556  17.113  0.00  0.00    +0.000 A 
ATOM      3  C   UNL     1      48.029   5.280  15.829  0.00  0.00    +0.000 A 
ATOM      4  C   UNL     1      47.171   4.203  15.658  0.00  0.00    +0.000 A 
ATOM      5  N   UNL     1      46.747   3.421  16.674  0.00  0.00    +0.000 NA
ATOM      6  C   UNL     1      47.219   3.712  17.910  0.00  0.00    +0.000 A 
ENDROOT
BRANCH   1   8
ATOM      7  N   UNL     1      48.564   3.838  20.388  0.00  0.00    +0.000 N 
ATOM      8  C   UNL     1      48.556   4.934  19.572  0.00  0.00    +0.000 C 
ATOM      9  O   UNL     1      48.951   6.020  19.974  0.00  0.00    +0.000 OA
ATOM     10  H   UNL     1      48.984   3.965  21.300  0.00  0.00    +0.000 HD
ATOM     11  H   UNL     1      48.489   2.892  20.037  0.00  0.00    +0.000 HD
ENDBRANCH   1   8
BRANCH   4  12
ATOM     12  O   UNL     1      46.730   3.941  14.376  0.00  0.00    +0.000 OA
BRANCH  12  13
ATOM     13  C   UNL     1      46.454   5.146  13.660  0.00  0.00    +0.000 C 
BRANCH  13  14
ATOM     14  C   UNL     1      45.175   4.980  12.874  0.00  0.00    +0.000 A 
ATOM     15  C   UNL     1      44.479   6.107  12.405  0.00  0.00    +0.000 A 
ATOM     16  C   UNL     1      43.283   5.963  11.697  0.00  0.00    +0.000 A 
ATOM     17  C   UNL     1      42.775   4.691  11.443  0.00  0.00    +0.000 A 
ATOM     18  C   UNL     1      43.469   3.574  11.896  0.00  0.00    +0.000 A 
ATOM     19  F   UNL     1      42.979   2.352  11.653  0.00  0.00    +0.000 F 
ATOM     20  C   UNL     1      44.661   3.706  12.603  0.00  0.00    +0.000 A 
ENDBRANCH  13  14
ENDBRANCH  12  13
ENDBRANCH   4  12
TORSDOF 4
ENDMDL
