MODEL 1
REMARK VINA RESULT:    -8.888      0.000      0.000
REMARK INTER + INTRA:         -12.626
REMARK INTER:                 -11.486
REMARK INTRA:                  -1.141
REMARK UNBOUND:                -1.141
REMARK  Name = 
REMARK  5 active torsions:
REMARK  status: ('A' for Active; 'I' for Inactive)
REMARK    1  A    between atoms: C_2  and  C_4
REMARK    2  A    between atoms: C_7  and  N_8
REMARK    3  A    between atoms: N_8  and  C_9
REMARK    4  A    between atoms: C_9  and  C_10
REMARK    5  A    between atoms: C_14  and  C_15
REMARK                            x       y       z     vdW  Elec       q    Type
REMARK                         _______ _______ _______ _____ _____    ______ ____
ROOT
ATOM      1  C   UNL     1      43.574   4.757  11.356  0.00  0.00    +0.000 C 
ENDROOT
BRANCH   1   2
ATOM      2  C   UNL     1      44.847   4.987  12.139  0.00  0.00    +0.000 A 
ATOM      3  C   UNL     1      45.363   3.981  12.963  0.00  0.00    +0.000 A 
ATOM      4  C   UNL     1      46.581   4.163  13.612  0.00  0.00    +0.000 A 
ATOM      5  C   UNL     1      47.304   5.343  13.429  0.00  0.00    +0.000 A 
ATOM      6  C   UNL     1      46.839   6.368  12.583  0.00  0.00    +0.000 A 
ATOM      7  C   UNL     1      45.583   6.174  11.971  0.00  0.00    +0.000 A 
BRANCH   6   8
ATOM      8  C   UNL     1      47.675   7.551  12.267  0.00  0.00    +0.000 A 
ATOM      9  C   UNL     1      49.027   7.400  11.903  0.00  0.00    +0.000 A 
ATOM     10  C   UNL     1      49.804   8.494  11.517  0.00  0.00    +0.000 A 
ATOM     11 CL   UNL     1      51.447   8.252  11.065  0.00  0.00    +0.000 Cl
ATOM     12  C   UNL     1      49.259   9.770  11.477  0.00  0.00    +0.000 A 
ATOM     13  C   UNL     1      47.930   9.943  11.844  0.00  0.00    +0.000 A 
ATOM     14 CL   UNL     1      47.231  11.516  11.778  0.00  0.00    +0.000 Cl
ATOM     15  C   UNL     1      47.147   8.855  12.246  0.00  0.00    +0.000 A 
ENDBRANCH   6   8
ENDBRANCH   1   2
BRANCH   1  16
ATOM     16  N   UNL     1      43.796   4.936   9.932  0.00  0.00    +0.000 N 
ATOM     17  H   UNL     1      42.982   5.276   9.425  0.00  0.00    +0.000 HD
BRANCH  16  21
ATOM     18  C   UNL     1      46.291   2.212   7.878  0.00  0.00    +0.000 A 
ATOM     19  C   UNL     1      45.318   1.726   8.753  0.00  0.00    +0.000 A 
ATOM     20  C   UNL     1      44.464   2.617   9.417  0.00  0.00    +0.000 A 
ATOM     21  C   UNL     1      44.540   4.003   9.210  0.00  0.00    +0.000 A 
ATOM     22  C   UNL     1      45.525   4.470   8.329  0.00  0.00    +0.000 A 
ATOM     23  C   UNL     1      46.398   3.591   7.673  0.00  0.00    +0.000 A 
BRANCH  18  25
ATOM     24  N   UNL     1      48.319   1.898   6.560  0.00  0.00    +0.000 N 
ATOM     25  C   UNL     1      47.265   1.313   7.206  0.00  0.00    +0.000 C 
ATOM     26  O   UNL     1      47.152   0.095   7.245  0.00  0.00    +0.000 OA
ATOM     27  H   UNL     1      49.017   1.269   6.185  0.00  0.00    +0.000 HD
ATOM     28  H   UNL     1      48.585   2.861   6.711  0.00  0.00    +0.000 HD
ENDBRANCH  18  25
ENDBRANCH  16  21
ENDBRANCH   1  16
TORSDOF 5
ENDMDL
MODEL 2
REMARK VINA RESULT:    -8.805      0.149      1.801
REMARK INTER + INTRA:         -12.519
REMARK INTER:                 -11.368
REMARK INTRA:                  -1.151
REMARK UNBOUND:                -1.141
REMARK  Name = 
REMARK  5 active torsions:
REMARK  status: ('A' for Active; 'I' for Inactive)
REMARK    1  A    between atoms: C_2  and  C_4
REMARK    2  A    between atoms: C_7  and  N_8
REMARK    3  A    between atoms: N_8  and  C_9
REMARK    4  A    between atoms: C_9  and  C_10
REMARK    5  A    between atoms: C_14  and  C_15
REMARK                            x       y       z     vdW  Elec       q    Type
REMARK                         _______ _______ _______ _____ _____    ______ ____
ROOT
ATOM      1  C   UNL     1      43.594   4.790  11.377  0.00  0.00    +0.000 C 
ENDROOT
BRANCH   1   2
ATOM      2  C   UNL     1      44.892   5.009  12.120  0.00  0.00    +0.000 A 
ATOM      3  C   UNL     1      45.407   4.011  12.955  0.00  0.00    +0.000 A 
ATOM      4  C   UNL     1      46.645   4.180  13.567  0.00  0.00    +0.000 A 
ATOM      5  C   UNL     1      47.391   5.337  13.335  0.00  0.00    +0.000 A 
ATOM      6  C   UNL     1      46.927   6.351  12.475  0.00  0.00    +0.000 A 
ATOM      7  C   UNL     1      45.652   6.173  11.902  0.00  0.00    +0.000 A 
BRANCH   6   8
ATOM      8  C   UNL     1      47.783   7.506  12.108  0.00  0.00    +0.000 A 
ATOM      9  C   UNL     1      47.301   8.824  12.229  0.00  0.00    +0.000 A 
ATOM     10  C   UNL     1      48.121   9.925  11.972  0.00  0.00    +0.000 A 
ATOM     11 CL   UNL     1      47.489  11.516  12.151  0.00  0.00    +0.000 Cl
ATOM     12  C   UNL     1      49.445   9.749  11.593  0.00  0.00    +0.000 A 
ATOM     13  C   UNL     1      49.937   8.456  11.456  0.00  0.00    +0.000 A 
ATOM     14 CL   UNL     1      51.582   8.218  11.009  0.00  0.00    +0.000 Cl
ATOM     15  C   UNL     1      49.119   7.346  11.697  0.00  0.00    +0.000 A 
ENDBRANCH   6   8
ENDBRANCH   1   2
BRANCH   1  16
ATOM     16  N   UNL     1      43.777   4.949   9.945  0.00  0.00    +0.000 N 
ATOM     17  H   UNL     1      42.942   5.258   9.451  0.00  0.00    +0.000 HD
BRANCH  16  21
ATOM     18  C   UNL     1      46.294   2.247   7.891  0.00  0.00    +0.000 A 
ATOM     19  C   UNL     1      45.311   1.752   8.749  0.00  0.00    +0.000 A 
ATOM     20  C   UNL     1      44.450   2.636   9.413  0.00  0.00    +0.000 A 
ATOM     21  C   UNL     1      44.529   4.024   9.222  0.00  0.00    +0.000 A 
ATOM     22  C   UNL     1      45.525   4.500   8.357  0.00  0.00    +0.000 A 
ATOM     23  C   UNL     1      46.405   3.628   7.702  0.00  0.00    +0.000 A 
BRANCH  18  25
ATOM     24  N   UNL     1      48.283   1.948   6.510  0.00  0.00    +0.000 N 
ATOM     25  C   UNL     1      47.276   1.354   7.220  0.00  0.00    +0.000 C 
ATOM     26  O   UNL     1      47.210   0.136   7.316  0.00  0.00    +0.000 OA
ATOM     27  H   UNL     1      48.989   1.328   6.135  0.00  0.00    +0.000 HD
ATOM     28  H   UNL     1      48.517   2.925   6.609  0.00  0.00    +0.000 HD
ENDBRANCH  18  25
ENDBRANCH  16  21
ENDBRANCH   1  16
TORSDOF 5
ENDMDL
MODEL 3
REMARK VINA RESULT:    -8.783      2.846      4.022
REMARK INTER + INTRA:         -12.491
REMARK INTER:                 -11.557
REMARK INTRA:                  -0.934
REMARK UNBOUND:                -1.141
REMARK  Name = 
REMARK  5 active torsions:
REMARK  status: ('A' for Active; 'I' for Inactive)
REMARK    1  A    between atoms: C_2  and  C_4
REMARK    2  A    between atoms: C_7  and  N_8
REMARK    3  A    between atoms: N_8  and  C_9
REMARK    4  A    between atoms: C_9  and  C_10
REMARK    5  A    between atoms: C_14  and  C_15
REMARK                            x       y       z     vdW  Elec       q    Type
REMARK                         _______ _______ _______ _____ _____    ______ ____
ROOT
ATOM      1  C   UNL     1      43.933   4.780  11.504  0.00  0.00    +0.000 C 
ENDROOT
BRANCH   1   2
ATOM      2  C   UNL     1      45.198   5.482  11.940  0.00  0.00    +0.000 A 
ATOM      3  C   UNL     1      45.640   6.627  11.269  0.00  0.00    +0.000 A 
ATOM      4  C   UNL     1      46.755   7.321  11.728  0.00  0.00    +0.000 A 
ATOM      5  C   UNL     1      47.427   6.892  12.874  0.00  0.00    +0.000 A 
ATOM      6  C   UNL     1      46.997   5.765  13.600  0.00  0.00    +0.000 A 
ATOM      7  C   UNL     1      45.891   5.056  13.090  0.00  0.00    +0.000 A 
BRANCH   6   8
ATOM      8  C   UNL     1      47.614   5.399  14.898  0.00  0.00    +0.000 A 
ATOM      9  C   UNL     1      48.581   6.232  15.495  0.00  0.00    +0.000 A 
ATOM     10  C   UNL     1      49.107   5.948  16.757  0.00  0.00    +0.000 A 
ATOM     11 CL   UNL     1      50.274   7.007  17.449  0.00  0.00    +0.000 Cl
ATOM     12  C   UNL     1      48.682   4.832  17.467  0.00  0.00    +0.000 A 
ATOM     13  C   UNL     1      47.737   3.992  16.891  0.00  0.00    +0.000 A 
ATOM     14 CL   UNL     1      47.182   2.616  17.766  0.00  0.00    +0.000 Cl
ATOM     15  C   UNL     1      47.216   4.259  15.620  0.00  0.00    +0.000 A 
ENDBRANCH   6   8
ENDBRANCH   1   2
BRANCH   1  16
ATOM     16  N   UNL     1      43.803   4.783  10.058  0.00  0.00    +0.000 N 
ATOM     17  H   UNL     1      42.845   4.882   9.727  0.00  0.00    +0.000 HD
BRANCH  16  21
ATOM     18  C   UNL     1      46.351   2.266   7.816  0.00  0.00    +0.000 A 
ATOM     19  C   UNL     1      45.467   1.703   8.737  0.00  0.00    +0.000 A 
ATOM     20  C   UNL     1      44.596   2.524   9.465  0.00  0.00    +0.000 A 
ATOM     21  C   UNL     1      44.565   3.914   9.278  0.00  0.00    +0.000 A 
ATOM     22  C   UNL     1      45.462   4.460   8.349  0.00  0.00    +0.000 A 
ATOM     23  C   UNL     1      46.353   3.652   7.629  0.00  0.00    +0.000 A 
BRANCH  18  25
ATOM     24  N   UNL     1      48.450   2.085   6.584  0.00  0.00    +0.000 N 
ATOM     25  C   UNL     1      47.344   1.446   7.073  0.00  0.00    +0.000 C 
ATOM     26  O   UNL     1      47.198   0.240   6.921  0.00  0.00    +0.000 OA
ATOM     27  H   UNL     1      49.154   1.496   6.159  0.00  0.00    +0.000 HD
ATOM     28  H   UNL     1      48.728   3.005   6.893  0.00  0.00    +0.000 HD
ENDBRANCH  18  25
ENDBRANCH  16  21
ENDBRANCH   1  16
TORSDOF 5
ENDMDL
MODEL 4
REMARK VINA RESULT:    -8.706      2.864      4.050
REMARK INTER + INTRA:         -12.391
REMARK INTER:                 -11.551
REMARK INTRA:                  -0.841
REMARK UNBOUND:                -1.141
REMARK  Name = 
REMARK  5 active torsions:
REMARK  status: ('A' for Active; 'I' for Inactive)
REMARK    1  A    between atoms: C_2  and  C_4
REMARK    2  A    between atoms: C_7  and  N_8
REMARK    3  A    between atoms: N_8  and  C_9
REMARK    4  A    between atoms: C_9  and  C_10
REMARK    5  A    between atoms: C_14  and  C_15
REMARK                            x       y       z     vdW  Elec       q    Type
REMARK                         _______ _______ _______ _____ _____    ______ ____
ROOT
ATOM      1  C   UNL     1      43.940   4.775  11.553  0.00  0.00    +0.000 C 
ENDROOT
BRANCH   1   2
ATOM      2  C   UNL     1      45.239   5.425  11.970  0.00  0.00    +0.000 A 
ATOM      3  C   UNL     1      45.772   6.483  11.225  0.00  0.00    +0.000 A 
ATOM      4  C   UNL     1      46.920   7.138  11.661  0.00  0.00    +0.000 A 
ATOM      5  C   UNL     1      47.536   6.756  12.855  0.00  0.00    +0.000 A 
ATOM      6  C   UNL     1      47.015   5.719  13.652  0.00  0.00    +0.000 A 
ATOM      7  C   UNL     1      45.875   5.046  13.167  0.00  0.00    +0.000 A 
BRANCH   6   8
ATOM      8  C   UNL     1      47.576   5.416  14.991  0.00  0.00    +0.000 A 
ATOM      9  C   UNL     1      47.143   4.286  15.712  0.00  0.00    +0.000 A 
ATOM     10  C   UNL     1      47.723   3.936  16.934  0.00  0.00    +0.000 A 
ATOM     11 CL   UNL     1      47.170   2.536  17.767  0.00  0.00    +0.000 Cl
ATOM     12  C   UNL     1      48.755   4.695  17.471  0.00  0.00    +0.000 A 
ATOM     13  C   UNL     1      49.189   5.821  16.781  0.00  0.00    +0.000 A 
ATOM     14 CL   UNL     1      50.482   6.761  17.421  0.00  0.00    +0.000 Cl
ATOM     15  C   UNL     1      48.603   6.188  15.564  0.00  0.00    +0.000 A 
ENDBRANCH   6   8
ENDBRANCH   1   2
BRANCH   1  16
ATOM     16  N   UNL     1      43.791   4.778  10.108  0.00  0.00    +0.000 N 
ATOM     17  H   UNL     1      42.829   4.881   9.790  0.00  0.00    +0.000 HD
BRANCH  16  21
ATOM     18  C   UNL     1      46.299   2.251   7.831  0.00  0.00    +0.000 A 
ATOM     19  C   UNL     1      45.439   1.693   8.778  0.00  0.00    +0.000 A 
ATOM     20  C   UNL     1      44.581   2.517   9.519  0.00  0.00    +0.000 A 
ATOM     21  C   UNL     1      44.539   3.905   9.319  0.00  0.00    +0.000 A 
ATOM     22  C   UNL     1      45.412   4.446   8.365  0.00  0.00    +0.000 A 
ATOM     23  C   UNL     1      46.289   3.636   7.632  0.00  0.00    +0.000 A 
BRANCH  18  25
ATOM     24  N   UNL     1      48.365   2.070   6.547  0.00  0.00    +0.000 N 
ATOM     25  C   UNL     1      47.277   1.428   7.073  0.00  0.00    +0.000 C 
ATOM     26  O   UNL     1      47.137   0.219   6.942  0.00  0.00    +0.000 OA
ATOM     27  H   UNL     1      49.062   1.479   6.111  0.00  0.00    +0.000 HD
ATOM     28  H   UNL     1      48.644   2.995   6.836  0.00  0.00    +0.000 HD
ENDBRANCH  18  25
ENDBRANCH  16  21
ENDBRANCH   1  16
TORSDOF 5
ENDMDL
MODEL 5
REMARK VINA RESULT:    -8.023      1.788      2.477
REMARK INTER + INTRA:         -11.509
REMARK INTER:                 -10.636
REMARK INTRA:                  -0.873
REMARK UNBOUND:                -1.141
REMARK  Name = 
REMARK  5 active torsions:
REMARK  status: ('A' for Active; 'I' for Inactive)
REMARK    1  A    between atoms: C_2  and  C_4
REMARK    2  A    between atoms: C_7  and  N_8
REMARK    3  A    between atoms: N_8  and  C_9
REMARK    4  A    between atoms: C_9  and  C_10
REMARK    5  A    between atoms: C_14  and  C_15
REMARK                            x       y       z     vdW  Elec       q    Type
REMARK                         _______ _______ _______ _____ _____    ______ ____
ROOT
ATOM      1  C   UNL     1      44.349   3.741  11.817  0.00  0.00    +0.000 C 
ENDROOT
BRANCH   1   2
ATOM      2  C   UNL     1      44.842   5.170  11.788  0.00  0.00    +0.000 A 
ATOM      3  C   UNL     1      43.962   6.216  11.489  0.00  0.00    +0.000 A 
ATOM      4  C   UNL     1      44.397   7.537  11.551  0.00  0.00    +0.000 A 
ATOM      5  C   UNL     1      45.709   7.827  11.931  0.00  0.00    +0.000 A 
ATOM      6  C   UNL     1      46.618   6.808  12.273  0.00  0.00    +0.000 A 
ATOM      7  C   UNL     1      46.163   5.478  12.162  0.00  0.00    +0.000 A 
BRANCH   6   8
ATOM      8  C   UNL     1      47.959   7.119  12.824  0.00  0.00    +0.000 A 
ATOM      9  C   UNL     1      48.892   7.856  12.068  0.00  0.00    +0.000 A 
ATOM     10  C   UNL     1      50.126   8.234  12.604  0.00  0.00    +0.000 A 
ATOM     11 CL   UNL     1      51.224   9.149  11.645  0.00  0.00    +0.000 Cl
ATOM     12  C   UNL     1      50.465   7.897  13.907  0.00  0.00    +0.000 A 
ATOM     13  C   UNL     1      49.563   7.159  14.665  0.00  0.00    +0.000 A 
ATOM     14 CL   UNL     1      49.958   6.751  16.291  0.00  0.00    +0.000 Cl
ATOM     15  C   UNL     1      48.332   6.763  14.133  0.00  0.00    +0.000 A 
ENDBRANCH   6   8
ENDBRANCH   1   2
BRANCH   1  16
ATOM     16  N   UNL     1      43.787   3.354  10.535  0.00  0.00    +0.000 N 
ATOM     17  H   UNL     1      42.973   2.747  10.605  0.00  0.00    +0.000 HD
BRANCH  16  21
ATOM     18  C   UNL     1      46.522   2.543   7.417  0.00  0.00    +0.000 A 
ATOM     19  C   UNL     1      46.090   1.501   8.240  0.00  0.00    +0.000 A 
ATOM     20  C   UNL     1      45.161   1.751   9.258  0.00  0.00    +0.000 A 
ATOM     21  C   UNL     1      44.622   3.030   9.466  0.00  0.00    +0.000 A 
ATOM     22  C   UNL     1      45.070   4.062   8.629  0.00  0.00    +0.000 A 
ATOM     23  C   UNL     1      46.014   3.830   7.621  0.00  0.00    +0.000 A 
BRANCH  18  25
ATOM     24  N   UNL     1      47.473   3.112   5.244  0.00  0.00    +0.000 N 
ATOM     25  C   UNL     1      47.559   2.342   6.371  0.00  0.00    +0.000 C 
ATOM     26  O   UNL     1      48.473   1.541   6.515  0.00  0.00    +0.000 OA
ATOM     27  H   UNL     1      48.236   3.024   4.585  0.00  0.00    +0.000 HD
ATOM     28  H   UNL     1      46.899   3.941   5.192  0.00  0.00    +0.000 HD
ENDBRANCH  18  25
ENDBRANCH  16  21
ENDBRANCH   1  16
TORSDOF 5
ENDMDL
MODEL 6
REMARK VINA RESULT:    -7.791      1.638      2.239
REMARK INTER + INTRA:         -11.209
REMARK INTER:                 -10.367
REMARK INTRA:                  -0.842
REMARK UNBOUND:                -1.141
REMARK  Name = 
REMARK  5 active torsions:
REMARK  status: ('A' for Active; 'I' for Inactive)
REMARK    1  A    between atoms: C_2  and  C_4
REMARK    2  A    between atoms: C_7  and  N_8
REMARK    3  A    between atoms: N_8  and  C_9
REMARK    4  A    between atoms: C_9  and  C_10
REMARK    5  A    between atoms: C_14  and  C_15
REMARK                            x       y       z     vdW  Elec       q    Type
REMARK                         _______ _______ _______ _____ _____    ______ ____
ROOT
ATOM      1  C   UNL     1      44.423   6.192  10.580  0.00  0.00    +0.000 C 
ENDROOT
BRANCH   1   2
ATOM      2  C   UNL     1      45.312   5.880  11.762  0.00  0.00    +0.000 A 
ATOM      3  C   UNL     1      45.033   4.788  12.590  0.00  0.00    +0.000 A 
ATOM      4  C   UNL     1      45.903   4.452  13.623  0.00  0.00    +0.000 A 
ATOM      5  C   UNL     1      47.071   5.189  13.826  0.00  0.00    +0.000 A 
ATOM      6  C   UNL     1      47.408   6.275  12.996  0.00  0.00    +0.000 A 
ATOM      7  C   UNL     1      46.489   6.620  11.984  0.00  0.00    +0.000 A 
BRANCH   6   8
ATOM      8  C   UNL     1      48.718   6.961  13.113  0.00  0.00    +0.000 A 
ATOM      9  C   UNL     1      49.408   7.393  11.963  0.00  0.00    +0.000 A 
ATOM     10  C   UNL     1      50.598   8.118  12.058  0.00  0.00    +0.000 A 
ATOM     11 CL   UNL     1      51.393   8.637  10.622  0.00  0.00    +0.000 Cl
ATOM     12  C   UNL     1      51.134   8.440  13.298  0.00  0.00    +0.000 A 
ATOM     13  C   UNL     1      50.475   8.012  14.444  0.00  0.00    +0.000 A 
ATOM     14 CL   UNL     1      51.113   8.422  15.990  0.00  0.00    +0.000 Cl
ATOM     15  C   UNL     1      49.290   7.273  14.359  0.00  0.00    +0.000 A 
ENDBRANCH   6   8
ENDBRANCH   1   2
BRANCH   1  16
ATOM     16  N   UNL     1      43.911   4.975   9.974  0.00  0.00    +0.000 N 
ATOM     17  H   UNL     1      43.169   4.526  10.507  0.00  0.00    +0.000 HD
BRANCH  16  21
ATOM     18  C   UNL     1      46.315   2.106   8.013  0.00  0.00    +0.000 A 
ATOM     19  C   UNL     1      46.518   3.463   7.755  0.00  0.00    +0.000 A 
ATOM     20  C   UNL     1      45.748   4.426   8.421  0.00  0.00    +0.000 A 
ATOM     21  C   UNL     1      44.781   4.066   9.373  0.00  0.00    +0.000 A 
ATOM     22  C   UNL     1      44.592   2.698   9.615  0.00  0.00    +0.000 A 
ATOM     23  C   UNL     1      45.341   1.725   8.941  0.00  0.00    +0.000 A 
BRANCH  18  25
ATOM     24  N   UNL     1      46.751  -0.254   7.576  0.00  0.00    +0.000 N 
ATOM     25  C   UNL     1      47.056   1.046   7.280  0.00  0.00    +0.000 C 
ATOM     26  O   UNL     1      47.889   1.316   6.425  0.00  0.00    +0.000 OA
ATOM     27  H   UNL     1      47.202  -0.958   7.006  0.00  0.00    +0.000 HD
ATOM     28  H   UNL     1      45.916  -0.517   8.078  0.00  0.00    +0.000 HD
ENDBRANCH  18  25
ENDBRANCH  16  21
ENDBRANCH   1  16
TORSDOF 5
ENDMDL
MODEL 7
REMARK VINA RESULT:    -7.673      1.993      2.498
REMARK INTER + INTRA:         -11.057
REMARK INTER:                 -10.223
REMARK INTRA:                  -0.834
REMARK UNBOUND:                -1.141
REMARK  Name = 
REMARK  5 active torsions:
REMARK  status: ('A' for Active; 'I' for Inactive)
REMARK    1  A    between atoms: C_2  and  C_4
REMARK    2  A    between atoms: C_7  and  N_8
REMARK    3  A    between atoms: N_8  and  C_9
REMARK    4  A    between atoms: C_9  and  C_10
REMARK    5  A    between atoms: C_14  and  C_15
REMARK                            x       y       z     vdW  Elec       q    Type
REMARK                         _______ _______ _______ _____ _____    ______ ____
ROOT
ATOM      1  C   UNL     1      45.170   6.221  10.666  0.00  0.00    +0.000 C 
ENDROOT
BRANCH   1   2
ATOM      2  C   UNL     1      45.831   5.875  11.980  0.00  0.00    +0.000 A 
ATOM      3  C   UNL     1      45.435   4.738  12.694  0.00  0.00    +0.000 A 
ATOM      4  C   UNL     1      46.105   4.373  13.857  0.00  0.00    +0.000 A 
ATOM      5  C   UNL     1      47.191   5.127  14.309  0.00  0.00    +0.000 A 
ATOM      6  C   UNL     1      47.644   6.258  13.604  0.00  0.00    +0.000 A 
ATOM      7  C   UNL     1      46.921   6.629  12.452  0.00  0.00    +0.000 A 
BRANCH   6   8
ATOM      8  C   UNL     1      48.886   6.967  13.995  0.00  0.00    +0.000 A 
ATOM      9  C   UNL     1      49.393   6.860  15.305  0.00  0.00    +0.000 A 
ATOM     10  C   UNL     1      50.607   7.449  15.667  0.00  0.00    +0.000 A 
ATOM     11 CL   UNL     1      51.190   7.274  17.277  0.00  0.00    +0.000 Cl
ATOM     12  C   UNL     1      51.356   8.155  14.735  0.00  0.00    +0.000 A 
ATOM     13  C   UNL     1      50.868   8.283  13.440  0.00  0.00    +0.000 A 
ATOM     14 CL   UNL     1      51.795   9.137  12.267  0.00  0.00    +0.000 Cl
ATOM     15  C   UNL     1      49.646   7.710  13.073  0.00  0.00    +0.000 A 
ENDBRANCH   6   8
ENDBRANCH   1   2
BRANCH   1  16
ATOM     16  N   UNL     1      44.392   5.104  10.159  0.00  0.00    +0.000 N 
ATOM     17  H   UNL     1      43.748   4.705  10.839  0.00  0.00    +0.000 HD
BRANCH  16  21
ATOM     18  C   UNL     1      46.447   2.281   7.779  0.00  0.00    +0.000 A 
ATOM     19  C   UNL     1      45.541   1.836   8.742  0.00  0.00    +0.000 A 
ATOM     20  C   UNL     1      44.831   2.762   9.518  0.00  0.00    +0.000 A 
ATOM     21  C   UNL     1      44.984   4.146   9.338  0.00  0.00    +0.000 A 
ATOM     22  C   UNL     1      45.901   4.571   8.366  0.00  0.00    +0.000 A 
ATOM     23  C   UNL     1      46.632   3.655   7.598  0.00  0.00    +0.000 A 
BRANCH  18  25
ATOM     24  N   UNL     1      48.357   1.855   6.322  0.00  0.00    +0.000 N 
ATOM     25  C   UNL     1      47.276   1.338   6.982  0.00  0.00    +0.000 C 
ATOM     26  O   UNL     1      47.025   0.142   6.934  0.00  0.00    +0.000 OA
ATOM     27  H   UNL     1      48.958   1.185   5.859  0.00  0.00    +0.000 HD
ATOM     28  H   UNL     1      48.739   2.766   6.531  0.00  0.00    +0.000 HD
ENDBRANCH  18  25
ENDBRANCH  16  21
ENDBRANCH   1  16
TORSDOF 5
ENDMDL
MODEL 8
REMARK VINA RESULT:    -7.578      1.572      2.643
REMARK INTER + INTRA:         -10.934
REMARK INTER:                 -10.038
REMARK INTRA:                  -0.896
REMARK UNBOUND:                -1.141
REMARK  Name = 
REMARK  5 active torsions:
REMARK  status: ('A' for Active; 'I' for Inactive)
REMARK    1  A    between atoms: C_2  and  C_4
REMARK    2  A    between atoms: C_7  and  N_8
REMARK    3  A    between atoms: N_8  and  C_9
REMARK    4  A    between atoms: C_9  and  C_10
REMARK    5  A    between atoms: C_14  and  C_15
REMARK                            x       y       z     vdW  Elec       q    Type
REMARK                         _______ _______ _______ _____ _____    ______ ____
ROOT
ATOM      1  C   UNL     1      44.874   5.017  11.791  0.00  0.00    +0.000 C 
ENDROOT
BRANCH   1   2
ATOM      2  C   UNL     1      45.411   6.430  11.828  0.00  0.00    +0.000 A 
ATOM      3  C   UNL     1      44.539   7.515  11.969  0.00  0.00    +0.000 A 
ATOM      4  C   UNL     1      45.044   8.807  12.093  0.00  0.00    +0.000 A 
ATOM      5  C   UNL     1      46.423   9.025  12.098  0.00  0.00    +0.000 A 
ATOM      6  C   UNL     1      47.336   7.959  11.993  0.00  0.00    +0.000 A 
ATOM      7  C   UNL     1      46.798   6.666  11.827  0.00  0.00    +0.000 A 
BRANCH   6   8
ATOM      8  C   UNL     1      48.795   8.171  12.153  0.00  0.00    +0.000 A 
ATOM      9  C   UNL     1      49.311   8.767  13.320  0.00  0.00    +0.000 A 
ATOM     10  C   UNL     1      50.687   8.894  13.525  0.00  0.00    +0.000 A 
ATOM     11 CL   UNL     1      51.266   9.614  14.977  0.00  0.00    +0.000 Cl
ATOM     12  C   UNL     1      51.590   8.427  12.579  0.00  0.00    +0.000 A 
ATOM     13  C   UNL     1      51.101   7.846  11.415  0.00  0.00    +0.000 A 
ATOM     14 CL   UNL     1      52.207   7.242  10.242  0.00  0.00    +0.000 Cl
ATOM     15  C   UNL     1      49.725   7.729  11.193  0.00  0.00    +0.000 A 
ENDBRANCH   6   8
ENDBRANCH   1   2
BRANCH   1  16
ATOM     16  N   UNL     1      44.235   4.733  10.518  0.00  0.00    +0.000 N 
ATOM     17  H   UNL     1      43.243   4.514  10.591  0.00  0.00    +0.000 HD
BRANCH  16  21
ATOM     18  C   UNL     1      46.483   2.534   7.695  0.00  0.00    +0.000 A 
ATOM     19  C   UNL     1      45.703   1.854   8.631  0.00  0.00    +0.000 A 
ATOM     20  C   UNL     1      44.930   2.571   9.554  0.00  0.00    +0.000 A 
ATOM     21  C   UNL     1      44.893   3.974   9.552  0.00  0.00    +0.000 A 
ATOM     22  C   UNL     1      45.685   4.638   8.604  0.00  0.00    +0.000 A 
ATOM     23  C   UNL     1      46.479   3.933   7.689  0.00  0.00    +0.000 A 
BRANCH  18  25
ATOM     24  N   UNL     1      48.414   2.527   6.204  0.00  0.00    +0.000 N 
ATOM     25  C   UNL     1      47.375   1.820   6.744  0.00  0.00    +0.000 C 
ATOM     26  O   UNL     1      47.211   0.639   6.470  0.00  0.00    +0.000 OA
ATOM     27  H   UNL     1      49.059   2.001   5.629  0.00  0.00    +0.000 HD
ATOM     28  H   UNL     1      48.730   3.408   6.583  0.00  0.00    +0.000 HD
ENDBRANCH  18  25
ENDBRANCH  16  21
ENDBRANCH   1  16
TORSDOF 5
ENDMDL
MODEL 9
REMARK VINA RESULT:    -6.399      4.143      6.000
REMARK INTER + INTRA:          -9.410
REMARK INTER:                  -8.514
REMARK INTRA:                  -0.896
REMARK UNBOUND:                -1.141
REMARK  Name = 
REMARK  5 active torsions:
REMARK  status: ('A' for Active; 'I' for Inactive)
REMARK    1  A    between atoms: C_2  and  C_4
REMARK    2  A    between atoms: C_7  and  N_8
REMARK    3  A    between atoms: N_8  and  C_9
REMARK    4  A    between atoms: C_9  and  C_10
REMARK    5  A    between atoms: C_14  and  C_15
REMARK                            x       y       z     vdW  Elec       q    Type
REMARK                         _______ _______ _______ _____ _____    ______ ____
ROOT
ATOM      1  C   UNL     1      48.098   7.734  11.770  0.00  0.00    +0.000 C 
ENDROOT
BRANCH   1   2
ATOM      2  C   UNL     1      48.996   7.602  12.979  0.00  0.00    +0.000 A 
ATOM      3  C   UNL     1      50.227   8.265  13.023  0.00  0.00    +0.000 A 
ATOM      4  C   UNL     1      51.009   8.214  14.173  0.00  0.00    +0.000 A 
ATOM      5  C   UNL     1      50.561   7.516  15.297  0.00  0.00    +0.000 A 
ATOM      6  C   UNL     1      49.314   6.863  15.308  0.00  0.00    +0.000 A 
ATOM      7  C   UNL     1      48.561   6.896  14.117  0.00  0.00    +0.000 A 
BRANCH   6   8
ATOM      8  C   UNL     1      48.770   6.255  16.546  0.00  0.00    +0.000 A 
ATOM      9  C   UNL     1      48.598   7.028  17.711  0.00  0.00    +0.000 A 
ATOM     10  C   UNL     1      48.006   6.495  18.858  0.00  0.00    +0.000 A 
ATOM     11 CL   UNL     1      47.804   7.487  20.250  0.00  0.00    +0.000 Cl
ATOM     12  C   UNL     1      47.561   5.180  18.879  0.00  0.00    +0.000 A 
ATOM     13  C   UNL     1      47.732   4.396  17.744  0.00  0.00    +0.000 A 
ATOM     14 CL   UNL     1      47.166   2.770  17.744  0.00  0.00    +0.000 Cl
ATOM     15  C   UNL     1      48.338   4.917  16.595  0.00  0.00    +0.000 A 
ENDBRANCH   6   8
ENDBRANCH   1   2
BRANCH   1  16
ATOM     16  N   UNL     1      46.697   7.708  12.152  0.00  0.00    +0.000 N 
ATOM     17  H   UNL     1      46.508   8.120  13.063  0.00  0.00    +0.000 HD
BRANCH  16  21
ATOM     18  C   UNL     1      44.563   4.170  11.263  0.00  0.00    +0.000 A 
ATOM     19  C   UNL     1      44.568   4.659  12.570  0.00  0.00    +0.000 A 
ATOM     20  C   UNL     1      45.247   5.847  12.872  0.00  0.00    +0.000 A 
ATOM     21  C   UNL     1      45.912   6.588  11.883  0.00  0.00    +0.000 A 
ATOM     22  C   UNL     1      45.896   6.078  10.577  0.00  0.00    +0.000 A 
ATOM     23  C   UNL     1      45.239   4.881  10.265  0.00  0.00    +0.000 A 
BRANCH  18  25
ATOM     24  N   UNL     1      44.455   2.175   9.863  0.00  0.00    +0.000 N 
ATOM     25  C   UNL     1      43.919   2.879  10.906  0.00  0.00    +0.000 C 
ATOM     26  O   UNL     1      42.963   2.441  11.533  0.00  0.00    +0.000 OA
ATOM     27  H   UNL     1      44.059   1.260   9.693  0.00  0.00    +0.000 HD
ATOM     28  H   UNL     1      45.373   2.369   9.489  0.00  0.00    +0.000 HD
ENDBRANCH  18  25
ENDBRANCH  16  21
ENDBRANCH   1  16
TORSDOF 5
ENDMDL
