MODEL 1
REMARK VINA RESULT:    -8.394      0.000      0.000
REMARK INTER + INTRA:         -11.045
REMARK INTER:                 -10.357
REMARK INTRA:                  -0.688
REMARK UNBOUND:                -0.688
REMARK  Name = 
REMARK  4 active torsions:
REMARK  status: ('A' for Active; 'I' for Inactive)
REMARK    1  A    between atoms: C_2  and  C_4
REMARK    2  A    between atoms: C_7  and  C_8
REMARK    3  A    between atoms: C_8  and  N_9
REMARK    4  A    between atoms: C_15  and  C_16
REMARK                            x       y       z     vdW  Elec       q    Type
REMARK                         _______ _______ _______ _____ _____    ______ ____
ROOT
ATOM      1  N   UNL     1      44.862   4.366  11.708  0.00  0.00    +0.000 N 
ATOM      2  C   UNL     1      45.649   3.633  12.568  0.00  0.00    +0.000 A 
ATOM      3  C   UNL     1      46.316   4.513  13.391  0.00  0.00    +0.000 A 
ATOM      4  C   UNL     1      45.939   5.818  13.010  0.00  0.00    +0.000 A 
ATOM      5  N   UNL     1      46.364   7.001  13.517  0.00  0.00    +0.000 NA
ATOM      6  C   UNL     1      45.846   8.097  12.911  0.00  0.00    +0.000 A 
ATOM      7  C   UNL     1      44.937   8.094  11.854  0.00  0.00    +0.000 A 
ATOM      8  C   UNL     1      44.497   6.864  11.355  0.00  0.00    +0.000 A 
ATOM      9  C   UNL     1      45.031   5.715  11.956  0.00  0.00    +0.000 A 
ENDROOT
BRANCH   7  10
ATOM     10  C   UNL     1      44.505   9.403  11.304  0.00  0.00    +0.000 C 
ATOM     11  N   UNL     1      43.647   9.419  10.241  0.00  0.00    +0.000 N 
ATOM     12  O   UNL     1      44.908  10.459  11.778  0.00  0.00    +0.000 OA
ATOM     13  H   UNL     1      43.274   8.610   9.772  0.00  0.00    +0.000 HD
ATOM     14  H   UNL     1      43.393  10.331   9.880  0.00  0.00    +0.000 HD
ENDBRANCH   7  10
BRANCH   1  15
ATOM     15  C   UNL     1      44.092   3.787  10.609  0.00  0.00    +0.000 C 
BRANCH  15  19
ATOM     16  C   UNL     1      46.610   2.624   7.287  0.00  0.00    +0.000 A 
ATOM     17  C   UNL     1      46.063   1.649   8.127  0.00  0.00    +0.000 A 
ATOM     18  C   UNL     1      45.243   2.023   9.197  0.00  0.00    +0.000 A 
ATOM     19  C   UNL     1      44.963   3.376   9.447  0.00  0.00    +0.000 A 
ATOM     20  C   UNL     1      45.517   4.346   8.599  0.00  0.00    +0.000 A 
ATOM     21  C   UNL     1      46.335   3.974   7.529  0.00  0.00    +0.000 A 
BRANCH  16  23
ATOM     22  N   UNL     1      47.425   3.029   5.024  0.00  0.00    +0.000 N 
ATOM     23  C   UNL     1      47.515   2.275   6.161  0.00  0.00    +0.000 C 
ATOM     24  O   UNL     1      48.334   1.371   6.252  0.00  0.00    +0.000 OA
ATOM     25  H   UNL     1      48.107   2.833   4.303  0.00  0.00    +0.000 HD
ATOM     26  H   UNL     1      46.953   3.922   4.996  0.00  0.00    +0.000 HD
ENDBRANCH  16  23
ENDBRANCH  15  19
ENDBRANCH   1  15
TORSDOF 4
ENDMDL
MODEL 2
REMARK VINA RESULT:    -8.140      2.315      2.619
REMARK INTER + INTRA:         -10.731
REMARK INTER:                 -10.007
REMARK INTRA:                  -0.725
REMARK UNBOUND:                -0.688
REMARK  Name = 
REMARK  4 active torsions:
REMARK  status: ('A' for Active; 'I' for Inactive)
REMARK    1  A    between atoms: C_2  and  C_4
REMARK    2  A    between atoms: C_7  and  C_8
REMARK    3  A    between atoms: C_8  and  N_9
REMARK    4  A    between atoms: C_15  and  C_16
REMARK                            x       y       z     vdW  Elec       q    Type
REMARK                         _______ _______ _______ _____ _____    ______ ____
ROOT
ATOM      1  N   UNL     1      44.053   4.685  11.353  0.00  0.00    +0.000 N 
ATOM      2  C   UNL     1      43.210   3.927  12.134  0.00  0.00    +0.000 A 
ATOM      3  C   UNL     1      43.744   3.863  13.402  0.00  0.00    +0.000 A 
ATOM      4  C   UNL     1      44.955   4.586  13.388  0.00  0.00    +0.000 A 
ATOM      5  N   UNL     1      45.839   4.771  14.399  0.00  0.00    +0.000 NA
ATOM      6  C   UNL     1      46.940   5.487  14.066  0.00  0.00    +0.000 A 
ATOM      7  C   UNL     1      47.212   6.033  12.813  0.00  0.00    +0.000 A 
ATOM      8  C   UNL     1      46.280   5.847  11.786  0.00  0.00    +0.000 A 
ATOM      9  C   UNL     1      45.139   5.095  12.103  0.00  0.00    +0.000 A 
ENDROOT
BRANCH   7  10
ATOM     10  C   UNL     1      48.490   6.765  12.635  0.00  0.00    +0.000 C 
ATOM     11  N   UNL     1      48.688   7.476  11.484  0.00  0.00    +0.000 N 
ATOM     12  O   UNL     1      49.368   6.734  13.490  0.00  0.00    +0.000 OA
ATOM     13  H   UNL     1      48.039   7.549  10.718  0.00  0.00    +0.000 HD
ATOM     14  H   UNL     1      49.582   7.943  11.391  0.00  0.00    +0.000 HD
ENDBRANCH   7  10
BRANCH   1  15
ATOM     15  C   UNL     1      43.880   4.884   9.916  0.00  0.00    +0.000 C 
BRANCH  15  19
ATOM     16  C   UNL     1      46.464   2.319   7.576  0.00  0.00    +0.000 A 
ATOM     17  C   UNL     1      45.582   1.763   8.509  0.00  0.00    +0.000 A 
ATOM     18  C   UNL     1      44.741   2.591   9.261  0.00  0.00    +0.000 A 
ATOM     19  C   UNL     1      44.773   3.984   9.097  0.00  0.00    +0.000 A 
ATOM     20  C   UNL     1      45.662   4.532   8.160  0.00  0.00    +0.000 A 
ATOM     21  C   UNL     1      46.502   3.706   7.407  0.00  0.00    +0.000 A 
BRANCH  16  23
ATOM     22  N   UNL     1      48.575   2.057   6.383  0.00  0.00    +0.000 N 
ATOM     23  C   UNL     1      47.401   1.481   6.783  0.00  0.00    +0.000 C 
ATOM     24  O   UNL     1      47.153   0.312   6.521  0.00  0.00    +0.000 OA
ATOM     25  H   UNL     1      49.237   1.447   5.920  0.00  0.00    +0.000 HD
ATOM     26  H   UNL     1      48.925   2.916   6.781  0.00  0.00    +0.000 HD
ENDBRANCH  16  23
ENDBRANCH  15  19
ENDBRANCH   1  15
TORSDOF 4
ENDMDL
MODEL 3
REMARK VINA RESULT:    -8.082      2.296      3.663
REMARK INTER + INTRA:         -10.661
REMARK INTER:                 -10.014
REMARK INTRA:                  -0.647
REMARK UNBOUND:                -0.688
REMARK  Name = 
REMARK  4 active torsions:
REMARK  status: ('A' for Active; 'I' for Inactive)
REMARK    1  A    between atoms: C_2  and  C_4
REMARK    2  A    between atoms: C_7  and  C_8
REMARK    3  A    between atoms: C_8  and  N_9
REMARK    4  A    between atoms: C_15  and  C_16
REMARK                            x       y       z     vdW  Elec       q    Type
REMARK                         _______ _______ _______ _____ _____    ______ ____
ROOT
ATOM      1  N   UNL     1      44.838   5.789  11.200  0.00  0.00    +0.000 N 
ATOM      2  C   UNL     1      44.754   7.120  10.859  0.00  0.00    +0.000 A 
ATOM      3  C   UNL     1      45.526   7.839  11.744  0.00  0.00    +0.000 A 
ATOM      4  C   UNL     1      46.081   6.922  12.662  0.00  0.00    +0.000 A 
ATOM      5  N   UNL     1      46.882   7.173  13.726  0.00  0.00    +0.000 NA
ATOM      6  C   UNL     1      47.225   6.080  14.449  0.00  0.00    +0.000 A 
ATOM      7  C   UNL     1      46.837   4.768  14.182  0.00  0.00    +0.000 A 
ATOM      8  C   UNL     1      46.025   4.525  13.069  0.00  0.00    +0.000 A 
ATOM      9  C   UNL     1      45.644   5.644  12.314  0.00  0.00    +0.000 A 
ENDROOT
BRANCH   7  10
ATOM     10  C   UNL     1      47.293   3.704  15.110  0.00  0.00    +0.000 C 
ATOM     11  N   UNL     1      46.939   3.782  16.427  0.00  0.00    +0.000 N 
ATOM     12  O   UNL     1      47.985   2.770  14.719  0.00  0.00    +0.000 OA
ATOM     13  H   UNL     1      46.391   4.515  16.848  0.00  0.00    +0.000 HD
ATOM     14  H   UNL     1      47.289   3.049  17.033  0.00  0.00    +0.000 HD
ENDBRANCH   7  10
BRANCH   1  15
ATOM     15  C   UNL     1      44.062   4.729  10.561  0.00  0.00    +0.000 C 
BRANCH  15  19
ATOM     16  C   UNL     1      46.430   2.452   7.743  0.00  0.00    +0.000 A 
ATOM     17  C   UNL     1      45.656   1.791   8.703  0.00  0.00    +0.000 A 
ATOM     18  C   UNL     1      44.885   2.526   9.610  0.00  0.00    +0.000 A 
ATOM     19  C   UNL     1      44.880   3.929   9.575  0.00  0.00    +0.000 A 
ATOM     20  C   UNL     1      45.661   4.582   8.610  0.00  0.00    +0.000 A 
ATOM     21  C   UNL     1      46.431   3.849   7.702  0.00  0.00    +0.000 A 
BRANCH  16  23
ATOM     22  N   UNL     1      48.324   2.400   6.208  0.00  0.00    +0.000 N 
ATOM     23  C   UNL     1      47.293   1.713   6.784  0.00  0.00    +0.000 C 
ATOM     24  O   UNL     1      47.113   0.528   6.541  0.00  0.00    +0.000 OA
ATOM     25  H   UNL     1      48.952   1.859   5.626  0.00  0.00    +0.000 HD
ATOM     26  H   UNL     1      48.656   3.286   6.562  0.00  0.00    +0.000 HD
ENDBRANCH  16  23
ENDBRANCH  15  19
ENDBRANCH   1  15
TORSDOF 4
ENDMDL
MODEL 4
REMARK VINA RESULT:    -7.623      1.845      2.851
REMARK INTER + INTRA:         -10.094
REMARK INTER:                  -9.586
REMARK INTRA:                  -0.508
REMARK UNBOUND:                -0.688
REMARK  Name = 
REMARK  4 active torsions:
REMARK  status: ('A' for Active; 'I' for Inactive)
REMARK    1  A    between atoms: C_2  and  C_4
REMARK    2  A    between atoms: C_7  and  C_8
REMARK    3  A    between atoms: C_8  and  N_9
REMARK    4  A    between atoms: C_15  and  C_16
REMARK                            x       y       z     vdW  Elec       q    Type
REMARK                         _______ _______ _______ _____ _____    ______ ____
ROOT
ATOM      1  N   UNL     1      44.047   5.201  11.162  0.00  0.00    +0.000 N 
ATOM      2  C   UNL     1      42.946   6.001  10.953  0.00  0.00    +0.000 A 
ATOM      3  C   UNL     1      43.257   7.274  11.376  0.00  0.00    +0.000 A 
ATOM      4  C   UNL     1      44.577   7.245  11.874  0.00  0.00    +0.000 A 
ATOM      5  N   UNL     1      45.295   8.255  12.423  0.00  0.00    +0.000 NA
ATOM      6  C   UNL     1      46.533   7.905  12.848  0.00  0.00    +0.000 A 
ATOM      7  C   UNL     1      47.101   6.636  12.755  0.00  0.00    +0.000 A 
ATOM      8  C   UNL     1      46.352   5.610  12.170  0.00  0.00    +0.000 A 
ATOM      9  C   UNL     1      45.061   5.944  11.736  0.00  0.00    +0.000 A 
ENDROOT
BRANCH   7  10
ATOM     10  C   UNL     1      48.466   6.442  13.304  0.00  0.00    +0.000 C 
ATOM     11  N   UNL     1      49.539   6.857  12.566  0.00  0.00    +0.000 N 
ATOM     12  O   UNL     1      48.646   5.912  14.395  0.00  0.00    +0.000 OA
ATOM     13  H   UNL     1      49.497   7.286  11.655  0.00  0.00    +0.000 HD
ATOM     14  H   UNL     1      50.454   6.687  12.965  0.00  0.00    +0.000 HD
ENDBRANCH   7  10
BRANCH   1  15
ATOM     15  C   UNL     1      44.063   3.756  10.942  0.00  0.00    +0.000 C 
BRANCH  15  19
ATOM     16  C   UNL     1      46.421   2.654   7.484  0.00  0.00    +0.000 A 
ATOM     17  C   UNL     1      45.985   1.670   8.378  0.00  0.00    +0.000 A 
ATOM     18  C   UNL     1      45.217   2.025   9.493  0.00  0.00    +0.000 A 
ATOM     19  C   UNL     1      44.878   3.365   9.733  0.00  0.00    +0.000 A 
ATOM     20  C   UNL     1      45.321   4.344   8.831  0.00  0.00    +0.000 A 
ATOM     21  C   UNL     1      46.088   3.991   7.717  0.00  0.00    +0.000 A 
BRANCH  16  23
ATOM     22  N   UNL     1      47.237   3.192   5.250  0.00  0.00    +0.000 N 
ATOM     23  C   UNL     1      47.269   2.327   6.308  0.00  0.00    +0.000 C 
ATOM     24  O   UNL     1      47.996   1.343   6.294  0.00  0.00    +0.000 OA
ATOM     25  H   UNL     1      47.885   3.001   4.497  0.00  0.00    +0.000 HD
ATOM     26  H   UNL     1      46.856   4.125   5.318  0.00  0.00    +0.000 HD
ENDBRANCH  16  23
ENDBRANCH  15  19
ENDBRANCH   1  15
TORSDOF 4
ENDMDL
MODEL 5
REMARK VINA RESULT:    -6.974      2.518      6.858
REMARK INTER + INTRA:          -9.292
REMARK INTER:                  -8.748
REMARK INTRA:                  -0.545
REMARK UNBOUND:                -0.688
REMARK  Name = 
REMARK  4 active torsions:
REMARK  status: ('A' for Active; 'I' for Inactive)
REMARK    1  A    between atoms: C_2  and  C_4
REMARK    2  A    between atoms: C_7  and  C_8
REMARK    3  A    between atoms: C_8  and  N_9
REMARK    4  A    between atoms: C_15  and  C_16
REMARK                            x       y       z     vdW  Elec       q    Type
REMARK                         _______ _______ _______ _____ _____    ______ ____
ROOT
ATOM      1  N   UNL     1      44.364   5.811  11.401  0.00  0.00    +0.000 N 
ATOM      2  C   UNL     1      43.398   5.391  12.288  0.00  0.00    +0.000 A 
ATOM      3  C   UNL     1      43.061   4.094  11.971  0.00  0.00    +0.000 A 
ATOM      4  C   UNL     1      43.828   3.720  10.848  0.00  0.00    +0.000 A 
ATOM      5  N   UNL     1      43.813   2.548  10.167  0.00  0.00    +0.000 NA
ATOM      6  C   UNL     1      44.643   2.501   9.098  0.00  0.00    +0.000 A 
ATOM      7  C   UNL     1      45.486   3.526   8.672  0.00  0.00    +0.000 A 
ATOM      8  C   UNL     1      45.502   4.723   9.397  0.00  0.00    +0.000 A 
ATOM      9  C   UNL     1      44.638   4.801  10.499  0.00  0.00    +0.000 A 
ENDROOT
BRANCH   7  10
ATOM     10  C   UNL     1      46.304   3.295   7.456  0.00  0.00    +0.000 C 
ATOM     11  N   UNL     1      46.896   2.075   7.283  0.00  0.00    +0.000 N 
ATOM     12  O   UNL     1      46.465   4.174   6.618  0.00  0.00    +0.000 OA
ATOM     13  H   UNL     1      46.839   1.297   7.919  0.00  0.00    +0.000 HD
ATOM     14  H   UNL     1      47.465   1.964   6.451  0.00  0.00    +0.000 HD
ENDBRANCH   7  10
BRANCH   1  15
ATOM     15  C   UNL     1      44.891   7.173  11.348  0.00  0.00    +0.000 C 
BRANCH  15  19
ATOM     16  C   UNL     1      48.389   7.698  13.841  0.00  0.00    +0.000 A 
ATOM     17  C   UNL     1      47.340   8.622  13.901  0.00  0.00    +0.000 A 
ATOM     18  C   UNL     1      46.206   8.449  13.100  0.00  0.00    +0.000 A 
ATOM     19  C   UNL     1      46.105   7.357  12.226  0.00  0.00    +0.000 A 
ATOM     20  C   UNL     1      47.163   6.436  12.172  0.00  0.00    +0.000 A 
ATOM     21  C   UNL     1      48.297   6.607  12.972  0.00  0.00    +0.000 A 
BRANCH  16  23
ATOM     22  N   UNL     1      50.821   7.653  14.011  0.00  0.00    +0.000 N 
ATOM     23  C   UNL     1      49.629   7.862  14.645  0.00  0.00    +0.000 C 
ATOM     24  O   UNL     1      49.592   8.202  15.820  0.00  0.00    +0.000 OA
ATOM     25  H   UNL     1      51.655   7.853  14.550  0.00  0.00    +0.000 HD
ATOM     26  H   UNL     1      50.908   7.620  13.006  0.00  0.00    +0.000 HD
ENDBRANCH  16  23
ENDBRANCH  15  19
ENDBRANCH   1  15
TORSDOF 4
ENDMDL
MODEL 6
REMARK VINA RESULT:    -6.514      3.966      7.724
REMARK INTER + INTRA:          -8.725
REMARK INTER:                  -8.095
REMARK INTRA:                  -0.629
REMARK UNBOUND:                -0.688
REMARK  Name = 
REMARK  4 active torsions:
REMARK  status: ('A' for Active; 'I' for Inactive)
REMARK    1  A    between atoms: C_2  and  C_4
REMARK    2  A    between atoms: C_7  and  C_8
REMARK    3  A    between atoms: C_8  and  N_9
REMARK    4  A    between atoms: C_15  and  C_16
REMARK                            x       y       z     vdW  Elec       q    Type
REMARK                         _______ _______ _______ _____ _____    ______ ____
ROOT
ATOM      1  N   UNL     1      46.607   6.487  12.920  0.00  0.00    +0.000 N 
ATOM      2  C   UNL     1      46.333   7.836  12.952  0.00  0.00    +0.000 A 
ATOM      3  C   UNL     1      45.078   8.030  12.418  0.00  0.00    +0.000 A 
ATOM      4  C   UNL     1      44.581   6.767  12.034  0.00  0.00    +0.000 A 
ATOM      5  N   UNL     1      43.401   6.469  11.437  0.00  0.00    +0.000 NA
ATOM      6  C   UNL     1      43.224   5.157  11.153  0.00  0.00    +0.000 A 
ATOM      7  C   UNL     1      44.126   4.131  11.429  0.00  0.00    +0.000 A 
ATOM      8  C   UNL     1      45.332   4.454  12.061  0.00  0.00    +0.000 A 
ATOM      9  C   UNL     1      45.545   5.810  12.351  0.00  0.00    +0.000 A 
ENDROOT
BRANCH   7  10
ATOM     10  C   UNL     1      43.762   2.754  11.015  0.00  0.00    +0.000 C 
ATOM     11  N   UNL     1      44.396   2.200   9.938  0.00  0.00    +0.000 N 
ATOM     12  O   UNL     1      42.904   2.114  11.611  0.00  0.00    +0.000 OA
ATOM     13  H   UNL     1      45.100   2.648   9.374  0.00  0.00    +0.000 HD
ATOM     14  H   UNL     1      44.104   1.267   9.673  0.00  0.00    +0.000 HD
ENDBRANCH   7  10
BRANCH   1  15
ATOM     15  C   UNL     1      47.892   5.903  13.296  0.00  0.00    +0.000 C 
BRANCH  15  19
ATOM     16  C   UNL     1      48.037   4.819  17.484  0.00  0.00    +0.000 A 
ATOM     17  C   UNL     1      47.306   4.038  16.582  0.00  0.00    +0.000 A 
ATOM     18  C   UNL     1      47.264   4.384  15.227  0.00  0.00    +0.000 A 
ATOM     19  C   UNL     1      47.946   5.516  14.755  0.00  0.00    +0.000 A 
ATOM     20  C   UNL     1      48.675   6.293  15.667  0.00  0.00    +0.000 A 
ATOM     21  C   UNL     1      48.718   5.949  17.021  0.00  0.00    +0.000 A 
BRANCH  16  23
ATOM     22  N   UNL     1      48.323   3.215  19.298  0.00  0.00    +0.000 N 
ATOM     23  C   UNL     1      48.079   4.511  18.938  0.00  0.00    +0.000 C 
ATOM     24  O   UNL     1      47.934   5.383  19.783  0.00  0.00    +0.000 OA
ATOM     25  H   UNL     1      48.435   3.041  20.289  0.00  0.00    +0.000 HD
ATOM     26  H   UNL     1      48.691   2.529  18.656  0.00  0.00    +0.000 HD
ENDBRANCH  16  23
ENDBRANCH  15  19
ENDBRANCH   1  15
TORSDOF 4
ENDMDL
MODEL 7
REMARK VINA RESULT:    -6.375      5.111      7.820
REMARK INTER + INTRA:          -8.554
REMARK INTER:                  -8.110
REMARK INTRA:                  -0.444
REMARK UNBOUND:                -0.688
REMARK  Name = 
REMARK  4 active torsions:
REMARK  status: ('A' for Active; 'I' for Inactive)
REMARK    1  A    between atoms: C_2  and  C_4
REMARK    2  A    between atoms: C_7  and  C_8
REMARK    3  A    between atoms: C_8  and  N_9
REMARK    4  A    between atoms: C_15  and  C_16
REMARK                            x       y       z     vdW  Elec       q    Type
REMARK                         _______ _______ _______ _____ _____    ______ ____
ROOT
ATOM      1  N   UNL     1      47.457   5.412  15.228  0.00  0.00    +0.000 N 
ATOM      2  C   UNL     1      48.448   6.354  15.068  0.00  0.00    +0.000 A 
ATOM      3  C   UNL     1      48.388   6.823  13.774  0.00  0.00    +0.000 A 
ATOM      4  C   UNL     1      47.344   6.133  13.122  0.00  0.00    +0.000 A 
ATOM      5  N   UNL     1      46.937   6.240  11.834  0.00  0.00    +0.000 NA
ATOM      6  C   UNL     1      45.924   5.410  11.488  0.00  0.00    +0.000 A 
ATOM      7  C   UNL     1      45.290   4.499  12.330  0.00  0.00    +0.000 A 
ATOM      8  C   UNL     1      45.711   4.414  13.662  0.00  0.00    +0.000 A 
ATOM      9  C   UNL     1      46.770   5.253  14.040  0.00  0.00    +0.000 A 
ENDROOT
BRANCH   7  10
ATOM     10  C   UNL     1      44.213   3.653  11.757  0.00  0.00    +0.000 C 
ATOM     11  N   UNL     1      43.769   2.578  12.474  0.00  0.00    +0.000 N 
ATOM     12  O   UNL     1      43.728   3.896  10.658  0.00  0.00    +0.000 OA
ATOM     13  H   UNL     1      44.113   2.286  13.374  0.00  0.00    +0.000 HD
ATOM     14  H   UNL     1      43.049   2.012  12.039  0.00  0.00    +0.000 HD
ENDBRANCH   7  10
BRANCH   1  15
ATOM     15  C   UNL     1      47.279   4.608  16.435  0.00  0.00    +0.000 C 
BRANCH  15  19
ATOM     16  C   UNL     1      50.795   2.266  17.374  0.00  0.00    +0.000 A 
ATOM     17  C   UNL     1      50.695   3.589  17.818  0.00  0.00    +0.000 A 
ATOM     18  C   UNL     1      49.555   4.345  17.520  0.00  0.00    +0.000 A 
ATOM     19  C   UNL     1      48.504   3.793  16.772  0.00  0.00    +0.000 A 
ATOM     20  C   UNL     1      48.615   2.466  16.331  0.00  0.00    +0.000 A 
ATOM     21  C   UNL     1      49.752   1.709  16.628  0.00  0.00    +0.000 A 
BRANCH  16  23
ATOM     22  N   UNL     1      51.805   0.171  18.106  0.00  0.00    +0.000 N 
ATOM     23  C   UNL     1      52.002   1.439  17.635  0.00  0.00    +0.000 C 
ATOM     24  O   UNL     1      53.129   1.858  17.409  0.00  0.00    +0.000 OA
ATOM     25  H   UNL     1      52.632  -0.406  18.195  0.00  0.00    +0.000 HD
ATOM     26  H   UNL     1      50.909  -0.293  18.069  0.00  0.00    +0.000 HD
ENDBRANCH  16  23
ENDBRANCH  15  19
ENDBRANCH   1  15
TORSDOF 4
ENDMDL
MODEL 8
REMARK VINA RESULT:    -6.317      3.289      4.976
REMARK INTER + INTRA:          -8.482
REMARK INTER:                  -7.838
REMARK INTRA:                  -0.644
REMARK UNBOUND:                -0.688
REMARK  Name = 
REMARK  4 active torsions:
REMARK  status: ('A' for Active; 'I' for Inactive)
REMARK    1  A    between atoms: C_2  and  C_4
REMARK    2  A    between atoms: C_7  and  C_8
REMARK    3  A    between atoms: C_8  and  N_9
REMARK    4  A    between atoms: C_15  and  C_16
REMARK                            x       y       z     vdW  Elec       q    Type
REMARK                         _______ _______ _______ _____ _____    ______ ____
ROOT
ATOM      1  N   UNL     1      46.499   6.536  13.297  0.00  0.00    +0.000 N 
ATOM      2  C   UNL     1      47.202   7.650  12.896  0.00  0.00    +0.000 A 
ATOM      3  C   UNL     1      48.342   7.735  13.664  0.00  0.00    +0.000 A 
ATOM      4  C   UNL     1      48.323   6.655  14.571  0.00  0.00    +0.000 A 
ATOM      5  N   UNL     1      49.221   6.349  15.539  0.00  0.00    +0.000 NA
ATOM      6  C   UNL     1      48.907   5.261  16.281  0.00  0.00    +0.000 A 
ATOM      7  C   UNL     1      47.778   4.460  16.122  0.00  0.00    +0.000 A 
ATOM      8  C   UNL     1      46.870   4.780  15.107  0.00  0.00    +0.000 A 
ATOM      9  C   UNL     1      47.167   5.912  14.334  0.00  0.00    +0.000 A 
ENDROOT
BRANCH   7  10
ATOM     10  C   UNL     1      47.593   3.322  17.056  0.00  0.00    +0.000 C 
ATOM     11  N   UNL     1      48.699   2.669  17.526  0.00  0.00    +0.000 N 
ATOM     12  O   UNL     1      46.476   2.955  17.402  0.00  0.00    +0.000 OA
ATOM     13  H   UNL     1      49.654   2.882  17.288  0.00  0.00    +0.000 HD
ATOM     14  H   UNL     1      48.530   1.884  18.143  0.00  0.00    +0.000 HD
ENDBRANCH   7  10
BRANCH   1  15
ATOM     15  C   UNL     1      45.176   6.177  12.791  0.00  0.00    +0.000 C 
BRANCH  15  19
ATOM     16  C   UNL     1      45.396   3.435   9.449  0.00  0.00    +0.000 A 
ATOM     17  C   UNL     1      45.033   2.968  10.717  0.00  0.00    +0.000 A 
ATOM     18  C   UNL     1      44.955   3.855  11.796  0.00  0.00    +0.000 A 
ATOM     19  C   UNL     1      45.243   5.218  11.627  0.00  0.00    +0.000 A 
ATOM     20  C   UNL     1      45.607   5.676  10.353  0.00  0.00    +0.000 A 
ATOM     21  C   UNL     1      45.685   4.792   9.273  0.00  0.00    +0.000 A 
BRANCH  16  23
ATOM     22  N   UNL     1      45.611   3.096   7.044  0.00  0.00    +0.000 N 
ATOM     23  C   UNL     1      45.527   2.524   8.283  0.00  0.00    +0.000 C 
ATOM     24  O   UNL     1      45.592   1.310   8.421  0.00  0.00    +0.000 OA
ATOM     25  H   UNL     1      45.788   2.466   6.272  0.00  0.00    +0.000 HD
ATOM     26  H   UNL     1      45.812   4.076   6.907  0.00  0.00    +0.000 HD
ENDBRANCH  16  23
ENDBRANCH  15  19
ENDBRANCH   1  15
TORSDOF 4
ENDMDL
MODEL 9
REMARK VINA RESULT:    -6.242      4.405      6.998
REMARK INTER + INTRA:          -8.390
REMARK INTER:                  -7.702
REMARK INTRA:                  -0.689
REMARK UNBOUND:                -0.688
REMARK  Name = 
REMARK  4 active torsions:
REMARK  status: ('A' for Active; 'I' for Inactive)
REMARK    1  A    between atoms: C_2  and  C_4
REMARK    2  A    between atoms: C_7  and  C_8
REMARK    3  A    between atoms: C_8  and  N_9
REMARK    4  A    between atoms: C_15  and  C_16
REMARK                            x       y       z     vdW  Elec       q    Type
REMARK                         _______ _______ _______ _____ _____    ______ ____
ROOT
ATOM      1  N   UNL     1      48.885   7.212  14.557  0.00  0.00    +0.000 N 
ATOM      2  C   UNL     1      49.125   8.549  14.780  0.00  0.00    +0.000 A 
ATOM      3  C   UNL     1      49.029   8.780  16.135  0.00  0.00    +0.000 A 
ATOM      4  C   UNL     1      48.704   7.553  16.752  0.00  0.00    +0.000 A 
ATOM      5  N   UNL     1      48.481   7.302  18.064  0.00  0.00    +0.000 NA
ATOM      6  C   UNL     1      48.147   6.020  18.348  0.00  0.00    +0.000 A 
ATOM      7  C   UNL     1      48.031   4.982  17.425  0.00  0.00    +0.000 A 
ATOM      8  C   UNL     1      48.282   5.256  16.076  0.00  0.00    +0.000 A 
ATOM      9  C   UNL     1      48.615   6.580  15.756  0.00  0.00    +0.000 A 
ENDROOT
BRANCH   7  10
ATOM     10  C   UNL     1      47.626   3.646  17.927  0.00  0.00    +0.000 C 
ATOM     11  N   UNL     1      48.307   3.103  18.980  0.00  0.00    +0.000 N 
ATOM     12  O   UNL     1      46.705   3.022  17.411  0.00  0.00    +0.000 OA
ATOM     13  H   UNL     1      49.085   3.526  19.459  0.00  0.00    +0.000 HD
ATOM     14  H   UNL     1      48.015   2.180  19.279  0.00  0.00    +0.000 HD
ENDBRANCH   7  10
BRANCH   1  15
ATOM     15  C   UNL     1      48.786   6.608  13.230  0.00  0.00    +0.000 C 
BRANCH  15  19
ATOM     16  C   UNL     1      44.684   6.246  11.898  0.00  0.00    +0.000 A 
ATOM     17  C   UNL     1      45.366   7.458  11.746  0.00  0.00    +0.000 A 
ATOM     18  C   UNL     1      46.694   7.574  12.170  0.00  0.00    +0.000 A 
ATOM     19  C   UNL     1      47.357   6.485  12.756  0.00  0.00    +0.000 A 
ATOM     20  C   UNL     1      46.664   5.274  12.905  0.00  0.00    +0.000 A 
ATOM     21  C   UNL     1      45.337   5.156  12.481  0.00  0.00    +0.000 A 
BRANCH  16  23
ATOM     22  N   UNL     1      42.576   7.220  11.154  0.00  0.00    +0.000 N 
ATOM     23  C   UNL     1      43.261   6.088  11.496  0.00  0.00    +0.000 C 
ATOM     24  O   UNL     1      42.728   4.989  11.441  0.00  0.00    +0.000 OA
ATOM     25  H   UNL     1      41.637   7.084  10.800  0.00  0.00    +0.000 HD
ATOM     26  H   UNL     1      43.034   8.095  10.947  0.00  0.00    +0.000 HD
ENDBRANCH  16  23
ENDBRANCH  15  19
ENDBRANCH   1  15
TORSDOF 4
ENDMDL
