MODEL 1
REMARK VINA RESULT:    -9.331      0.000      0.000
REMARK INTER + INTRA:         -12.959
REMARK INTER:                 -12.058
REMARK INTRA:                  -0.901
REMARK UNBOUND:                -0.901
REMARK  Name = 
REMARK  6 active torsions:
REMARK  status: ('A' for Active; 'I' for Inactive)
REMARK    1  A    between atoms: C_1  and  O_2
REMARK    2  A    between atoms: O_2  and  C_3
REMARK    3  A    between atoms: C_6  and  C_7
REMARK    4  A    between atoms: C_11  and  C_12
REMARK    5  A    between atoms: C_12  and  N_13
REMARK    6  A    between atoms: C_17  and  C_18
REMARK                            x       y       z     vdW  Elec       q    Type
REMARK                         _______ _______ _______ _____ _____    ______ ____
ROOT
ATOM      1  C   UNL     1      43.831   5.037  11.238  0.00  0.00    +0.000 C 
ATOM      2  C   UNL     1      42.464   5.338  11.841  0.00  0.00    +0.000 C 
ATOM      3  C   UNL     1      43.046   3.975  11.988  0.00  0.00    +0.000 C 
ENDROOT
BRANCH   1   4
ATOM      4  N   UNL     1      43.972   4.931   9.772  0.00  0.00    +0.000 N 
ATOM      5  C   UNL     1      44.835   4.025   9.133  0.00  0.00    +0.000 A 
ATOM      6  C   UNL     1      45.068   2.728   9.588  0.00  0.00    +0.000 A 
ATOM      7  C   UNL     1      45.853   1.848   8.836  0.00  0.00    +0.000 A 
ATOM      8  C   UNL     1      46.406   2.285   7.639  0.00  0.00    +0.000 A 
ATOM      9  C   UNL     1      46.126   3.585   7.246  0.00  0.00    +0.000 A 
ATOM     10  N   UNL     1      45.361   4.453   7.964  0.00  0.00    +0.000 NA
ATOM     11  H   UNL     1      44.095   5.809   9.270  0.00  0.00    +0.000 HD
BRANCH   8  12
ATOM     12  C   UNL     1      47.228   1.417   6.771  0.00  0.00    +0.000 C 
ATOM     13  N   UNL     1      48.218   2.007   6.039  0.00  0.00    +0.000 N 
ATOM     14  O   UNL     1      47.016   0.210   6.690  0.00  0.00    +0.000 OA
ATOM     15  H   UNL     1      48.308   3.007   5.931  0.00  0.00    +0.000 HD
ATOM     16  H   UNL     1      48.723   1.417   5.389  0.00  0.00    +0.000 HD
ENDBRANCH   8  12
ENDBRANCH   1   4
BRANCH   1  21
ATOM     17  C   UNL     1      46.753   5.727  13.654  0.00  0.00    +0.000 A 
ATOM     18  C   UNL     1      47.164   7.001  13.236  0.00  0.00    +0.000 A 
ATOM     19  C   UNL     1      46.516   7.647  12.183  0.00  0.00    +0.000 A 
ATOM     20  C   UNL     1      45.445   7.024  11.534  0.00  0.00    +0.000 A 
ATOM     21  C   UNL     1      45.001   5.749  11.919  0.00  0.00    +0.000 A 
ATOM     22  C   UNL     1      45.678   5.128  12.974  0.00  0.00    +0.000 A 
BRANCH  17  26
ATOM     23  C   UNL     1      48.522   3.489  16.786  0.00  0.00    +0.000 A 
ATOM     24  C   UNL     1      48.619   4.876  16.829  0.00  0.00    +0.000 A 
ATOM     25  C   UNL     1      48.048   5.641  15.812  0.00  0.00    +0.000 A 
ATOM     26  C   UNL     1      47.396   5.002  14.762  0.00  0.00    +0.000 A 
ATOM     27  N   UNL     1      47.281   3.648  14.717  0.00  0.00    +0.000 NA
ATOM     28  C   UNL     1      47.841   2.932  15.714  0.00  0.00    +0.000 A 
BRANCH  23  30
ATOM     29  C   UNL     1      50.348   2.148  17.443  0.00  0.00    +0.000 C 
ATOM     30  O   UNL     1      49.032   2.613  17.705  0.00  0.00    +0.000 OA
ENDBRANCH  23  30
ENDBRANCH  17  26
ENDBRANCH   1  21
TORSDOF 5
ENDMDL
MODEL 2
REMARK VINA RESULT:    -9.191      2.871      4.182
REMARK INTER + INTRA:         -12.778
REMARK INTER:                 -11.767
REMARK INTRA:                  -1.012
REMARK UNBOUND:                -0.901
REMARK  Name = 
REMARK  6 active torsions:
REMARK  status: ('A' for Active; 'I' for Inactive)
REMARK    1  A    between atoms: C_1  and  O_2
REMARK    2  A    between atoms: O_2  and  C_3
REMARK    3  A    between atoms: C_6  and  C_7
REMARK    4  A    between atoms: C_11  and  C_12
REMARK    5  A    between atoms: C_12  and  N_13
REMARK    6  A    between atoms: C_17  and  C_18
REMARK                            x       y       z     vdW  Elec       q    Type
REMARK                         _______ _______ _______ _____ _____    ______ ____
ROOT
ATOM      1  C   UNL     1      43.915   5.131  11.146  0.00  0.00    +0.000 C 
ATOM      2  C   UNL     1      42.646   5.822  11.631  0.00  0.00    +0.000 C 
ATOM      3  C   UNL     1      42.719   4.334  11.635  0.00  0.00    +0.000 C 
ENDROOT
BRANCH   1   4
ATOM      4  N   UNL     1      44.240   5.137   9.705  0.00  0.00    +0.000 N 
ATOM      5  C   UNL     1      45.034   4.161   9.079  0.00  0.00    +0.000 A 
ATOM      6  C   UNL     1      45.001   2.808   9.412  0.00  0.00    +0.000 A 
ATOM      7  C   UNL     1      45.740   1.882   8.669  0.00  0.00    +0.000 A 
ATOM      8  C   UNL     1      46.513   2.327   7.605  0.00  0.00    +0.000 A 
ATOM      9  C   UNL     1      46.492   3.685   7.328  0.00  0.00    +0.000 A 
ATOM     10  N   UNL     1      45.777   4.600   8.039  0.00  0.00    +0.000 NA
ATOM     11  H   UNL     1      44.564   6.024   9.323  0.00  0.00    +0.000 HD
BRANCH   8  12
ATOM     12  C   UNL     1      47.305   1.416   6.753  0.00  0.00    +0.000 C 
ATOM     13  N   UNL     1      48.307   1.962   6.001  0.00  0.00    +0.000 N 
ATOM     14  O   UNL     1      47.060   0.215   6.701  0.00  0.00    +0.000 OA
ATOM     15  H   UNL     1      48.423   2.956   5.869  0.00  0.00    +0.000 HD
ATOM     16  H   UNL     1      48.791   1.343   5.362  0.00  0.00    +0.000 HD
ENDBRANCH   8  12
ENDBRANCH   1   4
BRANCH   1  21
ATOM     17  C   UNL     1      47.214   6.547  12.546  0.00  0.00    +0.000 A 
ATOM     18  C   UNL     1      47.413   5.729  13.668  0.00  0.00    +0.000 A 
ATOM     19  C   UNL     1      46.499   4.726  13.987  0.00  0.00    +0.000 A 
ATOM     20  C   UNL     1      45.371   4.526  13.184  0.00  0.00    +0.000 A 
ATOM     21  C   UNL     1      45.132   5.321  12.052  0.00  0.00    +0.000 A 
ATOM     22  C   UNL     1      46.066   6.323  11.766  0.00  0.00    +0.000 A 
BRANCH  17  26
ATOM     23  C   UNL     1      50.038   9.515  11.469  0.00  0.00    +0.000 A 
ATOM     24  C   UNL     1      48.711   9.897  11.637  0.00  0.00    +0.000 A 
ATOM     25  C   UNL     1      47.757   8.943  11.990  0.00  0.00    +0.000 A 
ATOM     26  C   UNL     1      48.148   7.618  12.160  0.00  0.00    +0.000 A 
ATOM     27  N   UNL     1      49.444   7.236  12.014  0.00  0.00    +0.000 NA
ATOM     28  C   UNL     1      50.347   8.179  11.673  0.00  0.00    +0.000 A 
BRANCH  23  30
ATOM     29  C   UNL     1      52.356   9.718  11.080  0.00  0.00    +0.000 C 
ATOM     30  O   UNL     1      51.078  10.335  11.122  0.00  0.00    +0.000 OA
ENDBRANCH  23  30
ENDBRANCH  17  26
ENDBRANCH   1  21
TORSDOF 5
ENDMDL
MODEL 3
REMARK VINA RESULT:    -7.431      1.565      7.559
REMARK INTER + INTRA:         -10.504
REMARK INTER:                 -10.413
REMARK INTRA:                  -0.092
REMARK UNBOUND:                -0.901
REMARK  Name = 
REMARK  6 active torsions:
REMARK  status: ('A' for Active; 'I' for Inactive)
REMARK    1  A    between atoms: C_1  and  O_2
REMARK    2  A    between atoms: O_2  and  C_3
REMARK    3  A    between atoms: C_6  and  C_7
REMARK    4  A    between atoms: C_11  and  C_12
REMARK    5  A    between atoms: C_12  and  N_13
REMARK    6  A    between atoms: C_17  and  C_18
REMARK                            x       y       z     vdW  Elec       q    Type
REMARK                         _______ _______ _______ _____ _____    ______ ____
ROOT
ATOM      1  C   UNL     1      46.159   7.700  12.192  0.00  0.00    +0.000 C 
ATOM      2  C   UNL     1      45.456   8.867  12.875  0.00  0.00    +0.000 C 
ATOM      3  C   UNL     1      46.232   9.107  11.626  0.00  0.00    +0.000 C 
ENDROOT
BRANCH   1   4
ATOM      4  N   UNL     1      47.359   7.108  12.815  0.00  0.00    +0.000 N 
ATOM      5  C   UNL     1      47.315   6.167  13.858  0.00  0.00    +0.000 A 
ATOM      6  C   UNL     1      46.356   5.160  13.950  0.00  0.00    +0.000 A 
ATOM      7  C   UNL     1      46.444   4.193  14.956  0.00  0.00    +0.000 A 
ATOM      8  C   UNL     1      47.490   4.255  15.868  0.00  0.00    +0.000 A 
ATOM      9  C   UNL     1      48.410   5.280  15.712  0.00  0.00    +0.000 A 
ATOM     10  N   UNL     1      48.341   6.227  14.735  0.00  0.00    +0.000 NA
ATOM     11  H   UNL     1      48.094   7.761  13.082  0.00  0.00    +0.000 HD
BRANCH   8  12
ATOM     12  C   UNL     1      47.673   3.264  16.948  0.00  0.00    +0.000 C 
ATOM     13  N   UNL     1      48.950   2.883  17.250  0.00  0.00    +0.000 N 
ATOM     14  O   UNL     1      46.713   2.778  17.539  0.00  0.00    +0.000 OA
ATOM     15  H   UNL     1      49.747   3.110  16.674  0.00  0.00    +0.000 HD
ATOM     16  H   UNL     1      49.060   2.146  17.936  0.00  0.00    +0.000 HD
ENDBRANCH   8  12
ENDBRANCH   1   4
BRANCH   1  21
ATOM     17  C   UNL     1      44.919   4.759  10.032  0.00  0.00    +0.000 A 
ATOM     18  C   UNL     1      43.553   4.737  10.350  0.00  0.00    +0.000 A 
ATOM     19  C   UNL     1      43.019   5.654  11.254  0.00  0.00    +0.000 A 
ATOM     20  C   UNL     1      43.848   6.610  11.853  0.00  0.00    +0.000 A 
ATOM     21  C   UNL     1      45.221   6.668  11.563  0.00  0.00    +0.000 A 
ATOM     22  C   UNL     1      45.724   5.728  10.657  0.00  0.00    +0.000 A 
BRANCH  17  26
ATOM     23  C   UNL     1      46.721   2.191   7.186  0.00  0.00    +0.000 A 
ATOM     24  C   UNL     1      46.035   1.617   8.250  0.00  0.00    +0.000 A 
ATOM     25  C   UNL     1      45.432   2.436   9.205  0.00  0.00    +0.000 A 
ATOM     26  C   UNL     1      45.535   3.818   9.081  0.00  0.00    +0.000 A 
ATOM     27  N   UNL     1      46.190   4.390   8.037  0.00  0.00    +0.000 NA
ATOM     28  C   UNL     1      46.764   3.575   7.127  0.00  0.00    +0.000 A 
BRANCH  23  30
ATOM     29  C   UNL     1      47.859   2.327   5.123  0.00  0.00    +0.000 C 
ATOM     30  O   UNL     1      47.363   1.519   6.180  0.00  0.00    +0.000 OA
ENDBRANCH  23  30
ENDBRANCH  17  26
ENDBRANCH   1  21
TORSDOF 5
ENDMDL
MODEL 4
REMARK VINA RESULT:    -7.022      3.430      8.248
REMARK INTER + INTRA:          -9.975
REMARK INTER:                  -9.012
REMARK INTRA:                  -0.963
REMARK UNBOUND:                -0.901
REMARK  Name = 
REMARK  6 active torsions:
REMARK  status: ('A' for Active; 'I' for Inactive)
REMARK    1  A    between atoms: C_1  and  O_2
REMARK    2  A    between atoms: O_2  and  C_3
REMARK    3  A    between atoms: C_6  and  C_7
REMARK    4  A    between atoms: C_11  and  C_12
REMARK    5  A    between atoms: C_12  and  N_13
REMARK    6  A    between atoms: C_17  and  C_18
REMARK                            x       y       z     vdW  Elec       q    Type
REMARK                         _______ _______ _______ _____ _____    ______ ____
ROOT
ATOM      1  C   UNL     1      49.072   7.213  16.808  0.00  0.00    +0.000 C 
ATOM      2  C   UNL     1      48.452   8.447  17.451  0.00  0.00    +0.000 C 
ATOM      3  C   UNL     1      49.917   8.208  17.582  0.00  0.00    +0.000 C 
ENDROOT
BRANCH   1   4
ATOM      4  N   UNL     1      48.810   5.880  17.388  0.00  0.00    +0.000 N 
ATOM      5  C   UNL     1      49.737   4.825  17.374  0.00  0.00    +0.000 A 
ATOM      6  C   UNL     1      51.110   5.001  17.538  0.00  0.00    +0.000 A 
ATOM      7  C   UNL     1      51.957   3.891  17.623  0.00  0.00    +0.000 A 
ATOM      8  C   UNL     1      51.416   2.615  17.530  0.00  0.00    +0.000 A 
ATOM      9  C   UNL     1      50.042   2.517  17.373  0.00  0.00    +0.000 A 
ATOM     10  N   UNL     1      49.203   3.586  17.292  0.00  0.00    +0.000 NA
ATOM     11  H   UNL     1      47.920   5.451  17.141  0.00  0.00    +0.000 HD
BRANCH   8  12
ATOM     12  C   UNL     1      52.232   1.388  17.632  0.00  0.00    +0.000 C 
ATOM     13  N   UNL     1      51.622   0.256  18.092  0.00  0.00    +0.000 N 
ATOM     14  O   UNL     1      53.424   1.387  17.337  0.00  0.00    +0.000 OA
ATOM     15  H   UNL     1      50.706   0.254  18.518  0.00  0.00    +0.000 HD
ATOM     16  H   UNL     1      52.208  -0.557  18.233  0.00  0.00    +0.000 HD
ENDBRANCH   8  12
ENDBRANCH   1   4
BRANCH   1  21
ATOM     17  C   UNL     1      47.972   6.604  13.165  0.00  0.00    +0.000 A 
ATOM     18  C   UNL     1      49.025   7.198  12.454  0.00  0.00    +0.000 A 
ATOM     19  C   UNL     1      50.089   7.796  13.127  0.00  0.00    +0.000 A 
ATOM     20  C   UNL     1      50.113   7.808  14.526  0.00  0.00    +0.000 A 
ATOM     21  C   UNL     1      49.080   7.226  15.278  0.00  0.00    +0.000 A 
ATOM     22  C   UNL     1      48.025   6.641  14.569  0.00  0.00    +0.000 A 
BRANCH  17  26
ATOM     23  C   UNL     1      44.679   4.609  11.397  0.00  0.00    +0.000 A 
ATOM     24  C   UNL     1      45.307   5.617  10.672  0.00  0.00    +0.000 A 
ATOM     25  C   UNL     1      46.393   6.293  11.227  0.00  0.00    +0.000 A 
ATOM     26  C   UNL     1      46.826   5.955  12.505  0.00  0.00    +0.000 A 
ATOM     27  N   UNL     1      46.231   4.962  13.217  0.00  0.00    +0.000 NA
ATOM     28  C   UNL     1      45.183   4.322  12.656  0.00  0.00    +0.000 A 
BRANCH  23  30
ATOM     29  C   UNL     1      43.337   2.702  11.755  0.00  0.00    +0.000 C 
ATOM     30  O   UNL     1      43.607   3.865  10.986  0.00  0.00    +0.000 OA
ENDBRANCH  23  30
ENDBRANCH  17  26
ENDBRANCH   1  21
TORSDOF 5
ENDMDL
MODEL 5
REMARK VINA RESULT:    -6.723      2.667      8.210
REMARK INTER + INTRA:          -9.590
REMARK INTER:                  -8.544
REMARK INTRA:                  -1.046
REMARK UNBOUND:                -0.901
REMARK  Name = 
REMARK  6 active torsions:
REMARK  status: ('A' for Active; 'I' for Inactive)
REMARK    1  A    between atoms: C_1  and  O_2
REMARK    2  A    between atoms: O_2  and  C_3
REMARK    3  A    between atoms: C_6  and  C_7
REMARK    4  A    between atoms: C_11  and  C_12
REMARK    5  A    between atoms: C_12  and  N_13
REMARK    6  A    between atoms: C_17  and  C_18
REMARK                            x       y       z     vdW  Elec       q    Type
REMARK                         _______ _______ _______ _____ _____    ______ ____
ROOT
ATOM      1  C   UNL     1      49.114   8.586  12.623  0.00  0.00    +0.000 C 
ATOM      2  C   UNL     1      49.877   9.322  11.529  0.00  0.00    +0.000 C 
ATOM      3  C   UNL     1      50.183   7.889  11.800  0.00  0.00    +0.000 C 
ENDROOT
BRANCH   1   4
ATOM      4  N   UNL     1      49.384   8.905  14.039  0.00  0.00    +0.000 N 
ATOM      5  C   UNL     1      48.980   8.095  15.114  0.00  0.00    +0.000 A 
ATOM      6  C   UNL     1      48.983   6.702  15.075  0.00  0.00    +0.000 A 
ATOM      7  C   UNL     1      48.673   5.965  16.222  0.00  0.00    +0.000 A 
ATOM      8  C   UNL     1      48.350   6.637  17.395  0.00  0.00    +0.000 A 
ATOM      9  C   UNL     1      48.374   8.022  17.361  0.00  0.00    +0.000 A 
ATOM     10  N   UNL     1      48.677   8.755  16.253  0.00  0.00    +0.000 NA
ATOM     11  H   UNL     1      49.170   9.857  14.333  0.00  0.00    +0.000 HD
BRANCH   8  12
ATOM     12  C   UNL     1      48.032   5.939  18.657  0.00  0.00    +0.000 C 
ATOM     13  N   UNL     1      46.718   5.692  18.932  0.00  0.00    +0.000 N 
ATOM     14  O   UNL     1      48.914   5.612  19.446  0.00  0.00    +0.000 OA
ATOM     15  H   UNL     1      45.955   6.103  18.412  0.00  0.00    +0.000 HD
ATOM     16  H   UNL     1      46.505   5.285  19.835  0.00  0.00    +0.000 HD
ENDBRANCH   8  12
ENDBRANCH   1   4
BRANCH   1  21
ATOM     17  C   UNL     1      45.875   6.819  11.510  0.00  0.00    +0.000 A 
ATOM     18  C   UNL     1      44.922   7.826  11.721  0.00  0.00    +0.000 A 
ATOM     19  C   UNL     1      45.303   9.072  12.220  0.00  0.00    +0.000 A 
ATOM     20  C   UNL     1      46.647   9.326  12.514  0.00  0.00    +0.000 A 
ATOM     21  C   UNL     1      47.634   8.346  12.318  0.00  0.00    +0.000 A 
ATOM     22  C   UNL     1      47.215   7.106  11.824  0.00  0.00    +0.000 A 
BRANCH  17  26
ATOM     23  C   UNL     1      44.889   3.060   9.824  0.00  0.00    +0.000 A 
ATOM     24  C   UNL     1      44.757   3.221  11.199  0.00  0.00    +0.000 A 
ATOM     25  C   UNL     1      45.075   4.447  11.784  0.00  0.00    +0.000 A 
ATOM     26  C   UNL     1      45.530   5.488  10.982  0.00  0.00    +0.000 A 
ATOM     27  N   UNL     1      45.648   5.348   9.636  0.00  0.00    +0.000 NA
ATOM     28  C   UNL     1      45.333   4.152   9.094  0.00  0.00    +0.000 A 
BRANCH  23  30
ATOM     29  C   UNL     1      45.714   1.378   8.390  0.00  0.00    +0.000 C 
ATOM     30  O   UNL     1      44.620   1.922   9.113  0.00  0.00    +0.000 OA
ENDBRANCH  23  30
ENDBRANCH  17  26
ENDBRANCH   1  21
TORSDOF 5
ENDMDL
