MODEL 1
REMARK VINA RESULT:    -8.300      0.000      0.000
REMARK INTER + INTRA:         -11.194
REMARK INTER:                 -10.484
REMARK INTRA:                  -0.710
REMARK UNBOUND:                -0.710
REMARK  Name = 
REMARK  5 active torsions:
REMARK  status: ('A' for Active; 'I' for Inactive)
REMARK    1  A    between atoms: C_2  and  C_4
REMARK    2  A    between atoms: N_8  and  C_9
REMARK    3  A    between atoms: C_9  and  C_10
REMARK    4  A    between atoms: C_13  and  C_14
REMARK    5  A    between atoms: C_14  and  O_15
REMARK                            x       y       z     vdW  Elec       q    Type
REMARK                         _______ _______ _______ _____ _____    ______ ____
ROOT
ATOM      1  C   UNL     1      46.579   2.733   7.492  0.00  0.00    +0.000 A 
ATOM      2  C   UNL     1      46.259   4.076   7.681  0.00  0.00    +0.000 A 
ATOM      3  C   UNL     1      45.391   4.433   8.709  0.00  0.00    +0.000 A 
ATOM      4  C   UNL     1      44.878   3.456   9.548  0.00  0.00    +0.000 A 
ATOM      5  N   UNL     1      43.938   3.722  10.548  0.00  0.00    +0.000 N 
ATOM      6  N   UNL     1      45.184   2.149   9.375  0.00  0.00    +0.000 NA
ATOM      7  C   UNL     1      46.010   1.814   8.347  0.00  0.00    +0.000 A 
ATOM      8  H   UNL     1      43.795   2.841  11.036  0.00  0.00    +0.000 HD
ENDROOT
BRANCH   1  10
ATOM      9  N   UNL     1      47.316   3.002   5.199  0.00  0.00    +0.000 N 
ATOM     10  C   UNL     1      47.433   2.297   6.363  0.00  0.00    +0.000 C 
ATOM     11  O   UNL     1      48.206   1.361   6.475  0.00  0.00    +0.000 OA
ATOM     12  H   UNL     1      47.897   2.721   4.421  0.00  0.00    +0.000 HD
ATOM     13  H   UNL     1      46.848   3.896   5.137  0.00  0.00    +0.000 HD
ENDBRANCH   1  10
BRANCH   5  14
ATOM     14  C   UNL     1      43.877   4.937  11.378  0.00  0.00    +0.000 C 
ATOM     15  C   UNL     1      42.555   5.093  12.126  0.00  0.00    +0.000 C 
ATOM     16  C   UNL     1      42.961   6.126  11.133  0.00  0.00    +0.000 C 
BRANCH  14  17
ATOM     17  C   UNL     1      45.169   5.269  12.114  0.00  0.00    +0.000 A 
ATOM     18  C   UNL     1      45.918   6.406  11.768  0.00  0.00    +0.000 A 
ATOM     19  C   UNL     1      47.022   6.809  12.522  0.00  0.00    +0.000 A 
ATOM     20  C   UNL     1      47.426   6.067  13.637  0.00  0.00    +0.000 A 
ATOM     21  C   UNL     1      46.719   4.904  13.964  0.00  0.00    +0.000 A 
ATOM     22  C   UNL     1      45.612   4.511  13.210  0.00  0.00    +0.000 A 
BRANCH  20  23
ATOM     23  C   UNL     1      48.608   6.488  14.466  0.00  0.00    +0.000 C 
BRANCH  23  24
ATOM     24  O   UNL     1      49.704   6.843  13.633  0.00  0.00    +0.000 OA
ATOM     25  H   UNL     1      50.383   6.158  13.754  0.00  0.00    +0.000 HD
ENDBRANCH  23  24
ENDBRANCH  20  23
ENDBRANCH  14  17
ENDBRANCH   5  14
TORSDOF 5
ENDMDL
MODEL 2
REMARK VINA RESULT:    -7.348      2.276      6.660
REMARK INTER + INTRA:          -9.992
REMARK INTER:                  -9.556
REMARK INTRA:                  -0.435
REMARK UNBOUND:                -0.710
REMARK  Name = 
REMARK  5 active torsions:
REMARK  status: ('A' for Active; 'I' for Inactive)
REMARK    1  A    between atoms: C_2  and  C_4
REMARK    2  A    between atoms: N_8  and  C_9
REMARK    3  A    between atoms: C_9  and  C_10
REMARK    4  A    between atoms: C_13  and  C_14
REMARK    5  A    between atoms: C_14  and  O_15
REMARK                            x       y       z     vdW  Elec       q    Type
REMARK                         _______ _______ _______ _____ _____    ______ ____
ROOT
ATOM      1  C   UNL     1      47.900   6.319  14.272  0.00  0.00    +0.000 A 
ATOM      2  C   UNL     1      47.144   5.163  14.447  0.00  0.00    +0.000 A 
ATOM      3  C   UNL     1      46.173   4.832  13.505  0.00  0.00    +0.000 A 
ATOM      4  C   UNL     1      45.991   5.638  12.392  0.00  0.00    +0.000 A 
ATOM      5  N   UNL     1      44.984   5.422  11.446  0.00  0.00    +0.000 N 
ATOM      6  N   UNL     1      46.722   6.762  12.210  0.00  0.00    +0.000 NA
ATOM      7  C   UNL     1      47.645   7.087  13.156  0.00  0.00    +0.000 A 
ATOM      8  H   UNL     1      45.130   6.121  10.722  0.00  0.00    +0.000 HD
ENDROOT
BRANCH   1  10
ATOM      9  N   UNL     1      48.384   7.300  16.434  0.00  0.00    +0.000 N 
ATOM     10  C   UNL     1      48.886   6.754  15.287  0.00  0.00    +0.000 C 
ATOM     11  O   UNL     1      50.086   6.621  15.108  0.00  0.00    +0.000 OA
ATOM     12  H   UNL     1      49.045   7.596  17.140  0.00  0.00    +0.000 HD
ATOM     13  H   UNL     1      47.411   7.234  16.699  0.00  0.00    +0.000 HD
ENDBRANCH   1  10
BRANCH   5  14
ATOM     14  C   UNL     1      44.494   4.110  10.989  0.00  0.00    +0.000 C 
ATOM     15  C   UNL     1      42.991   3.924  11.190  0.00  0.00    +0.000 C 
ATOM     16  C   UNL     1      43.942   3.015  11.889  0.00  0.00    +0.000 C 
BRANCH  14  17
ATOM     17  C   UNL     1      45.118   3.615   9.691  0.00  0.00    +0.000 A 
ATOM     18  C   UNL     1      45.647   4.524   8.759  0.00  0.00    +0.000 A 
ATOM     19  C   UNL     1      46.353   4.089   7.635  0.00  0.00    +0.000 A 
ATOM     20  C   UNL     1      46.528   2.722   7.396  0.00  0.00    +0.000 A 
ATOM     21  C   UNL     1      45.963   1.804   8.290  0.00  0.00    +0.000 A 
ATOM     22  C   UNL     1      45.266   2.247   9.415  0.00  0.00    +0.000 A 
BRANCH  20  23
ATOM     23  C   UNL     1      47.291   2.233   6.196  0.00  0.00    +0.000 C 
BRANCH  23  24
ATOM     24  O   UNL     1      48.672   2.546   6.318  0.00  0.00    +0.000 OA
ATOM     25  H   UNL     1      49.063   1.872   6.899  0.00  0.00    +0.000 HD
ENDBRANCH  23  24
ENDBRANCH  20  23
ENDBRANCH  14  17
ENDBRANCH   5  14
TORSDOF 5
ENDMDL
MODEL 3
REMARK VINA RESULT:    -6.367      2.931      6.701
REMARK INTER + INTRA:          -8.752
REMARK INTER:                  -8.694
REMARK INTRA:                  -0.058
REMARK UNBOUND:                -0.710
REMARK  Name = 
REMARK  5 active torsions:
REMARK  status: ('A' for Active; 'I' for Inactive)
REMARK    1  A    between atoms: C_2  and  C_4
REMARK    2  A    between atoms: N_8  and  C_9
REMARK    3  A    between atoms: C_9  and  C_10
REMARK    4  A    between atoms: C_13  and  C_14
REMARK    5  A    between atoms: C_14  and  O_15
REMARK                            x       y       z     vdW  Elec       q    Type
REMARK                         _______ _______ _______ _____ _____    ______ ____
ROOT
ATOM      1  C   UNL     1      45.197   9.147  11.879  0.00  0.00    +0.000 A 
ATOM      2  C   UNL     1      45.788   8.060  12.518  0.00  0.00    +0.000 A 
ATOM      3  C   UNL     1      45.271   6.783  12.313  0.00  0.00    +0.000 A 
ATOM      4  C   UNL     1      44.195   6.605  11.457  0.00  0.00    +0.000 A 
ATOM      5  N   UNL     1      43.567   5.371  11.263  0.00  0.00    +0.000 N 
ATOM      6  N   UNL     1      43.615   7.654  10.829  0.00  0.00    +0.000 NA
ATOM      7  C   UNL     1      44.113   8.898  11.064  0.00  0.00    +0.000 A 
ATOM      8  H   UNL     1      42.863   5.528  10.546  0.00  0.00    +0.000 HD
ENDROOT
BRANCH   1  10
ATOM      9  N   UNL     1      46.947  10.677  12.561  0.00  0.00    +0.000 N 
ATOM     10  C   UNL     1      45.660  10.531  12.129  0.00  0.00    +0.000 C 
ATOM     11  O   UNL     1      44.927  11.490  11.949  0.00  0.00    +0.000 OA
ATOM     12  H   UNL     1      47.281  11.617  12.731  0.00  0.00    +0.000 HD
ATOM     13  H   UNL     1      47.633   9.937  12.522  0.00  0.00    +0.000 HD
ENDBRANCH   1  10
BRANCH   5  14
ATOM     14  C   UNL     1      44.230   4.056  11.240  0.00  0.00    +0.000 C 
ATOM     15  C   UNL     1      43.383   2.941  11.849  0.00  0.00    +0.000 C 
ATOM     16  C   UNL     1      44.695   3.283  12.465  0.00  0.00    +0.000 C 
BRANCH  14  17
ATOM     17  C   UNL     1      45.010   3.759   9.966  0.00  0.00    +0.000 A 
ATOM     18  C   UNL     1      45.154   2.440   9.506  0.00  0.00    +0.000 A 
ATOM     19  C   UNL     1      45.736   2.158   8.268  0.00  0.00    +0.000 A 
ATOM     20  C   UNL     1      46.217   3.195   7.460  0.00  0.00    +0.000 A 
ATOM     21  C   UNL     1      46.125   4.511   7.929  0.00  0.00    +0.000 A 
ATOM     22  C   UNL     1      45.535   4.785   9.163  0.00  0.00    +0.000 A 
BRANCH  20  23
ATOM     23  C   UNL     1      46.840   2.913   6.121  0.00  0.00    +0.000 C 
BRANCH  23  24
ATOM     24  O   UNL     1      48.256   2.844   6.232  0.00  0.00    +0.000 OA
ATOM     25  H   UNL     1      48.453   2.544   7.135  0.00  0.00    +0.000 HD
ENDBRANCH  23  24
ENDBRANCH  20  23
ENDBRANCH  14  17
ENDBRANCH   5  14
TORSDOF 5
ENDMDL
MODEL 4
REMARK VINA RESULT:    -5.648      4.301      6.548
REMARK INTER + INTRA:          -7.844
REMARK INTER:                  -7.552
REMARK INTRA:                  -0.292
REMARK UNBOUND:                -0.710
REMARK  Name = 
REMARK  5 active torsions:
REMARK  status: ('A' for Active; 'I' for Inactive)
REMARK    1  A    between atoms: C_2  and  C_4
REMARK    2  A    between atoms: N_8  and  C_9
REMARK    3  A    between atoms: C_9  and  C_10
REMARK    4  A    between atoms: C_13  and  C_14
REMARK    5  A    between atoms: C_14  and  O_15
REMARK                            x       y       z     vdW  Elec       q    Type
REMARK                         _______ _______ _______ _____ _____    ______ ____
ROOT
ATOM      1  C   UNL     1      45.982   5.172  12.105  0.00  0.00    +0.000 A 
ATOM      2  C   UNL     1      46.786   6.158  12.674  0.00  0.00    +0.000 A 
ATOM      3  C   UNL     1      47.193   6.026  13.999  0.00  0.00    +0.000 A 
ATOM      4  C   UNL     1      46.819   4.907  14.726  0.00  0.00    +0.000 A 
ATOM      5  N   UNL     1      47.116   4.741  16.083  0.00  0.00    +0.000 N 
ATOM      6  N   UNL     1      46.041   3.943  14.183  0.00  0.00    +0.000 NA
ATOM      7  C   UNL     1      45.627   4.102  12.897  0.00  0.00    +0.000 A 
ATOM      8  H   UNL     1      46.778   3.814  16.329  0.00  0.00    +0.000 HD
ENDROOT
BRANCH   1  10
ATOM      9  N   UNL     1      44.230   4.764  10.483  0.00  0.00    +0.000 N 
ATOM     10  C   UNL     1      45.458   5.308  10.727  0.00  0.00    +0.000 C 
ATOM     11  O   UNL     1      46.091   5.886   9.859  0.00  0.00    +0.000 OA
ATOM     12  H   UNL     1      43.855   4.854   9.547  0.00  0.00    +0.000 HD
ATOM     13  H   UNL     1      43.599   4.467  11.214  0.00  0.00    +0.000 HD
ENDBRANCH   1  10
BRANCH   5  14
ATOM     14  C   UNL     1      48.349   5.179  16.759  0.00  0.00    +0.000 C 
ATOM     15  C   UNL     1      48.091   6.099  17.950  0.00  0.00    +0.000 C 
ATOM     16  C   UNL     1      48.876   6.606  16.790  0.00  0.00    +0.000 C 
BRANCH  14  17
ATOM     17  C   UNL     1      49.418   4.102  16.894  0.00  0.00    +0.000 A 
ATOM     18  C   UNL     1      50.707   4.426  17.348  0.00  0.00    +0.000 A 
ATOM     19  C   UNL     1      51.655   3.436  17.619  0.00  0.00    +0.000 A 
ATOM     20  C   UNL     1      51.346   2.087  17.418  0.00  0.00    +0.000 A 
ATOM     21  C   UNL     1      50.081   1.754  16.918  0.00  0.00    +0.000 A 
ATOM     22  C   UNL     1      49.137   2.747  16.657  0.00  0.00    +0.000 A 
BRANCH  20  23
ATOM     23  C   UNL     1      52.349   1.006  17.710  0.00  0.00    +0.000 C 
BRANCH  23  24
ATOM     24  O   UNL     1      51.735  -0.077  18.395  0.00  0.00    +0.000 OA
ATOM     25  H   UNL     1      52.222  -0.196  19.228  0.00  0.00    +0.000 HD
ENDBRANCH  23  24
ENDBRANCH  20  23
ENDBRANCH  14  17
ENDBRANCH   5  14
TORSDOF 5
ENDMDL
MODEL 5
REMARK VINA RESULT:    -5.604      5.557      7.684
REMARK INTER + INTRA:          -7.789
REMARK INTER:                  -7.045
REMARK INTRA:                  -0.744
REMARK UNBOUND:                -0.710
REMARK  Name = 
REMARK  5 active torsions:
REMARK  status: ('A' for Active; 'I' for Inactive)
REMARK    1  A    between atoms: C_2  and  C_4
REMARK    2  A    between atoms: N_8  and  C_9
REMARK    3  A    between atoms: C_9  and  C_10
REMARK    4  A    between atoms: C_13  and  C_14
REMARK    5  A    between atoms: C_14  and  O_15
REMARK                            x       y       z     vdW  Elec       q    Type
REMARK                         _______ _______ _______ _____ _____    ______ ____
ROOT
ATOM      1  C   UNL     1      49.571   7.472  12.890  0.00  0.00    +0.000 A 
ATOM      2  C   UNL     1      50.127   7.765  14.133  0.00  0.00    +0.000 A 
ATOM      3  C   UNL     1      49.567   7.209  15.280  0.00  0.00    +0.000 A 
ATOM      4  C   UNL     1      48.483   6.351  15.171  0.00  0.00    +0.000 A 
ATOM      5  N   UNL     1      47.813   5.819  16.277  0.00  0.00    +0.000 N 
ATOM      6  N   UNL     1      47.937   6.057  13.969  0.00  0.00    +0.000 NA
ATOM      7  C   UNL     1      48.478   6.633  12.860  0.00  0.00    +0.000 A 
ATOM      8  H   UNL     1      47.114   5.185  15.898  0.00  0.00    +0.000 HD
ENDROOT
BRANCH   1  10
ATOM      9  N   UNL     1      51.192   7.541  11.091  0.00  0.00    +0.000 N 
ATOM     10  C   UNL     1      50.081   8.103  11.651  0.00  0.00    +0.000 C 
ATOM     11  O   UNL     1      49.528   9.071  11.155  0.00  0.00    +0.000 OA
ATOM     12  H   UNL     1      51.550   7.957  10.240  0.00  0.00    +0.000 HD
ATOM     13  H   UNL     1      51.546   6.632  11.353  0.00  0.00    +0.000 HD
ENDBRANCH   1  10
BRANCH   5  14
ATOM     14  C   UNL     1      48.432   5.412  17.550  0.00  0.00    +0.000 C 
ATOM     15  C   UNL     1      47.445   5.370  18.715  0.00  0.00    +0.000 C 
ATOM     16  C   UNL     1      48.604   6.305  18.770  0.00  0.00    +0.000 C 
BRANCH  14  17
ATOM     17  C   UNL     1      49.458   4.292  17.429  0.00  0.00    +0.000 A 
ATOM     18  C   UNL     1      50.798   4.509  17.789  0.00  0.00    +0.000 A 
ATOM     19  C   UNL     1      51.722   3.461  17.826  0.00  0.00    +0.000 A 
ATOM     20  C   UNL     1      51.333   2.164  17.477  0.00  0.00    +0.000 A 
ATOM     21  C   UNL     1      50.012   1.944  17.069  0.00  0.00    +0.000 A 
ATOM     22  C   UNL     1      49.094   2.993  17.041  0.00  0.00    +0.000 A 
BRANCH  20  23
ATOM     23  C   UNL     1      52.310   1.021  17.517  0.00  0.00    +0.000 C 
BRANCH  23  24
ATOM     24  O   UNL     1      51.834  -0.016  18.365  0.00  0.00    +0.000 OA
ATOM     25  H   UNL     1      51.588  -0.759  17.789  0.00  0.00    +0.000 HD
ENDBRANCH  23  24
ENDBRANCH  20  23
ENDBRANCH  14  17
ENDBRANCH   5  14
TORSDOF 5
ENDMDL
MODEL 6
REMARK VINA RESULT:    -5.314      5.131      8.651
REMARK INTER + INTRA:          -7.422
REMARK INTER:                  -6.734
REMARK INTRA:                  -0.688
REMARK UNBOUND:                -0.710
REMARK  Name = 
REMARK  5 active torsions:
REMARK  status: ('A' for Active; 'I' for Inactive)
REMARK    1  A    between atoms: C_2  and  C_4
REMARK    2  A    between atoms: N_8  and  C_9
REMARK    3  A    between atoms: C_9  and  C_10
REMARK    4  A    between atoms: C_13  and  C_14
REMARK    5  A    between atoms: C_14  and  O_15
REMARK                            x       y       z     vdW  Elec       q    Type
REMARK                         _______ _______ _______ _____ _____    ______ ____
ROOT
ATOM      1  C   UNL     1      49.136   7.498  17.924  0.00  0.00    +0.000 A 
ATOM      2  C   UNL     1      48.587   8.471  17.093  0.00  0.00    +0.000 A 
ATOM      3  C   UNL     1      48.685   8.324  15.711  0.00  0.00    +0.000 A 
ATOM      4  C   UNL     1      49.303   7.202  15.181  0.00  0.00    +0.000 A 
ATOM      5  N   UNL     1      49.516   7.020  13.811  0.00  0.00    +0.000 N 
ATOM      6  N   UNL     1      49.838   6.249  15.979  0.00  0.00    +0.000 NA
ATOM      7  C   UNL     1      49.759   6.424  17.327  0.00  0.00    +0.000 A 
ATOM      8  H   UNL     1      49.925   6.095  13.714  0.00  0.00    +0.000 HD
ENDROOT
BRANCH   1  10
ATOM      9  N   UNL     1      49.108   6.500  20.132  0.00  0.00    +0.000 N 
ATOM     10  C   UNL     1      49.127   7.651  19.397  0.00  0.00    +0.000 C 
ATOM     11  O   UNL     1      49.145   8.752  19.923  0.00  0.00    +0.000 OA
ATOM     12  H   UNL     1      49.108   6.588  21.140  0.00  0.00    +0.000 HD
ATOM     13  H   UNL     1      49.300   5.589  19.741  0.00  0.00    +0.000 HD
ENDBRANCH   1  10
BRANCH   5  14
ATOM     14  C   UNL     1      48.607   7.442  12.730  0.00  0.00    +0.000 C 
ATOM     15  C   UNL     1      49.329   7.749  11.420  0.00  0.00    +0.000 C 
ATOM     16  C   UNL     1      48.565   8.828  12.107  0.00  0.00    +0.000 C 
BRANCH  14  17
ATOM     17  C   UNL     1      47.292   6.675  12.671  0.00  0.00    +0.000 A 
ATOM     18  C   UNL     1      47.220   5.345  13.116  0.00  0.00    +0.000 A 
ATOM     19  C   UNL     1      45.999   4.672  13.207  0.00  0.00    +0.000 A 
ATOM     20  C   UNL     1      44.811   5.308  12.829  0.00  0.00    +0.000 A 
ATOM     21  C   UNL     1      44.876   6.617  12.337  0.00  0.00    +0.000 A 
ATOM     22  C   UNL     1      46.098   7.285  12.255  0.00  0.00    +0.000 A 
BRANCH  20  23
ATOM     23  C   UNL     1      43.486   4.604  12.927  0.00  0.00    +0.000 C 
BRANCH  23  24
ATOM     24  O   UNL     1      42.512   5.449  13.525  0.00  0.00    +0.000 OA
ATOM     25  H   UNL     1      41.718   4.906  13.666  0.00  0.00    +0.000 HD
ENDBRANCH  23  24
ENDBRANCH  20  23
ENDBRANCH  14  17
ENDBRANCH   5  14
TORSDOF 5
ENDMDL
