MODEL 1
REMARK VINA RESULT:    -8.843      0.000      0.000
REMARK INTER + INTRA:         -11.663
REMARK INTER:                 -11.428
REMARK INTRA:                  -0.235
REMARK UNBOUND:                -0.235
REMARK  Name = 
REMARK  6 active torsions:
REMARK  status: ('A' for Active; 'I' for Inactive)
REMARK    1  A    between atoms: C_1  and  C_2
REMARK    2  A    between atoms: C_2  and  N_3
REMARK    3  A    between atoms: C_2  and  C_16
REMARK    4  A    between atoms: C_4  and  C_6
REMARK    5  A    between atoms: C_19  and  C_20
REMARK    6  A    between atoms: C_20  and  C_21
REMARK                            x       y       z     vdW  Elec       q    Type
REMARK                         _______ _______ _______ _____ _____    ______ ____
ROOT
ATOM      1  C   UNL     1      46.335   8.698  11.809  0.00  0.00    +0.000 C 
ATOM      2  C   UNL     1      45.647   7.591  12.612  0.00  0.00    +0.000 C 
ENDROOT
BRANCH   2   3
ATOM      3  C   UNL     1      45.318   6.340  11.809  0.00  0.00    +0.000 A 
ATOM      4  C   UNL     1      45.867   6.206  10.524  0.00  0.00    +0.000 A 
ATOM      5  C   UNL     1      45.611   5.075   9.746  0.00  0.00    +0.000 A 
ATOM      6  C   UNL     1      44.805   4.038  10.234  0.00  0.00    +0.000 A 
ATOM      7  C   UNL     1      44.221   4.184  11.498  0.00  0.00    +0.000 A 
ATOM      8  C   UNL     1      44.461   5.329  12.267  0.00  0.00    +0.000 A 
BRANCH   6   9
ATOM      9  C   UNL     1      44.568   2.793   9.408  0.00  0.00    +0.000 C 
BRANCH   9  10
ATOM     10  C   UNL     1      45.595   2.503   8.332  0.00  0.00    +0.000 A 
ATOM     11  C   UNL     1      45.785   3.374   7.259  0.00  0.00    +0.000 A 
ATOM     12  C   UNL     1      46.646   3.006   6.227  0.00  0.00    +0.000 A 
ATOM     13  C   UNL     1      47.297   1.784   6.287  0.00  0.00    +0.000 A 
ATOM     14  C   UNL     1      47.069   0.979   7.390  0.00  0.00    +0.000 A 
ATOM     15  N   UNL     1      46.236   1.308   8.405  0.00  0.00    +0.000 NA
ENDBRANCH   9  10
ENDBRANCH   6   9
ENDBRANCH   2   3
BRANCH   2  16
ATOM     16  N   UNL     1      46.449   7.221  13.760  0.00  0.00    +0.000 N 
ATOM     17  C   UNL     1      47.758   6.825  13.655  0.00  0.00    +0.000 C 
ATOM     18  O   UNL     1      48.389   6.883  12.606  0.00  0.00    +0.000 OA
ATOM     19  H   UNL     1      45.933   7.012  14.607  0.00  0.00    +0.000 HD
BRANCH  17  20
ATOM     20  C   UNL     1      48.386   6.381  14.906  0.00  0.00    +0.000 A 
ATOM     21  C   UNL     1      49.456   7.084  15.439  0.00  0.00    +0.000 A 
ATOM     22  S   UNL     1      50.032   6.434  16.908  0.00  0.00    +0.000 S 
ATOM     23  C   UNL     1      48.909   5.155  16.845  0.00  0.00    +0.000 A 
ATOM     24  N   UNL     1      48.888   4.193  17.807  0.00  0.00    +0.000 NA
ATOM     25  C   UNL     1      48.016   3.261  17.610  0.00  0.00    +0.000 A 
ATOM     26  N   UNL     1      47.156   3.209  16.542  0.00  0.00    +0.000 N 
ATOM     27  C   UNL     1      47.106   4.186  15.578  0.00  0.00    +0.000 A 
ATOM     28  O   UNL     1      46.264   4.153  14.686  0.00  0.00    +0.000 OA
ATOM     29  C   UNL     1      48.089   5.240  15.736  0.00  0.00    +0.000 A 
ATOM     30  H   UNL     1      46.481   2.463  16.457  0.00  0.00    +0.000 HD
ENDBRANCH  17  20
ENDBRANCH   2  16
TORSDOF 5
ENDMDL
MODEL 2
REMARK VINA RESULT:    -8.265      1.648      2.081
REMARK INTER + INTRA:         -10.916
REMARK INTER:                  -9.750
REMARK INTRA:                  -1.166
REMARK UNBOUND:                -0.235
REMARK  Name = 
REMARK  6 active torsions:
REMARK  status: ('A' for Active; 'I' for Inactive)
REMARK    1  A    between atoms: C_1  and  C_2
REMARK    2  A    between atoms: C_2  and  N_3
REMARK    3  A    between atoms: C_2  and  C_16
REMARK    4  A    between atoms: C_4  and  C_6
REMARK    5  A    between atoms: C_19  and  C_20
REMARK    6  A    between atoms: C_20  and  C_21
REMARK                            x       y       z     vdW  Elec       q    Type
REMARK                         _______ _______ _______ _____ _____    ______ ____
ROOT
ATOM      1  C   UNL     1      48.116   8.836  12.842  0.00  0.00    +0.000 C 
ATOM      2  C   UNL     1      47.308   7.796  13.624  0.00  0.00    +0.000 C 
ENDROOT
BRANCH   2   3
ATOM      3  C   UNL     1      46.482   6.856  12.757  0.00  0.00    +0.000 A 
ATOM      4  C   UNL     1      45.685   7.409  11.742  0.00  0.00    +0.000 A 
ATOM      5  C   UNL     1      44.916   6.596  10.907  0.00  0.00    +0.000 A 
ATOM      6  C   UNL     1      44.928   5.203  11.055  0.00  0.00    +0.000 A 
ATOM      7  C   UNL     1      45.689   4.648  12.091  0.00  0.00    +0.000 A 
ATOM      8  C   UNL     1      46.442   5.467  12.941  0.00  0.00    +0.000 A 
BRANCH   6   9
ATOM      9  C   UNL     1      44.131   4.321  10.118  0.00  0.00    +0.000 C 
BRANCH   9  10
ATOM     10  C   UNL     1      44.932   3.556   9.084  0.00  0.00    +0.000 A 
ATOM     11  C   UNL     1      45.129   2.179   9.193  0.00  0.00    +0.000 A 
ATOM     12  C   UNL     1      45.977   1.539   8.292  0.00  0.00    +0.000 A 
ATOM     13  C   UNL     1      46.609   2.281   7.307  0.00  0.00    +0.000 A 
ATOM     14  C   UNL     1      46.355   3.640   7.253  0.00  0.00    +0.000 A 
ATOM     15  N   UNL     1      45.539   4.290   8.115  0.00  0.00    +0.000 NA
ENDBRANCH   9  10
ENDBRANCH   6   9
ENDBRANCH   2   3
BRANCH   2  16
ATOM     16  N   UNL     1      48.176   7.013  14.479  0.00  0.00    +0.000 N 
ATOM     17  C   UNL     1      48.685   7.493  15.659  0.00  0.00    +0.000 C 
ATOM     18  O   UNL     1      48.339   8.563  16.146  0.00  0.00    +0.000 OA
ATOM     19  H   UNL     1      48.604   6.203  14.047  0.00  0.00    +0.000 HD
BRANCH  17  20
ATOM     20  C   UNL     1      49.635   6.608  16.344  0.00  0.00    +0.000 A 
ATOM     21  C   UNL     1      50.920   7.047  16.628  0.00  0.00    +0.000 A 
ATOM     22  S   UNL     1      51.866   5.890  17.452  0.00  0.00    +0.000 S 
ATOM     23  C   UNL     1      50.609   4.742  17.397  0.00  0.00    +0.000 A 
ATOM     24  N   UNL     1      50.777   3.493  17.909  0.00  0.00    +0.000 NA
ATOM     25  C   UNL     1      49.758   2.714  17.760  0.00  0.00    +0.000 A 
ATOM     26  N   UNL     1      48.581   3.074  17.154  0.00  0.00    +0.000 N 
ATOM     27  C   UNL     1      48.348   4.339  16.673  0.00  0.00    +0.000 A 
ATOM     28  O   UNL     1      47.253   4.653  16.218  0.00  0.00    +0.000 OA
ATOM     29  C   UNL     1      49.476   5.245  16.787  0.00  0.00    +0.000 A 
ATOM     30  H   UNL     1      47.812   2.423  17.088  0.00  0.00    +0.000 HD
ENDBRANCH  17  20
ENDBRANCH   2  16
TORSDOF 5
ENDMDL
MODEL 3
REMARK VINA RESULT:    -8.045      1.518      2.237
REMARK INTER + INTRA:         -10.632
REMARK INTER:                 -10.385
REMARK INTRA:                  -0.247
REMARK UNBOUND:                -0.235
REMARK  Name = 
REMARK  6 active torsions:
REMARK  status: ('A' for Active; 'I' for Inactive)
REMARK    1  A    between atoms: C_1  and  C_2
REMARK    2  A    between atoms: C_2  and  N_3
REMARK    3  A    between atoms: C_2  and  C_16
REMARK    4  A    between atoms: C_4  and  C_6
REMARK    5  A    between atoms: C_19  and  C_20
REMARK    6  A    between atoms: C_20  and  C_21
REMARK                            x       y       z     vdW  Elec       q    Type
REMARK                         _______ _______ _______ _____ _____    ______ ____
ROOT
ATOM      1  C   UNL     1      46.144   7.741  12.302  0.00  0.00    +0.000 C 
ATOM      2  C   UNL     1      45.343   6.555  12.848  0.00  0.00    +0.000 C 
ENDROOT
BRANCH   2   3
ATOM      3  C   UNL     1      45.101   5.440  11.841  0.00  0.00    +0.000 A 
ATOM      4  C   UNL     1      45.504   5.640  10.511  0.00  0.00    +0.000 A 
ATOM      5  C   UNL     1      45.320   4.648   9.546  0.00  0.00    +0.000 A 
ATOM      6  C   UNL     1      44.735   3.420   9.884  0.00  0.00    +0.000 A 
ATOM      7  C   UNL     1      44.295   3.229  11.199  0.00  0.00    +0.000 A 
ATOM      8  C   UNL     1      44.460   4.235  12.160  0.00  0.00    +0.000 A 
BRANCH   6   9
ATOM      9  C   UNL     1      44.581   2.329   8.847  0.00  0.00    +0.000 C 
BRANCH   9  10
ATOM     10  C   UNL     1      45.678   2.242   7.805  0.00  0.00    +0.000 A 
ATOM     11  C   UNL     1      46.668   1.262   7.876  0.00  0.00    +0.000 A 
ATOM     12  C   UNL     1      47.728   1.297   6.972  0.00  0.00    +0.000 A 
ATOM     13  C   UNL     1      47.778   2.304   6.021  0.00  0.00    +0.000 A 
ATOM     14  C   UNL     1      46.753   3.233   6.004  0.00  0.00    +0.000 A 
ATOM     15  N   UNL     1      45.713   3.226   6.870  0.00  0.00    +0.000 NA
ENDBRANCH   9  10
ENDBRANCH   6   9
ENDBRANCH   2   3
BRANCH   2  16
ATOM     16  N   UNL     1      45.987   6.004  14.023  0.00  0.00    +0.000 N 
ATOM     17  C   UNL     1      47.268   5.514  14.006  0.00  0.00    +0.000 C 
ATOM     18  O   UNL     1      48.011   5.627  13.039  0.00  0.00    +0.000 OA
ATOM     19  H   UNL     1      45.368   5.752  14.784  0.00  0.00    +0.000 HD
BRANCH  17  20
ATOM     20  C   UNL     1      47.723   4.893  15.257  0.00  0.00    +0.000 A 
ATOM     21  C   UNL     1      47.430   3.563  15.523  0.00  0.00    +0.000 A 
ATOM     22  S   UNL     1      48.066   3.013  17.008  0.00  0.00    +0.000 S 
ATOM     23  C   UNL     1      48.697   4.553  17.371  0.00  0.00    +0.000 A 
ATOM     24  N   UNL     1      49.348   4.784  18.543  0.00  0.00    +0.000 NA
ATOM     25  C   UNL     1      49.735   6.006  18.704  0.00  0.00    +0.000 A 
ATOM     26  N   UNL     1      49.538   7.015  17.796  0.00  0.00    +0.000 N 
ATOM     27  C   UNL     1      48.935   6.814  16.579  0.00  0.00    +0.000 A 
ATOM     28  O   UNL     1      48.855   7.718  15.754  0.00  0.00    +0.000 OA
ATOM     29  C   UNL     1      48.453   5.463  16.361  0.00  0.00    +0.000 A 
ATOM     30  H   UNL     1      49.884   7.947  17.974  0.00  0.00    +0.000 HD
ENDBRANCH  17  20
ENDBRANCH   2  16
TORSDOF 5
ENDMDL
MODEL 4
REMARK VINA RESULT:    -7.784      2.171      2.860
REMARK INTER + INTRA:         -10.294
REMARK INTER:                  -9.328
REMARK INTRA:                  -0.965
REMARK UNBOUND:                -0.235
REMARK  Name = 
REMARK  6 active torsions:
REMARK  status: ('A' for Active; 'I' for Inactive)
REMARK    1  A    between atoms: C_1  and  C_2
REMARK    2  A    between atoms: C_2  and  N_3
REMARK    3  A    between atoms: C_2  and  C_16
REMARK    4  A    between atoms: C_4  and  C_6
REMARK    5  A    between atoms: C_19  and  C_20
REMARK    6  A    between atoms: C_20  and  C_21
REMARK                            x       y       z     vdW  Elec       q    Type
REMARK                         _______ _______ _______ _____ _____    ______ ____
ROOT
ATOM      1  C   UNL     1      49.394   8.037  13.184  0.00  0.00    +0.000 C 
ATOM      2  C   UNL     1      47.944   8.088  13.677  0.00  0.00    +0.000 C 
ENDROOT
BRANCH   2   3
ATOM      3  C   UNL     1      46.986   7.186  12.913  0.00  0.00    +0.000 A 
ATOM      4  C   UNL     1      46.120   7.770  11.975  0.00  0.00    +0.000 A 
ATOM      5  C   UNL     1      45.228   6.991  11.235  0.00  0.00    +0.000 A 
ATOM      6  C   UNL     1      45.181   5.601  11.404  0.00  0.00    +0.000 A 
ATOM      7  C   UNL     1      46.013   5.017  12.367  0.00  0.00    +0.000 A 
ATOM      8  C   UNL     1      46.891   5.803  13.124  0.00  0.00    +0.000 A 
BRANCH   6   9
ATOM      9  C   UNL     1      44.248   4.754  10.567  0.00  0.00    +0.000 C 
BRANCH   9  10
ATOM     10  C   UNL     1      44.901   3.915   9.487  0.00  0.00    +0.000 A 
ATOM     11  C   UNL     1      44.929   2.523   9.568  0.00  0.00    +0.000 A 
ATOM     12  C   UNL     1      45.650   1.799   8.621  0.00  0.00    +0.000 A 
ATOM     13  C   UNL     1      46.325   2.475   7.617  0.00  0.00    +0.000 A 
ATOM     14  C   UNL     1      46.241   3.856   7.594  0.00  0.00    +0.000 A 
ATOM     15  N   UNL     1      45.552   4.586   8.501  0.00  0.00    +0.000 NA
ENDBRANCH   9  10
ENDBRANCH   6   9
ENDBRANCH   2   3
BRANCH   2  16
ATOM     16  N   UNL     1      47.875   7.769  15.088  0.00  0.00    +0.000 N 
ATOM     17  C   UNL     1      48.410   8.577  16.059  0.00  0.00    +0.000 C 
ATOM     18  O   UNL     1      48.866   9.690  15.822  0.00  0.00    +0.000 OA
ATOM     19  H   UNL     1      47.653   6.806  15.310  0.00  0.00    +0.000 HD
BRANCH  17  20
ATOM     20  C   UNL     1      48.347   8.047  17.427  0.00  0.00    +0.000 A 
ATOM     21  C   UNL     1      47.946   8.864  18.474  0.00  0.00    +0.000 A 
ATOM     22  S   UNL     1      47.907   8.065  19.982  0.00  0.00    +0.000 S 
ATOM     23  C   UNL     1      48.487   6.619  19.292  0.00  0.00    +0.000 A 
ATOM     24  N   UNL     1      48.718   5.520  20.059  0.00  0.00    +0.000 NA
ATOM     25  C   UNL     1      49.197   4.510  19.413  0.00  0.00    +0.000 A 
ATOM     26  N   UNL     1      49.457   4.496  18.066  0.00  0.00    +0.000 N 
ATOM     27  C   UNL     1      49.187   5.563  17.245  0.00  0.00    +0.000 A 
ATOM     28  O   UNL     1      49.349   5.486  16.031  0.00  0.00    +0.000 OA
ATOM     29  C   UNL     1      48.677   6.737  17.929  0.00  0.00    +0.000 A 
ATOM     30  H   UNL     1      49.812   3.665  17.615  0.00  0.00    +0.000 HD
ENDBRANCH  17  20
ENDBRANCH   2  16
TORSDOF 5
ENDMDL
MODEL 5
REMARK VINA RESULT:    -7.637      3.744      4.380
REMARK INTER + INTRA:         -10.104
REMARK INTER:                  -9.208
REMARK INTRA:                  -0.896
REMARK UNBOUND:                -0.235
REMARK  Name = 
REMARK  6 active torsions:
REMARK  status: ('A' for Active; 'I' for Inactive)
REMARK    1  A    between atoms: C_1  and  C_2
REMARK    2  A    between atoms: C_2  and  N_3
REMARK    3  A    between atoms: C_2  and  C_16
REMARK    4  A    between atoms: C_4  and  C_6
REMARK    5  A    between atoms: C_19  and  C_20
REMARK    6  A    between atoms: C_20  and  C_21
REMARK                            x       y       z     vdW  Elec       q    Type
REMARK                         _______ _______ _______ _____ _____    ______ ____
ROOT
ATOM      1  C   UNL     1      44.333   9.426  12.122  0.00  0.00    +0.000 C 
ATOM      2  C   UNL     1      45.353   8.299  12.314  0.00  0.00    +0.000 C 
ENDROOT
BRANCH   2   3
ATOM      3  C   UNL     1      45.015   7.010  11.580  0.00  0.00    +0.000 A 
ATOM      4  C   UNL     1      46.016   6.394  10.812  0.00  0.00    +0.000 A 
ATOM      5  C   UNL     1      45.769   5.203  10.127  0.00  0.00    +0.000 A 
ATOM      6  C   UNL     1      44.514   4.585  10.196  0.00  0.00    +0.000 A 
ATOM      7  C   UNL     1      43.499   5.214  10.927  0.00  0.00    +0.000 A 
ATOM      8  C   UNL     1      43.743   6.420  11.595  0.00  0.00    +0.000 A 
BRANCH   6   9
ATOM      9  C   UNL     1      44.262   3.269   9.492  0.00  0.00    +0.000 C 
BRANCH   9  10
ATOM     10  C   UNL     1      45.345   2.810   8.536  0.00  0.00    +0.000 A 
ATOM     11  C   UNL     1      45.758   3.610   7.470  0.00  0.00    +0.000 A 
ATOM     12  C   UNL     1      46.662   3.097   6.543  0.00  0.00    +0.000 A 
ATOM     13  C   UNL     1      47.132   1.802   6.696  0.00  0.00    +0.000 A 
ATOM     14  C   UNL     1      46.688   1.073   7.785  0.00  0.00    +0.000 A 
ATOM     15  N   UNL     1      45.808   1.544   8.700  0.00  0.00    +0.000 NA
ENDBRANCH   9  10
ENDBRANCH   6   9
ENDBRANCH   2   3
BRANCH   2  16
ATOM     16  N   UNL     1      46.676   8.737  11.922  0.00  0.00    +0.000 N 
ATOM     17  C   UNL     1      47.570   9.285  12.806  0.00  0.00    +0.000 C 
ATOM     18  O   UNL     1      47.372   9.321  14.015  0.00  0.00    +0.000 OA
ATOM     19  H   UNL     1      46.818   8.869  10.927  0.00  0.00    +0.000 HD
BRANCH  17  20
ATOM     20  C   UNL     1      48.822   9.775  12.217  0.00  0.00    +0.000 A 
ATOM     21  C   UNL     1      49.036  11.137  12.063  0.00  0.00    +0.000 A 
ATOM     22  S   UNL     1      50.558  11.513  11.389  0.00  0.00    +0.000 S 
ATOM     23  C   UNL     1      50.953   9.864  11.223  0.00  0.00    +0.000 A 
ATOM     24  N   UNL     1      52.133   9.479  10.666  0.00  0.00    +0.000 NA
ATOM     25  C   UNL     1      52.281   8.200  10.564  0.00  0.00    +0.000 A 
ATOM     26  N   UNL     1      51.360   7.271  10.976  0.00  0.00    +0.000 N 
ATOM     27  C   UNL     1      50.181   7.613  11.592  0.00  0.00    +0.000 A 
ATOM     28  O   UNL     1      49.421   6.755  12.028  0.00  0.00    +0.000 OA
ATOM     29  C   UNL     1      49.951   9.042  11.702  0.00  0.00    +0.000 A 
ATOM     30  H   UNL     1      51.545   6.282  10.886  0.00  0.00    +0.000 HD
ENDBRANCH  17  20
ENDBRANCH   2  16
TORSDOF 5
ENDMDL
MODEL 6
REMARK VINA RESULT:    -7.503      3.570      7.859
REMARK INTER + INTRA:          -9.932
REMARK INTER:                  -8.737
REMARK INTRA:                  -1.194
REMARK UNBOUND:                -0.235
REMARK  Name = 
REMARK  6 active torsions:
REMARK  status: ('A' for Active; 'I' for Inactive)
REMARK    1  A    between atoms: C_1  and  C_2
REMARK    2  A    between atoms: C_2  and  N_3
REMARK    3  A    between atoms: C_2  and  C_16
REMARK    4  A    between atoms: C_4  and  C_6
REMARK    5  A    between atoms: C_19  and  C_20
REMARK    6  A    between atoms: C_20  and  C_21
REMARK                            x       y       z     vdW  Elec       q    Type
REMARK                         _______ _______ _______ _____ _____    ______ ____
ROOT
ATOM      1  C   UNL     1      48.194   9.114  14.718  0.00  0.00    +0.000 C 
ATOM      2  C   UNL     1      48.445   7.666  14.290  0.00  0.00    +0.000 C 
ENDROOT
BRANCH   2   3
ATOM      3  C   UNL     1      49.002   6.770  15.387  0.00  0.00    +0.000 A 
ATOM      4  C   UNL     1      50.344   6.928  15.765  0.00  0.00    +0.000 A 
ATOM      5  C   UNL     1      50.907   6.144  16.774  0.00  0.00    +0.000 A 
ATOM      6  C   UNL     1      50.139   5.183  17.444  0.00  0.00    +0.000 A 
ATOM      7  C   UNL     1      48.810   4.992  17.046  0.00  0.00    +0.000 A 
ATOM      8  C   UNL     1      48.256   5.764  16.018  0.00  0.00    +0.000 A 
BRANCH   6   9
ATOM      9  C   UNL     1      50.736   4.368  18.571  0.00  0.00    +0.000 C 
BRANCH   9  10
ATOM     10  C   UNL     1      51.615   3.205  18.156  0.00  0.00    +0.000 A 
ATOM     11  C   UNL     1      51.079   2.077  17.533  0.00  0.00    +0.000 A 
ATOM     12  C   UNL     1      51.901   0.980  17.286  0.00  0.00    +0.000 A 
ATOM     13  C   UNL     1      53.234   1.029  17.663  0.00  0.00    +0.000 A 
ATOM     14  C   UNL     1      53.697   2.186  18.264  0.00  0.00    +0.000 A 
ATOM     15  N   UNL     1      52.922   3.266  18.520  0.00  0.00    +0.000 NA
ENDBRANCH   9  10
ENDBRANCH   6   9
ENDBRANCH   2   3
BRANCH   2  16
ATOM     16  N   UNL     1      47.234   7.073  13.761  0.00  0.00    +0.000 N 
ATOM     17  C   UNL     1      46.999   6.940  12.416  0.00  0.00    +0.000 C 
ATOM     18  O   UNL     1      47.846   7.184  11.565  0.00  0.00    +0.000 OA
ATOM     19  H   UNL     1      46.459   7.006  14.410  0.00  0.00    +0.000 HD
BRANCH  17  20
ATOM     20  C   UNL     1      45.674   6.419  12.055  0.00  0.00    +0.000 A 
ATOM     21  C   UNL     1      44.704   7.271  11.546  0.00  0.00    +0.000 A 
ATOM     22  S   UNL     1      43.242   6.479  11.159  0.00  0.00    +0.000 S 
ATOM     23  C   UNL     1      43.839   4.985  11.720  0.00  0.00    +0.000 A 
ATOM     24  N   UNL     1      43.061   3.870  11.705  0.00  0.00    +0.000 NA
ATOM     25  C   UNL     1      43.626   2.819  12.200  0.00  0.00    +0.000 A 
ATOM     26  N   UNL     1      44.903   2.781  12.700  0.00  0.00    +0.000 N 
ATOM     27  C   UNL     1      45.742   3.868  12.684  0.00  0.00    +0.000 A 
ATOM     28  O   UNL     1      46.907   3.775  13.057  0.00  0.00    +0.000 OA
ATOM     29  C   UNL     1      45.143   5.084  12.167  0.00  0.00    +0.000 A 
ATOM     30  H   UNL     1      45.295   1.920  13.054  0.00  0.00    +0.000 HD
ENDBRANCH  17  20
ENDBRANCH   2  16
TORSDOF 5
ENDMDL
MODEL 7
REMARK VINA RESULT:    -7.450      2.201      2.719
REMARK INTER + INTRA:          -9.862
REMARK INTER:                  -8.883
REMARK INTRA:                  -0.979
REMARK UNBOUND:                -0.235
REMARK  Name = 
REMARK  6 active torsions:
REMARK  status: ('A' for Active; 'I' for Inactive)
REMARK    1  A    between atoms: C_1  and  C_2
REMARK    2  A    between atoms: C_2  and  N_3
REMARK    3  A    between atoms: C_2  and  C_16
REMARK    4  A    between atoms: C_4  and  C_6
REMARK    5  A    between atoms: C_19  and  C_20
REMARK    6  A    between atoms: C_20  and  C_21
REMARK                            x       y       z     vdW  Elec       q    Type
REMARK                         _______ _______ _______ _____ _____    ______ ____
ROOT
ATOM      1  C   UNL     1      46.018   9.424  12.543  0.00  0.00    +0.000 C 
ATOM      2  C   UNL     1      46.181   8.074  13.249  0.00  0.00    +0.000 C 
ENDROOT
BRANCH   2   3
ATOM      3  C   UNL     1      45.667   6.881  12.456  0.00  0.00    +0.000 A 
ATOM      4  C   UNL     1      44.551   7.061  11.623  0.00  0.00    +0.000 A 
ATOM      5  C   UNL     1      44.043   6.007  10.862  0.00  0.00    +0.000 A 
ATOM      6  C   UNL     1      44.641   4.741  10.903  0.00  0.00    +0.000 A 
ATOM      7  C   UNL     1      45.729   4.544  11.762  0.00  0.00    +0.000 A 
ATOM      8  C   UNL     1      46.223   5.597  12.542  0.00  0.00    +0.000 A 
BRANCH   6   9
ATOM      9  C   UNL     1      44.119   3.613  10.041  0.00  0.00    +0.000 C 
BRANCH   9  10
ATOM     10  C   UNL     1      45.034   3.150   8.926  0.00  0.00    +0.000 A 
ATOM     11  C   UNL     1      45.510   1.839   8.876  0.00  0.00    +0.000 A 
ATOM     12  C   UNL     1      46.449   1.492   7.907  0.00  0.00    +0.000 A 
ATOM     13  C   UNL     1      46.892   2.454   7.013  0.00  0.00    +0.000 A 
ATOM     14  C   UNL     1      46.365   3.729   7.116  0.00  0.00    +0.000 A 
ATOM     15  N   UNL     1      45.455   4.097   8.047  0.00  0.00    +0.000 NA
ENDBRANCH   9  10
ENDBRANCH   6   9
ENDBRANCH   2   3
BRANCH   2  16
ATOM     16  N   UNL     1      47.567   7.849  13.603  0.00  0.00    +0.000 N 
ATOM     17  C   UNL     1      48.167   8.455  14.677  0.00  0.00    +0.000 C 
ATOM     18  O   UNL     1      47.548   9.125  15.495  0.00  0.00    +0.000 OA
ATOM     19  H   UNL     1      48.144   7.437  12.879  0.00  0.00    +0.000 HD
BRANCH  17  20
ATOM     20  C   UNL     1      49.606   8.199  14.824  0.00  0.00    +0.000 A 
ATOM     21  C   UNL     1      50.523   8.899  14.054  0.00  0.00    +0.000 A 
ATOM     22  S   UNL     1      52.145   8.486  14.387  0.00  0.00    +0.000 S 
ATOM     23  C   UNL     1      51.669   7.311  15.526  0.00  0.00    +0.000 A 
ATOM     24  N   UNL     1      52.590   6.548  16.172  0.00  0.00    +0.000 NA
ATOM     25  C   UNL     1      52.087   5.669  16.974  0.00  0.00    +0.000 A 
ATOM     26  N   UNL     1      50.745   5.491  17.195  0.00  0.00    +0.000 N 
ATOM     27  C   UNL     1      49.783   6.275  16.607  0.00  0.00    +0.000 A 
ATOM     28  O   UNL     1      48.597   6.147  16.895  0.00  0.00    +0.000 OA
ATOM     29  C   UNL     1      50.296   7.258  15.671  0.00  0.00    +0.000 A 
ATOM     30  H   UNL     1      50.416   4.799  17.852  0.00  0.00    +0.000 HD
ENDBRANCH  17  20
ENDBRANCH   2  16
TORSDOF 5
ENDMDL
MODEL 8
REMARK VINA RESULT:    -7.238      2.837      4.189
REMARK INTER + INTRA:          -9.588
REMARK INTER:                  -8.418
REMARK INTRA:                  -1.170
REMARK UNBOUND:                -0.235
REMARK  Name = 
REMARK  6 active torsions:
REMARK  status: ('A' for Active; 'I' for Inactive)
REMARK    1  A    between atoms: C_1  and  C_2
REMARK    2  A    between atoms: C_2  and  N_3
REMARK    3  A    between atoms: C_2  and  C_16
REMARK    4  A    between atoms: C_4  and  C_6
REMARK    5  A    between atoms: C_19  and  C_20
REMARK    6  A    between atoms: C_20  and  C_21
REMARK                            x       y       z     vdW  Elec       q    Type
REMARK                         _______ _______ _______ _____ _____    ______ ____
ROOT
ATOM      1  C   UNL     1      45.879   9.470  12.619  0.00  0.00    +0.000 C 
ATOM      2  C   UNL     1      46.241   8.104  13.210  0.00  0.00    +0.000 C 
ENDROOT
BRANCH   2   3
ATOM      3  C   UNL     1      45.716   6.915  12.419  0.00  0.00    +0.000 A 
ATOM      4  C   UNL     1      44.532   7.071  11.681  0.00  0.00    +0.000 A 
ATOM      5  C   UNL     1      44.008   6.020  10.926  0.00  0.00    +0.000 A 
ATOM      6  C   UNL     1      44.659   4.780  10.879  0.00  0.00    +0.000 A 
ATOM      7  C   UNL     1      45.819   4.604  11.644  0.00  0.00    +0.000 A 
ATOM      8  C   UNL     1      46.329   5.654  12.418  0.00  0.00    +0.000 A 
BRANCH   6   9
ATOM      9  C   UNL     1      44.117   3.657  10.022  0.00  0.00    +0.000 C 
BRANCH   9  10
ATOM     10  C   UNL     1      45.035   3.155   8.926  0.00  0.00    +0.000 A 
ATOM     11  C   UNL     1      45.467   1.828   8.894  0.00  0.00    +0.000 A 
ATOM     12  C   UNL     1      46.410   1.441   7.944  0.00  0.00    +0.000 A 
ATOM     13  C   UNL     1      46.902   2.381   7.051  0.00  0.00    +0.000 A 
ATOM     14  C   UNL     1      46.417   3.674   7.136  0.00  0.00    +0.000 A 
ATOM     15  N   UNL     1      45.504   4.080   8.049  0.00  0.00    +0.000 NA
ENDBRANCH   9  10
ENDBRANCH   6   9
ENDBRANCH   2   3
BRANCH   2  16
ATOM     16  N   UNL     1      47.676   7.978  13.360  0.00  0.00    +0.000 N 
ATOM     17  C   UNL     1      48.368   8.557  14.394  0.00  0.00    +0.000 C 
ATOM     18  O   UNL     1      47.815   9.107  15.339  0.00  0.00    +0.000 OA
ATOM     19  H   UNL     1      48.179   7.674  12.535  0.00  0.00    +0.000 HD
BRANCH  17  20
ATOM     20  C   UNL     1      49.829   8.421  14.331  0.00  0.00    +0.000 A 
ATOM     21  C   UNL     1      50.533   7.936  15.423  0.00  0.00    +0.000 A 
ATOM     22  S   UNL     1      52.214   7.822  15.151  0.00  0.00    +0.000 S 
ATOM     23  C   UNL     1      52.060   8.479  13.586  0.00  0.00    +0.000 A 
ATOM     24  N   UNL     1      53.153   8.688  12.804  0.00  0.00    +0.000 NA
ATOM     25  C   UNL     1      52.893   9.231  11.661  0.00  0.00    +0.000 A 
ATOM     26  N   UNL     1      51.639   9.575  11.225  0.00  0.00    +0.000 N 
ATOM     27  C   UNL     1      50.504   9.332  11.959  0.00  0.00    +0.000 A 
ATOM     28  O   UNL     1      49.390   9.570  11.502  0.00  0.00    +0.000 OA
ATOM     29  C   UNL     1      50.744   8.751  13.267  0.00  0.00    +0.000 A 
ATOM     30  H   UNL     1      51.500   9.978  10.310  0.00  0.00    +0.000 HD
ENDBRANCH  17  20
ENDBRANCH   2  16
TORSDOF 5
ENDMDL
MODEL 9
REMARK VINA RESULT:    -7.059      2.830      4.020
REMARK INTER + INTRA:          -9.358
REMARK INTER:                  -8.174
REMARK INTRA:                  -1.184
REMARK UNBOUND:                -0.235
REMARK  Name = 
REMARK  6 active torsions:
REMARK  status: ('A' for Active; 'I' for Inactive)
REMARK    1  A    between atoms: C_1  and  C_2
REMARK    2  A    between atoms: C_2  and  N_3
REMARK    3  A    between atoms: C_2  and  C_16
REMARK    4  A    between atoms: C_4  and  C_6
REMARK    5  A    between atoms: C_19  and  C_20
REMARK    6  A    between atoms: C_20  and  C_21
REMARK                            x       y       z     vdW  Elec       q    Type
REMARK                         _______ _______ _______ _____ _____    ______ ____
ROOT
ATOM      1  C   UNL     1      50.207   8.380  12.388  0.00  0.00    +0.000 C 
ATOM      2  C   UNL     1      49.194   7.896  13.430  0.00  0.00    +0.000 C 
ENDROOT
BRANCH   2   3
ATOM      3  C   UNL     1      47.980   7.186  12.849  0.00  0.00    +0.000 A 
ATOM      4  C   UNL     1      47.107   7.916  12.028  0.00  0.00    +0.000 A 
ATOM      5  C   UNL     1      45.983   7.316  11.456  0.00  0.00    +0.000 A 
ATOM      6  C   UNL     1      45.705   5.961  11.679  0.00  0.00    +0.000 A 
ATOM      7  C   UNL     1      46.549   5.236  12.529  0.00  0.00    +0.000 A 
ATOM      8  C   UNL     1      47.662   5.847  13.120  0.00  0.00    +0.000 A 
BRANCH   6   9
ATOM      9  C   UNL     1      44.515   5.300  11.020  0.00  0.00    +0.000 C 
BRANCH   9  10
ATOM     10  C   UNL     1      44.831   4.318   9.909  0.00  0.00    +0.000 A 
ATOM     11  C   UNL     1      44.543   2.959  10.040  0.00  0.00    +0.000 A 
ATOM     12  C   UNL     1      44.966   2.075   9.050  0.00  0.00    +0.000 A 
ATOM     13  C   UNL     1      45.664   2.561   7.956  0.00  0.00    +0.000 A 
ATOM     14  C   UNL     1      45.901   3.922   7.889  0.00  0.00    +0.000 A 
ATOM     15  N   UNL     1      45.506   4.805   8.836  0.00  0.00    +0.000 NA
ENDBRANCH   9  10
ENDBRANCH   6   9
ENDBRANCH   2   3
BRANCH   2  16
ATOM     16  N   UNL     1      49.834   7.028  14.397  0.00  0.00    +0.000 N 
ATOM     17  C   UNL     1      49.659   7.167  15.751  0.00  0.00    +0.000 C 
ATOM     18  O   UNL     1      48.847   7.944  16.240  0.00  0.00    +0.000 OA
ATOM     19  H   UNL     1      50.619   6.488  14.051  0.00  0.00    +0.000 HD
BRANCH  17  20
ATOM     20  C   UNL     1      50.469   6.273  16.588  0.00  0.00    +0.000 A 
ATOM     21  C   UNL     1      49.858   5.437  17.510  0.00  0.00    +0.000 A 
ATOM     22  S   UNL     1      50.958   4.453  18.368  0.00  0.00    +0.000 S 
ATOM     23  C   UNL     1      52.291   5.162  17.578  0.00  0.00    +0.000 A 
ATOM     24  N   UNL     1      53.564   4.789  17.881  0.00  0.00    +0.000 NA
ATOM     25  C   UNL     1      54.476   5.439  17.237  0.00  0.00    +0.000 A 
ATOM     26  N   UNL     1      54.231   6.420  16.311  0.00  0.00    +0.000 N 
ATOM     27  C   UNL     1      52.963   6.789  15.935  0.00  0.00    +0.000 A 
ATOM     28  O   UNL     1      52.779   7.607  15.040  0.00  0.00    +0.000 OA
ATOM     29  C   UNL     1      51.900   6.111  16.654  0.00  0.00    +0.000 A 
ATOM     30  H   UNL     1      54.990   6.876  15.826  0.00  0.00    +0.000 HD
ENDBRANCH  17  20
ENDBRANCH   2  16
TORSDOF 5
ENDMDL
