MODEL 1
REMARK VINA RESULT:    -8.396      0.000      0.000
REMARK INTER + INTRA:         -12.999
REMARK INTER:                 -11.831
REMARK INTRA:                  -1.168
REMARK UNBOUND:                -1.168
REMARK  Name = 
REMARK  8 active torsions:
REMARK  status: ('A' for Active; 'I' for Inactive)
REMARK    1  A    between atoms: C_1  and  C_2
REMARK    2  A    between atoms: C_2  and  N_3
REMARK    3  A    between atoms: C_2  and  C_25
REMARK    4  A    between atoms: N_3  and  C_4
REMARK    5  A    between atoms: C_4  and  C_5
REMARK    6  A    between atoms: C_8  and  C_9
REMARK    7  A    between atoms: C_9  and  N_10
REMARK    8  A    between atoms: C_11  and  C_13
REMARK                            x       y       z     vdW  Elec       q    Type
REMARK                         _______ _______ _______ _____ _____    ______ ____
ROOT
ATOM      1  C   UNL     1      44.833   5.402  11.246  0.00  0.00    +0.000 A 
ATOM      2  C   UNL     1      45.031   4.999  12.575  0.00  0.00    +0.000 A 
ATOM      3  C   UNL     1      46.161   5.415  13.289  0.00  0.00    +0.000 A 
ATOM      4  C   UNL     1      47.113   6.247  12.687  0.00  0.00    +0.000 A 
ATOM      5  C   UNL     1      46.915   6.646  11.357  0.00  0.00    +0.000 A 
ATOM      6  C   UNL     1      45.785   6.234  10.645  0.00  0.00    +0.000 A 
ENDROOT
BRANCH   1   7
ATOM      7  C   UNL     1      43.675   4.853  10.449  0.00  0.00    +0.000 C 
BRANCH   7   8
ATOM      8  N   UNL     1      44.096   4.203   9.211  0.00  0.00    +0.000 NA
ATOM      9  H   UNL     1      44.651   4.863   8.662  0.00  0.00    +0.000 HD
BRANCH   8  11
ATOM     10  C   UNL     1      44.062   1.767   9.803  0.00  0.00    +0.000 C 
ATOM     11  C   UNL     1      44.910   3.000   9.452  0.00  0.00    +0.000 C 
BRANCH  11  12
ATOM     12  C   UNL     1      45.775   2.704   8.236  0.00  0.00    +0.000 A 
ATOM     13  C   UNL     1      46.008   3.696   7.271  0.00  0.00    +0.000 A 
ATOM     14  C   UNL     1      46.843   3.446   6.180  0.00  0.00    +0.000 A 
ATOM     15  C   UNL     1      47.457   2.203   6.040  0.00  0.00    +0.000 A 
ATOM     16  C   UNL     1      47.221   1.201   6.977  0.00  0.00    +0.000 A 
ATOM     17  C   UNL     1      46.379   1.447   8.064  0.00  0.00    +0.000 A 
ENDBRANCH  11  12
ENDBRANCH   8  11
ENDBRANCH   7   8
ENDBRANCH   1   7
BRANCH   4  18
ATOM     18  C   UNL     1      48.347   6.699  13.425  0.00  0.00    +0.000 C 
BRANCH  18  19
ATOM     19  N   UNL     1      48.128   6.748  14.850  0.00  0.00    +0.000 N 
ATOM     20  C   UNL     1      49.181   6.775  15.731  0.00  0.00    +0.000 C 
ATOM     21  O   UNL     1      50.350   6.786  15.357  0.00  0.00    +0.000 OA
ATOM     22  H   UNL     1      47.223   6.433  15.182  0.00  0.00    +0.000 HD
BRANCH  20  23
ATOM     23  C   UNL     1      48.829   6.849  17.155  0.00  0.00    +0.000 A 
ATOM     24  C   UNL     1      48.448   8.063  17.714  0.00  0.00    +0.000 A 
ATOM     25  S   UNL     1      48.067   7.959  19.375  0.00  0.00    +0.000 S 
ATOM     26  C   UNL     1      48.437   6.298  19.412  0.00  0.00    +0.000 A 
ATOM     27  N   UNL     1      48.356   5.591  20.571  0.00  0.00    +0.000 NA
ATOM     28  C   UNL     1      48.690   4.342  20.456  0.00  0.00    +0.000 A 
ATOM     29  N   UNL     1      49.082   3.747  19.285  0.00  0.00    +0.000 N 
ATOM     30  C   UNL     1      49.145   4.417  18.089  0.00  0.00    +0.000 A 
ATOM     31  O   UNL     1      49.448   3.835  17.052  0.00  0.00    +0.000 OA
ATOM     32  C   UNL     1      48.812   5.824  18.169  0.00  0.00    +0.000 A 
ATOM     33  H   UNL     1      49.304   2.763  19.258  0.00  0.00    +0.000 HD
ENDBRANCH  20  23
ENDBRANCH  18  19
ENDBRANCH   4  18
TORSDOF 7
ENDMDL
MODEL 2
REMARK VINA RESULT:    -8.145      1.769      2.656
REMARK INTER + INTRA:         -12.646
REMARK INTER:                 -11.575
REMARK INTRA:                  -1.071
REMARK UNBOUND:                -1.168
REMARK  Name = 
REMARK  8 active torsions:
REMARK  status: ('A' for Active; 'I' for Inactive)
REMARK    1  A    between atoms: C_1  and  C_2
REMARK    2  A    between atoms: C_2  and  N_3
REMARK    3  A    between atoms: C_2  and  C_25
REMARK    4  A    between atoms: N_3  and  C_4
REMARK    5  A    between atoms: C_4  and  C_5
REMARK    6  A    between atoms: C_8  and  C_9
REMARK    7  A    between atoms: C_9  and  N_10
REMARK    8  A    between atoms: C_11  and  C_13
REMARK                            x       y       z     vdW  Elec       q    Type
REMARK                         _______ _______ _______ _____ _____    ______ ____
ROOT
ATOM      1  C   UNL     1      45.276   4.289  12.397  0.00  0.00    +0.000 A 
ATOM      2  C   UNL     1      46.199   3.661  13.247  0.00  0.00    +0.000 A 
ATOM      3  C   UNL     1      47.183   4.404  13.909  0.00  0.00    +0.000 A 
ATOM      4  C   UNL     1      47.258   5.792  13.740  0.00  0.00    +0.000 A 
ATOM      5  C   UNL     1      46.336   6.417  12.889  0.00  0.00    +0.000 A 
ATOM      6  C   UNL     1      45.351   5.677  12.229  0.00  0.00    +0.000 A 
ENDROOT
BRANCH   1   7
ATOM      7  C   UNL     1      44.297   3.466  11.597  0.00  0.00    +0.000 C 
BRANCH   7   8
ATOM      8  N   UNL     1      44.950   2.609  10.611  0.00  0.00    +0.000 NA
ATOM      9  H   UNL     1      44.726   1.635  10.818  0.00  0.00    +0.000 HD
BRANCH   8  11
ATOM     10  C   UNL     1      44.083   4.364   9.043  0.00  0.00    +0.000 C 
ATOM     11  C   UNL     1      44.520   2.902   9.234  0.00  0.00    +0.000 C 
BRANCH  11  12
ATOM     12  C   UNL     1      45.635   2.565   8.256  0.00  0.00    +0.000 A 
ATOM     13  C   UNL     1      46.178   1.271   8.217  0.00  0.00    +0.000 A 
ATOM     14  C   UNL     1      47.166   0.941   7.286  0.00  0.00    +0.000 A 
ATOM     15  C   UNL     1      47.623   1.898   6.382  0.00  0.00    +0.000 A 
ATOM     16  C   UNL     1      47.109   3.191   6.421  0.00  0.00    +0.000 A 
ATOM     17  C   UNL     1      46.128   3.525   7.356  0.00  0.00    +0.000 A 
ENDBRANCH  11  12
ENDBRANCH   8  11
ENDBRANCH   7   8
ENDBRANCH   1   7
BRANCH   4  18
ATOM     18  C   UNL     1      48.315   6.616  14.430  0.00  0.00    +0.000 C 
BRANCH  18  19
ATOM     19  N   UNL     1      48.073   6.715  15.847  0.00  0.00    +0.000 N 
ATOM     20  C   UNL     1      48.912   6.118  16.756  0.00  0.00    +0.000 C 
ATOM     21  O   UNL     1      49.915   5.497  16.415  0.00  0.00    +0.000 OA
ATOM     22  H   UNL     1      47.125   6.938  16.133  0.00  0.00    +0.000 HD
BRANCH  20  23
ATOM     23  C   UNL     1      48.573   6.311  18.172  0.00  0.00    +0.000 A 
ATOM     24  C   UNL     1      48.677   5.248  19.062  0.00  0.00    +0.000 A 
ATOM     25  S   UNL     1      48.253   5.657  20.664  0.00  0.00    +0.000 S 
ATOM     26  C   UNL     1      47.877   7.255  20.215  0.00  0.00    +0.000 A 
ATOM     27  N   UNL     1      47.405   8.144  21.131  0.00  0.00    +0.000 NA
ATOM     28  C   UNL     1      47.139   9.317  20.644  0.00  0.00    +0.000 A 
ATOM     29  N   UNL     1      47.316   9.672  19.332  0.00  0.00    +0.000 N 
ATOM     30  C   UNL     1      47.821   8.816  18.385  0.00  0.00    +0.000 A 
ATOM     31  O   UNL     1      48.016   9.189  17.233  0.00  0.00    +0.000 OA
ATOM     32  C   UNL     1      48.105   7.482  18.871  0.00  0.00    +0.000 A 
ATOM     33  H   UNL     1      47.114  10.611  19.021  0.00  0.00    +0.000 HD
ENDBRANCH  20  23
ENDBRANCH  18  19
ENDBRANCH   4  18
TORSDOF 7
ENDMDL
MODEL 3
REMARK VINA RESULT:    -8.127      0.857      1.301
REMARK INTER + INTRA:         -12.620
REMARK INTER:                 -11.630
REMARK INTRA:                  -0.990
REMARK UNBOUND:                -1.168
REMARK  Name = 
REMARK  8 active torsions:
REMARK  status: ('A' for Active; 'I' for Inactive)
REMARK    1  A    between atoms: C_1  and  C_2
REMARK    2  A    between atoms: C_2  and  N_3
REMARK    3  A    between atoms: C_2  and  C_25
REMARK    4  A    between atoms: N_3  and  C_4
REMARK    5  A    between atoms: C_4  and  C_5
REMARK    6  A    between atoms: C_8  and  C_9
REMARK    7  A    between atoms: C_9  and  N_10
REMARK    8  A    between atoms: C_11  and  C_13
REMARK                            x       y       z     vdW  Elec       q    Type
REMARK                         _______ _______ _______ _____ _____    ______ ____
ROOT
ATOM      1  C   UNL     1      45.288   4.547  12.065  0.00  0.00    +0.000 A 
ATOM      2  C   UNL     1      45.761   4.248  13.352  0.00  0.00    +0.000 A 
ATOM      3  C   UNL     1      46.779   5.011  13.935  0.00  0.00    +0.000 A 
ATOM      4  C   UNL     1      47.340   6.092  13.244  0.00  0.00    +0.000 A 
ATOM      5  C   UNL     1      46.867   6.387  11.957  0.00  0.00    +0.000 A 
ATOM      6  C   UNL     1      45.848   5.628  11.375  0.00  0.00    +0.000 A 
ENDROOT
BRANCH   1   7
ATOM      7  C   UNL     1      44.276   3.647  11.400  0.00  0.00    +0.000 C 
BRANCH   7   8
ATOM      8  N   UNL     1      44.888   2.671  10.502  0.00  0.00    +0.000 NA
ATOM      9  H   UNL     1      44.600   1.733  10.787  0.00  0.00    +0.000 HD
BRANCH   8  11
ATOM     10  C   UNL     1      44.000   4.299   8.814  0.00  0.00    +0.000 C 
ATOM     11  C   UNL     1      44.498   2.872   9.097  0.00  0.00    +0.000 C 
BRANCH  11  12
ATOM     12  C   UNL     1      45.665   2.540   8.179  0.00  0.00    +0.000 A 
ATOM     13  C   UNL     1      46.215   1.249   8.169  0.00  0.00    +0.000 A 
ATOM     14  C   UNL     1      47.252   0.924   7.291  0.00  0.00    +0.000 A 
ATOM     15  C   UNL     1      47.751   1.884   6.412  0.00  0.00    +0.000 A 
ATOM     16  C   UNL     1      47.229   3.174   6.424  0.00  0.00    +0.000 A 
ATOM     17  C   UNL     1      46.199   3.503   7.306  0.00  0.00    +0.000 A 
ENDBRANCH  11  12
ENDBRANCH   8  11
ENDBRANCH   7   8
ENDBRANCH   1   7
BRANCH   4  18
ATOM     18  C   UNL     1      48.447   6.923  13.841  0.00  0.00    +0.000 C 
BRANCH  18  19
ATOM     19  N   UNL     1      48.389   6.932  15.282  0.00  0.00    +0.000 N 
ATOM     20  C   UNL     1      49.528   6.814  16.039  0.00  0.00    +0.000 C 
ATOM     21  O   UNL     1      50.645   6.723  15.538  0.00  0.00    +0.000 OA
ATOM     22  H   UNL     1      47.497   6.695  15.703  0.00  0.00    +0.000 HD
BRANCH  20  23
ATOM     23  C   UNL     1      49.342   6.861  17.496  0.00  0.00    +0.000 A 
ATOM     24  C   UNL     1      49.491   8.063  18.177  0.00  0.00    +0.000 A 
ATOM     25  S   UNL     1      49.230   7.932  19.859  0.00  0.00    +0.000 S 
ATOM     26  C   UNL     1      48.949   6.257  19.739  0.00  0.00    +0.000 A 
ATOM     27  N   UNL     1      48.698   5.511  20.849  0.00  0.00    +0.000 NA
ATOM     28  C   UNL     1      48.527   4.247  20.611  0.00  0.00    +0.000 A 
ATOM     29  N   UNL     1      48.574   3.676  19.366  0.00  0.00    +0.000 N 
ATOM     30  C   UNL     1      48.790   4.399  18.219  0.00  0.00    +0.000 A 
ATOM     31  O   UNL     1      48.771   3.860  17.117  0.00  0.00    +0.000 OA
ATOM     32  C   UNL     1      49.019   5.813  18.432  0.00  0.00    +0.000 A 
ATOM     33  H   UNL     1      48.406   2.689  19.246  0.00  0.00    +0.000 HD
ENDBRANCH  20  23
ENDBRANCH  18  19
ENDBRANCH   4  18
TORSDOF 7
ENDMDL
MODEL 4
REMARK VINA RESULT:    -7.785      1.866      2.143
REMARK INTER + INTRA:         -12.139
REMARK INTER:                 -10.995
REMARK INTRA:                  -1.144
REMARK UNBOUND:                -1.168
REMARK  Name = 
REMARK  8 active torsions:
REMARK  status: ('A' for Active; 'I' for Inactive)
REMARK    1  A    between atoms: C_1  and  C_2
REMARK    2  A    between atoms: C_2  and  N_3
REMARK    3  A    between atoms: C_2  and  C_25
REMARK    4  A    between atoms: N_3  and  C_4
REMARK    5  A    between atoms: C_4  and  C_5
REMARK    6  A    between atoms: C_8  and  C_9
REMARK    7  A    between atoms: C_9  and  N_10
REMARK    8  A    between atoms: C_11  and  C_13
REMARK                            x       y       z     vdW  Elec       q    Type
REMARK                         _______ _______ _______ _____ _____    ______ ____
ROOT
ATOM      1  C   UNL     1      44.625   5.682  11.385  0.00  0.00    +0.000 A 
ATOM      2  C   UNL     1      45.548   5.016  12.206  0.00  0.00    +0.000 A 
ATOM      3  C   UNL     1      46.469   5.735  12.977  0.00  0.00    +0.000 A 
ATOM      4  C   UNL     1      46.479   7.135  12.947  0.00  0.00    +0.000 A 
ATOM      5  C   UNL     1      45.558   7.798  12.124  0.00  0.00    +0.000 A 
ATOM      6  C   UNL     1      44.637   7.082  11.356  0.00  0.00    +0.000 A 
ENDROOT
BRANCH   1   7
ATOM      7  C   UNL     1      43.718   4.898  10.469  0.00  0.00    +0.000 C 
BRANCH   7   8
ATOM      8  N   UNL     1      44.401   4.419   9.270  0.00  0.00    +0.000 NA
ATOM      9  H   UNL     1      45.099   5.109   8.988  0.00  0.00    +0.000 HD
BRANCH   8  11
ATOM     10  C   UNL     1      44.105   1.987   9.806  0.00  0.00    +0.000 C 
ATOM     11  C   UNL     1      45.080   3.131   9.484  0.00  0.00    +0.000 C 
BRANCH  11  12
ATOM     12  C   UNL     1      45.913   2.771   8.262  0.00  0.00    +0.000 A 
ATOM     13  C   UNL     1      46.379   1.460   8.081  0.00  0.00    +0.000 A 
ATOM     14  C   UNL     1      47.099   1.112   6.936  0.00  0.00    +0.000 A 
ATOM     15  C   UNL     1      47.361   2.068   5.957  0.00  0.00    +0.000 A 
ATOM     16  C   UNL     1      46.923   3.378   6.131  0.00  0.00    +0.000 A 
ATOM     17  C   UNL     1      46.210   3.730   7.278  0.00  0.00    +0.000 A 
ENDBRANCH  11  12
ENDBRANCH   8  11
ENDBRANCH   7   8
ENDBRANCH   1   7
BRANCH   4  18
ATOM     18  C   UNL     1      47.468   7.935  13.756  0.00  0.00    +0.000 C 
BRANCH  18  19
ATOM     19  N   UNL     1      48.374   7.082  14.485  0.00  0.00    +0.000 N 
ATOM     20  C   UNL     1      48.870   7.455  15.711  0.00  0.00    +0.000 C 
ATOM     21  O   UNL     1      48.552   8.508  16.256  0.00  0.00    +0.000 OA
ATOM     22  H   UNL     1      48.881   6.388  13.945  0.00  0.00    +0.000 HD
BRANCH  20  23
ATOM     23  C   UNL     1      49.765   6.490  16.365  0.00  0.00    +0.000 A 
ATOM     24  C   UNL     1      51.076   6.847  16.657  0.00  0.00    +0.000 A 
ATOM     25  S   UNL     1      51.966   5.609  17.424  0.00  0.00    +0.000 S 
ATOM     26  C   UNL     1      50.642   4.541  17.355  0.00  0.00    +0.000 A 
ATOM     27  N   UNL     1      50.749   3.267  17.820  0.00  0.00    +0.000 NA
ATOM     28  C   UNL     1      49.670   2.559  17.683  0.00  0.00    +0.000 A 
ATOM     29  N   UNL     1      48.501   3.021  17.135  0.00  0.00    +0.000 N 
ATOM     30  C   UNL     1      48.343   4.309  16.686  0.00  0.00    +0.000 A 
ATOM     31  O   UNL     1      47.263   4.700  16.253  0.00  0.00    +0.000 OA
ATOM     32  C   UNL     1      49.529   5.133  16.788  0.00  0.00    +0.000 A 
ATOM     33  H   UNL     1      47.688   2.427  17.081  0.00  0.00    +0.000 HD
ENDBRANCH  20  23
ENDBRANCH  18  19
ENDBRANCH   4  18
TORSDOF 7
ENDMDL
MODEL 5
REMARK VINA RESULT:    -7.531      3.202      9.037
REMARK INTER + INTRA:         -11.781
REMARK INTER:                  -9.945
REMARK INTRA:                  -1.836
REMARK UNBOUND:                -1.168
REMARK  Name = 
REMARK  8 active torsions:
REMARK  status: ('A' for Active; 'I' for Inactive)
REMARK    1  A    between atoms: C_1  and  C_2
REMARK    2  A    between atoms: C_2  and  N_3
REMARK    3  A    between atoms: C_2  and  C_25
REMARK    4  A    between atoms: N_3  and  C_4
REMARK    5  A    between atoms: C_4  and  C_5
REMARK    6  A    between atoms: C_8  and  C_9
REMARK    7  A    between atoms: C_9  and  N_10
REMARK    8  A    between atoms: C_11  and  C_13
REMARK                            x       y       z     vdW  Elec       q    Type
REMARK                         _______ _______ _______ _____ _____    ______ ____
ROOT
ATOM      1  C   UNL     1      48.868   7.842  16.144  0.00  0.00    +0.000 A 
ATOM      2  C   UNL     1      49.004   6.668  15.388  0.00  0.00    +0.000 A 
ATOM      3  C   UNL     1      48.548   6.611  14.066  0.00  0.00    +0.000 A 
ATOM      4  C   UNL     1      47.953   7.732  13.472  0.00  0.00    +0.000 A 
ATOM      5  C   UNL     1      47.816   8.902  14.231  0.00  0.00    +0.000 A 
ATOM      6  C   UNL     1      48.273   8.961  15.550  0.00  0.00    +0.000 A 
ENDROOT
BRANCH   1   7
ATOM      7  C   UNL     1      49.254   7.856  17.603  0.00  0.00    +0.000 C 
BRANCH   7   8
ATOM      8  N   UNL     1      48.212   7.312  18.470  0.00  0.00    +0.000 NA
ATOM      9  H   UNL     1      47.418   7.025  17.894  0.00  0.00    +0.000 HD
BRANCH   8  11
ATOM     10  C   UNL     1      47.834   5.904  20.510  0.00  0.00    +0.000 C 
ATOM     11  C   UNL     1      48.671   6.148  19.243  0.00  0.00    +0.000 C 
BRANCH  11  12
ATOM     12  C   UNL     1      48.658   4.903  18.369  0.00  0.00    +0.000 A 
ATOM     13  C   UNL     1      49.834   4.163  18.168  0.00  0.00    +0.000 A 
ATOM     14  C   UNL     1      49.817   2.991  17.409  0.00  0.00    +0.000 A 
ATOM     15  C   UNL     1      48.626   2.542  16.842  0.00  0.00    +0.000 A 
ATOM     16  C   UNL     1      47.455   3.274  17.014  0.00  0.00    +0.000 A 
ATOM     17  C   UNL     1      47.472   4.451  17.766  0.00  0.00    +0.000 A 
ENDBRANCH  11  12
ENDBRANCH   8  11
ENDBRANCH   7   8
ENDBRANCH   1   7
BRANCH   4  18
ATOM     18  C   UNL     1      47.440   7.695  12.055  0.00  0.00    +0.000 C 
BRANCH  18  19
ATOM     19  N   UNL     1      46.752   6.461  11.768  0.00  0.00    +0.000 N 
ATOM     20  C   UNL     1      45.382   6.385  11.804  0.00  0.00    +0.000 C 
ATOM     21  O   UNL     1      44.676   7.358  12.053  0.00  0.00    +0.000 OA
ATOM     22  H   UNL     1      47.290   5.606  11.869  0.00  0.00    +0.000 HD
BRANCH  20  23
ATOM     23  C   UNL     1      44.798   5.079  11.469  0.00  0.00    +0.000 A 
ATOM     24  C   UNL     1      44.026   4.403  12.406  0.00  0.00    +0.000 A 
ATOM     25  S   UNL     1      43.424   2.908  11.843  0.00  0.00    +0.000 S 
ATOM     26  C   UNL     1      44.206   3.096  10.344  0.00  0.00    +0.000 A 
ATOM     27  N   UNL     1      44.128   2.128   9.390  0.00  0.00    +0.000 NA
ATOM     28  C   UNL     1      44.793   2.395   8.308  0.00  0.00    +0.000 A 
ATOM     29  N   UNL     1      45.512   3.543   8.099  0.00  0.00    +0.000 N 
ATOM     30  C   UNL     1      45.587   4.557   9.022  0.00  0.00    +0.000 A 
ATOM     31  O   UNL     1      46.196   5.593   8.775  0.00  0.00    +0.000 OA
ATOM     32  C   UNL     1      44.888   4.296  10.262  0.00  0.00    +0.000 A 
ATOM     33  H   UNL     1      45.986   3.701   7.223  0.00  0.00    +0.000 HD
ENDBRANCH  20  23
ENDBRANCH  18  19
ENDBRANCH   4  18
TORSDOF 7
ENDMDL
MODEL 6
REMARK VINA RESULT:    -7.134      3.546      8.706
REMARK INTER + INTRA:         -11.222
REMARK INTER:                  -9.474
REMARK INTRA:                  -1.747
REMARK UNBOUND:                -1.168
REMARK  Name = 
REMARK  8 active torsions:
REMARK  status: ('A' for Active; 'I' for Inactive)
REMARK    1  A    between atoms: C_1  and  C_2
REMARK    2  A    between atoms: C_2  and  N_3
REMARK    3  A    between atoms: C_2  and  C_25
REMARK    4  A    between atoms: N_3  and  C_4
REMARK    5  A    between atoms: C_4  and  C_5
REMARK    6  A    between atoms: C_8  and  C_9
REMARK    7  A    between atoms: C_9  and  N_10
REMARK    8  A    between atoms: C_11  and  C_13
REMARK                            x       y       z     vdW  Elec       q    Type
REMARK                         _______ _______ _______ _____ _____    ______ ____
ROOT
ATOM      1  C   UNL     1      49.302   7.689  16.371  0.00  0.00    +0.000 A 
ATOM      2  C   UNL     1      49.360   6.679  15.399  0.00  0.00    +0.000 A 
ATOM      3  C   UNL     1      48.855   6.895  14.112  0.00  0.00    +0.000 A 
ATOM      4  C   UNL     1      48.286   8.128  13.771  0.00  0.00    +0.000 A 
ATOM      5  C   UNL     1      48.226   9.134  14.745  0.00  0.00    +0.000 A 
ATOM      6  C   UNL     1      48.734   8.922  16.029  0.00  0.00    +0.000 A 
ENDROOT
BRANCH   1   7
ATOM      7  C   UNL     1      49.741   7.408  17.787  0.00  0.00    +0.000 C 
BRANCH   7   8
ATOM      8  N   UNL     1      48.622   7.337  18.724  0.00  0.00    +0.000 NA
ATOM      9  H   UNL     1      47.748   7.412  18.201  0.00  0.00    +0.000 HD
BRANCH   8  11
ATOM     10  C   UNL     1      47.488   6.039  20.545  0.00  0.00    +0.000 C 
ATOM     11  C   UNL     1      48.602   6.079  19.486  0.00  0.00    +0.000 C 
BRANCH  11  12
ATOM     12  C   UNL     1      48.457   4.897  18.539  0.00  0.00    +0.000 A 
ATOM     13  C   UNL     1      47.269   4.709  17.815  0.00  0.00    +0.000 A 
ATOM     14  C   UNL     1      47.148   3.656  16.906  0.00  0.00    +0.000 A 
ATOM     15  C   UNL     1      48.212   2.779  16.706  0.00  0.00    +0.000 A 
ATOM     16  C   UNL     1      49.390   2.939  17.431  0.00  0.00    +0.000 A 
ATOM     17  C   UNL     1      49.509   3.986  18.347  0.00  0.00    +0.000 A 
ENDBRANCH  11  12
ENDBRANCH   8  11
ENDBRANCH   7   8
ENDBRANCH   1   7
BRANCH   4  18
ATOM     18  C   UNL     1      47.721   8.384  12.397  0.00  0.00    +0.000 C 
BRANCH  18  19
ATOM     19  N   UNL     1      47.184   7.182  11.808  0.00  0.00    +0.000 N 
ATOM     20  C   UNL     1      45.882   7.123  11.375  0.00  0.00    +0.000 C 
ATOM     21  O   UNL     1      45.123   8.085  11.439  0.00  0.00    +0.000 OA
ATOM     22  H   UNL     1      47.666   6.316  12.024  0.00  0.00    +0.000 HD
BRANCH  20  23
ATOM     23  C   UNL     1      45.460   5.851  10.772  0.00  0.00    +0.000 A 
ATOM     24  C   UNL     1      45.747   5.586   9.438  0.00  0.00    +0.000 A 
ATOM     25  S   UNL     1      45.191   4.061   8.911  0.00  0.00    +0.000 S 
ATOM     26  C   UNL     1      44.513   3.720  10.435  0.00  0.00    +0.000 A 
ATOM     27  N   UNL     1      43.837   2.560  10.654  0.00  0.00    +0.000 NA
ATOM     28  C   UNL     1      43.354   2.445  11.853  0.00  0.00    +0.000 A 
ATOM     29  N   UNL     1      43.502   3.382  12.844  0.00  0.00    +0.000 N 
ATOM     30  C   UNL     1      44.205   4.548  12.673  0.00  0.00    +0.000 A 
ATOM     31  O   UNL     1      44.361   5.335  13.601  0.00  0.00    +0.000 OA
ATOM     32  C   UNL     1      44.738   4.740  11.340  0.00  0.00    +0.000 A 
ATOM     33  H   UNL     1      43.124   3.220  13.765  0.00  0.00    +0.000 HD
ENDBRANCH  20  23
ENDBRANCH  18  19
ENDBRANCH   4  18
TORSDOF 7
ENDMDL
MODEL 7
REMARK VINA RESULT:    -6.971      5.464      7.709
REMARK INTER + INTRA:         -10.992
REMARK INTER:                  -9.702
REMARK INTRA:                  -1.290
REMARK UNBOUND:                -1.168
REMARK  Name = 
REMARK  8 active torsions:
REMARK  status: ('A' for Active; 'I' for Inactive)
REMARK    1  A    between atoms: C_1  and  C_2
REMARK    2  A    between atoms: C_2  and  N_3
REMARK    3  A    between atoms: C_2  and  C_25
REMARK    4  A    between atoms: N_3  and  C_4
REMARK    5  A    between atoms: C_4  and  C_5
REMARK    6  A    between atoms: C_8  and  C_9
REMARK    7  A    between atoms: C_9  and  N_10
REMARK    8  A    between atoms: C_11  and  C_13
REMARK                            x       y       z     vdW  Elec       q    Type
REMARK                         _______ _______ _______ _____ _____    ______ ____
ROOT
ATOM      1  C   UNL     1      46.689   7.511  12.349  0.00  0.00    +0.000 A 
ATOM      2  C   UNL     1      47.592   6.452  12.528  0.00  0.00    +0.000 A 
ATOM      3  C   UNL     1      48.970   6.656  12.394  0.00  0.00    +0.000 A 
ATOM      4  C   UNL     1      49.472   7.926  12.083  0.00  0.00    +0.000 A 
ATOM      5  C   UNL     1      48.568   8.982  11.902  0.00  0.00    +0.000 A 
ATOM      6  C   UNL     1      47.192   8.780  12.039  0.00  0.00    +0.000 A 
ENDROOT
BRANCH   1   7
ATOM      7  C   UNL     1      45.202   7.256  12.378  0.00  0.00    +0.000 C 
BRANCH   7   8
ATOM      8  N   UNL     1      44.714   6.613  11.161  0.00  0.00    +0.000 NA
ATOM      9  H   UNL     1      45.458   6.618  10.462  0.00  0.00    +0.000 HD
BRANCH   8  11
ATOM     10  C   UNL     1      42.780   5.078  11.600  0.00  0.00    +0.000 C 
ATOM     11  C   UNL     1      44.296   5.220  11.386  0.00  0.00    +0.000 C 
BRANCH  11  12
ATOM     12  C   UNL     1      44.737   4.348  10.220  0.00  0.00    +0.000 A 
ATOM     13  C   UNL     1      45.510   4.889   9.181  0.00  0.00    +0.000 A 
ATOM     14  C   UNL     1      45.962   4.082   8.135  0.00  0.00    +0.000 A 
ATOM     15  C   UNL     1      45.649   2.724   8.114  0.00  0.00    +0.000 A 
ATOM     16  C   UNL     1      44.866   2.176   9.126  0.00  0.00    +0.000 A 
ATOM     17  C   UNL     1      44.406   2.983  10.168  0.00  0.00    +0.000 A 
ENDBRANCH  11  12
ENDBRANCH   8  11
ENDBRANCH   7   8
ENDBRANCH   1   7
BRANCH   4  18
ATOM     18  C   UNL     1      50.950   8.173  11.919  0.00  0.00    +0.000 C 
BRANCH  18  19
ATOM     19  N   UNL     1      51.394   7.881  10.578  0.00  0.00    +0.000 N 
ATOM     20  C   UNL     1      52.442   8.563  10.012  0.00  0.00    +0.000 C 
ATOM     21  O   UNL     1      53.067   9.428  10.618  0.00  0.00    +0.000 OA
ATOM     22  H   UNL     1      50.727   7.419   9.969  0.00  0.00    +0.000 HD
BRANCH  20  23
ATOM     23  C   UNL     1      52.815   8.159   8.649  0.00  0.00    +0.000 A 
ATOM     24  C   UNL     1      52.751   9.079   7.610  0.00  0.00    +0.000 A 
ATOM     25  S   UNL     1      53.228   8.439   6.101  0.00  0.00    +0.000 S 
ATOM     26  C   UNL     1      53.498   6.901   6.778  0.00  0.00    +0.000 A 
ATOM     27  N   UNL     1      53.893   5.856   6.002  0.00  0.00    +0.000 NA
ATOM     28  C   UNL     1      54.037   4.739   6.647  0.00  0.00    +0.000 A 
ATOM     29  N   UNL     1      53.832   4.587   7.993  0.00  0.00    +0.000 N 
ATOM     30  C   UNL     1      53.466   5.622   8.817  0.00  0.00    +0.000 A 
ATOM     31  O   UNL     1      53.345   5.457  10.027  0.00  0.00    +0.000 OA
ATOM     32  C   UNL     1      53.261   6.886   8.140  0.00  0.00    +0.000 A 
ATOM     33  H   UNL     1      53.987   3.695   8.440  0.00  0.00    +0.000 HD
ENDBRANCH  20  23
ENDBRANCH  18  19
ENDBRANCH   4  18
TORSDOF 7
ENDMDL
MODEL 8
REMARK VINA RESULT:    -6.757      5.517      8.004
REMARK INTER + INTRA:         -10.691
REMARK INTER:                  -9.552
REMARK INTRA:                  -1.138
REMARK UNBOUND:                -1.168
REMARK  Name = 
REMARK  8 active torsions:
REMARK  status: ('A' for Active; 'I' for Inactive)
REMARK    1  A    between atoms: C_1  and  C_2
REMARK    2  A    between atoms: C_2  and  N_3
REMARK    3  A    between atoms: C_2  and  C_25
REMARK    4  A    between atoms: N_3  and  C_4
REMARK    5  A    between atoms: C_4  and  C_5
REMARK    6  A    between atoms: C_8  and  C_9
REMARK    7  A    between atoms: C_9  and  N_10
REMARK    8  A    between atoms: C_11  and  C_13
REMARK                            x       y       z     vdW  Elec       q    Type
REMARK                         _______ _______ _______ _____ _____    ______ ____
ROOT
ATOM      1  C   UNL     1      46.470   7.449  12.360  0.00  0.00    +0.000 A 
ATOM      2  C   UNL     1      47.372   6.396  12.581  0.00  0.00    +0.000 A 
ATOM      3  C   UNL     1      48.753   6.607  12.494  0.00  0.00    +0.000 A 
ATOM      4  C   UNL     1      49.259   7.877  12.189  0.00  0.00    +0.000 A 
ATOM      5  C   UNL     1      48.356   8.925  11.965  0.00  0.00    +0.000 A 
ATOM      6  C   UNL     1      46.977   8.717  12.056  0.00  0.00    +0.000 A 
ENDROOT
BRANCH   1   7
ATOM      7  C   UNL     1      44.985   7.185  12.339  0.00  0.00    +0.000 C 
BRANCH   7   8
ATOM      8  N   UNL     1      44.541   6.536  11.108  0.00  0.00    +0.000 NA
ATOM      9  H   UNL     1      45.288   6.599  10.413  0.00  0.00    +0.000 HD
BRANCH   8  11
ATOM     10  C   UNL     1      42.696   4.871  11.438  0.00  0.00    +0.000 C 
ATOM     11  C   UNL     1      44.208   5.117  11.306  0.00  0.00    +0.000 C 
BRANCH  11  12
ATOM     12  C   UNL     1      44.769   4.285  10.162  0.00  0.00    +0.000 A 
ATOM     13  C   UNL     1      44.522   2.904  10.099  0.00  0.00    +0.000 A 
ATOM     14  C   UNL     1      44.990   2.145   9.024  0.00  0.00    +0.000 A 
ATOM     15  C   UNL     1      45.708   2.755   7.998  0.00  0.00    +0.000 A 
ATOM     16  C   UNL     1      45.979   4.119   8.055  0.00  0.00    +0.000 A 
ATOM     17  C   UNL     1      45.520   4.878   9.133  0.00  0.00    +0.000 A 
ENDBRANCH  11  12
ENDBRANCH   8  11
ENDBRANCH   7   8
ENDBRANCH   1   7
BRANCH   4  18
ATOM     18  C   UNL     1      50.741   8.130  12.074  0.00  0.00    +0.000 C 
BRANCH  18  19
ATOM     19  N   UNL     1      51.287   7.563  10.866  0.00  0.00    +0.000 N 
ATOM     20  C   UNL     1      52.631   7.630  10.593  0.00  0.00    +0.000 C 
ATOM     21  O   UNL     1      53.433   8.147  11.365  0.00  0.00    +0.000 OA
ATOM     22  H   UNL     1      50.640   7.420  10.097  0.00  0.00    +0.000 HD
BRANCH  20  23
ATOM     23  C   UNL     1      53.069   6.995   9.343  0.00  0.00    +0.000 A 
ATOM     24  C   UNL     1      53.453   5.659   9.340  0.00  0.00    +0.000 A 
ATOM     25  S   UNL     1      53.921   5.087   7.802  0.00  0.00    +0.000 S 
ATOM     26  C   UNL     1      53.665   6.614   7.096  0.00  0.00    +0.000 A 
ATOM     27  N   UNL     1      53.922   6.825   5.776  0.00  0.00    +0.000 NA
ATOM     28  C   UNL     1      53.704   8.041   5.380  0.00  0.00    +0.000 A 
ATOM     29  N   UNL     1      53.243   9.051   6.185  0.00  0.00    +0.000 N 
ATOM     30  C   UNL     1      52.940   8.870   7.512  0.00  0.00    +0.000 A 
ATOM     31  O   UNL     1      52.478   9.786   8.186  0.00  0.00    +0.000 OA
ATOM     32  C   UNL     1      53.196   7.536   8.013  0.00  0.00    +0.000 A 
ATOM     33  H   UNL     1      53.069   9.970   5.809  0.00  0.00    +0.000 HD
ENDBRANCH  20  23
ENDBRANCH  18  19
ENDBRANCH   4  18
TORSDOF 7
ENDMDL
MODEL 9
REMARK VINA RESULT:    -6.616      3.742      9.520
REMARK INTER + INTRA:         -10.491
REMARK INTER:                  -9.075
REMARK INTRA:                  -1.415
REMARK UNBOUND:                -1.168
REMARK  Name = 
REMARK  8 active torsions:
REMARK  status: ('A' for Active; 'I' for Inactive)
REMARK    1  A    between atoms: C_1  and  C_2
REMARK    2  A    between atoms: C_2  and  N_3
REMARK    3  A    between atoms: C_2  and  C_25
REMARK    4  A    between atoms: N_3  and  C_4
REMARK    5  A    between atoms: C_4  and  C_5
REMARK    6  A    between atoms: C_8  and  C_9
REMARK    7  A    between atoms: C_9  and  N_10
REMARK    8  A    between atoms: C_11  and  C_13
REMARK                            x       y       z     vdW  Elec       q    Type
REMARK                         _______ _______ _______ _____ _____    ______ ____
ROOT
ATOM      1  C   UNL     1      48.068   7.806  14.218  0.00  0.00    +0.000 A 
ATOM      2  C   UNL     1      47.917   6.471  13.812  0.00  0.00    +0.000 A 
ATOM      3  C   UNL     1      46.955   6.116  12.859  0.00  0.00    +0.000 A 
ATOM      4  C   UNL     1      46.129   7.092  12.288  0.00  0.00    +0.000 A 
ATOM      5  C   UNL     1      46.280   8.424  12.697  0.00  0.00    +0.000 A 
ATOM      6  C   UNL     1      47.241   8.780  13.646  0.00  0.00    +0.000 A 
ENDROOT
BRANCH   1   7
ATOM      7  C   UNL     1      49.024   8.159  15.330  0.00  0.00    +0.000 C 
BRANCH   7   8
ATOM      8  N   UNL     1      48.539   7.749  16.645  0.00  0.00    +0.000 NA
ATOM      9  H   UNL     1      47.652   7.256  16.533  0.00  0.00    +0.000 HD
BRANCH   8  11
ATOM     10  C   UNL     1      49.730   7.275  18.801  0.00  0.00    +0.000 C 
ATOM     11  C   UNL     1      49.481   6.858  17.342  0.00  0.00    +0.000 C 
BRANCH  11  12
ATOM     12  C   UNL     1      48.976   5.424  17.293  0.00  0.00    +0.000 A 
ATOM     13  C   UNL     1      49.875   4.350  17.386  0.00  0.00    +0.000 A 
ATOM     14  C   UNL     1      49.412   3.032  17.394  0.00  0.00    +0.000 A 
ATOM     15  C   UNL     1      48.046   2.771  17.311  0.00  0.00    +0.000 A 
ATOM     16  C   UNL     1      47.143   3.824  17.199  0.00  0.00    +0.000 A 
ATOM     17  C   UNL     1      47.604   5.141  17.182  0.00  0.00    +0.000 A 
ENDBRANCH  11  12
ENDBRANCH   8  11
ENDBRANCH   7   8
ENDBRANCH   1   7
BRANCH   4  18
ATOM     18  C   UNL     1      45.075   6.737  11.270  0.00  0.00    +0.000 C 
BRANCH  18  19
ATOM     19  N   UNL     1      45.381   5.501  10.594  0.00  0.00    +0.000 N 
ATOM     20  C   UNL     1      44.385   4.696  10.100  0.00  0.00    +0.000 C 
ATOM     21  O   UNL     1      43.198   4.994  10.182  0.00  0.00    +0.000 OA
ATOM     22  H   UNL     1      46.290   5.092  10.784  0.00  0.00    +0.000 HD
BRANCH  20  23
ATOM     23  C   UNL     1      44.825   3.475   9.410  0.00  0.00    +0.000 A 
ATOM     24  C   UNL     1      44.224   2.257   9.703  0.00  0.00    +0.000 A 
ATOM     25  S   UNL     1      44.853   0.951   8.803  0.00  0.00    +0.000 S 
ATOM     26  C   UNL     1      45.977   1.962   8.020  0.00  0.00    +0.000 A 
ATOM     27  N   UNL     1      46.869   1.453   7.127  0.00  0.00    +0.000 NA
ATOM     28  C   UNL     1      47.680   2.334   6.627  0.00  0.00    +0.000 A 
ATOM     29  N   UNL     1      47.664   3.669   6.935  0.00  0.00    +0.000 N 
ATOM     30  C   UNL     1      46.759   4.226   7.803  0.00  0.00    +0.000 A 
ATOM     31  O   UNL     1      46.742   5.436   8.011  0.00  0.00    +0.000 OA
ATOM     32  C   UNL     1      45.850   3.280   8.415  0.00  0.00    +0.000 A 
ATOM     33  H   UNL     1      48.306   4.307   6.490  0.00  0.00    +0.000 HD
ENDBRANCH  20  23
ENDBRANCH  18  19
ENDBRANCH   4  18
TORSDOF 7
ENDMDL
