MODEL 1
REMARK VINA RESULT:    -8.404      0.000      0.000
REMARK INTER + INTRA:         -12.861
REMARK INTER:                 -11.842
REMARK INTRA:                  -1.019
REMARK UNBOUND:                -1.019
REMARK  Name = 
REMARK  7 active torsions:
REMARK  status: ('A' for Active; 'I' for Inactive)
REMARK    1  A    between atoms: C_2  and  C_4
REMARK    2  A    between atoms: C_7  and  N_8
REMARK    3  A    between atoms: N_8  and  C_9
REMARK    4  A    between atoms: C_9  and  C_10
REMARK    5  A    between atoms: C_10  and  C_12
REMARK    6  A    between atoms: C_14  and  S_15
REMARK    7  A    between atoms: S_15  and  C_16
REMARK                            x       y       z     vdW  Elec       q    Type
REMARK                         _______ _______ _______ _____ _____    ______ ____
ROOT
ATOM      1  C   UNL     1      43.198   4.142  11.277  0.00  0.00    +0.000 C 
ENDROOT
BRANCH   1   2
ATOM      2  N   UNL     1      43.683   4.699   9.990  0.00  0.00    +0.000 N 
ATOM      3  H   UNL     1      42.912   5.008   9.397  0.00  0.00    +0.000 HD
BRANCH   2   7
ATOM      4  C   UNL     1      46.423   2.375   7.760  0.00  0.00    +0.000 A 
ATOM      5  C   UNL     1      46.416   3.769   7.655  0.00  0.00    +0.000 A 
ATOM      6  C   UNL     1      45.513   4.522   8.416  0.00  0.00    +0.000 A 
ATOM      7  C   UNL     1      44.582   3.901   9.261  0.00  0.00    +0.000 A 
ATOM      8  C   UNL     1      44.660   2.511   9.412  0.00  0.00    +0.000 A 
ATOM      9  C   UNL     1      45.543   1.749   8.645  0.00  0.00    +0.000 A 
BRANCH   4  11
ATOM     10  N   UNL     1      48.442   2.105   6.424  0.00  0.00    +0.000 N 
ATOM     11  C   UNL     1      47.321   1.517   6.944  0.00  0.00    +0.000 C 
ATOM     12  O   UNL     1      47.097   0.329   6.773  0.00  0.00    +0.000 OA
ATOM     13  H   UNL     1      49.101   1.477   5.981  0.00  0.00    +0.000 HD
ATOM     14  H   UNL     1      48.793   2.983   6.774  0.00  0.00    +0.000 HD
ENDBRANCH   4  11
ENDBRANCH   2   7
ENDBRANCH   1   2
BRANCH   1  15
ATOM     15  C   UNL     1      43.451   5.104  12.453  0.00  0.00    +0.000 C 
ATOM     16  F   UNL     1      43.099   4.445  13.606  0.00  0.00    +0.000 F 
BRANCH  15  17
ATOM     17  C   UNL     1      44.881   5.615  12.491  0.00  0.00    +0.000 A 
ATOM     18  C   UNL     1      45.740   5.211  13.521  0.00  0.00    +0.000 A 
ATOM     19  C   UNL     1      46.993   5.815  13.639  0.00  0.00    +0.000 A 
ATOM     20  C   UNL     1      47.356   6.798  12.725  0.00  0.00    +0.000 A 
ATOM     21  C   UNL     1      46.460   7.128  11.723  0.00  0.00    +0.000 A 
ATOM     22  N   UNL     1      45.240   6.566  11.594  0.00  0.00    +0.000 NA
BRANCH  19  23
ATOM     23  S   UNL     1      47.998   5.562  15.091  0.00  0.00    +0.000 S 
BRANCH  23  24
ATOM     24  C   UNL     1      47.160   4.152  15.898  0.00  0.00    +0.000 C 
ATOM     25  C   UNL     1      47.124   4.380  17.435  0.00  0.00    +0.000 C 
ATOM     26  C   UNL     1      47.549   2.917  17.623  0.00  0.00    +0.000 C 
ATOM     27  C   UNL     1      48.072   2.934  16.170  0.00  0.00    +0.000 C 
ENDBRANCH  23  24
ENDBRANCH  19  23
ENDBRANCH  15  17
ENDBRANCH   1  15
TORSDOF 7
ENDMDL
MODEL 2
REMARK VINA RESULT:    -8.215      1.765      3.168
REMARK INTER + INTRA:         -12.596
REMARK INTER:                 -11.748
REMARK INTRA:                  -0.848
REMARK UNBOUND:                -1.019
REMARK  Name = 
REMARK  7 active torsions:
REMARK  status: ('A' for Active; 'I' for Inactive)
REMARK    1  A    between atoms: C_2  and  C_4
REMARK    2  A    between atoms: C_7  and  N_8
REMARK    3  A    between atoms: N_8  and  C_9
REMARK    4  A    between atoms: C_9  and  C_10
REMARK    5  A    between atoms: C_10  and  C_12
REMARK    6  A    between atoms: C_14  and  S_15
REMARK    7  A    between atoms: S_15  and  C_16
REMARK                            x       y       z     vdW  Elec       q    Type
REMARK                         _______ _______ _______ _____ _____    ______ ____
ROOT
ATOM      1  C   UNL     1      43.306   4.099  11.352  0.00  0.00    +0.000 C 
ENDROOT
BRANCH   1   2
ATOM      2  N   UNL     1      43.746   4.700  10.069  0.00  0.00    +0.000 N 
ATOM      3  H   UNL     1      42.953   5.001   9.501  0.00  0.00    +0.000 HD
BRANCH   2   7
ATOM      4  C   UNL     1      46.498   2.512   7.720  0.00  0.00    +0.000 A 
ATOM      5  C   UNL     1      46.412   3.902   7.611  0.00  0.00    +0.000 A 
ATOM      6  C   UNL     1      45.507   4.611   8.411  0.00  0.00    +0.000 A 
ATOM      7  C   UNL     1      44.650   3.947   9.301  0.00  0.00    +0.000 A 
ATOM      8  C   UNL     1      44.809   2.565   9.453  0.00  0.00    +0.000 A 
ATOM      9  C   UNL     1      45.695   1.846   8.648  0.00  0.00    +0.000 A 
BRANCH   4  11
ATOM     10  N   UNL     1      48.538   2.305   6.406  0.00  0.00    +0.000 N 
ATOM     11  C   UNL     1      47.401   1.698   6.866  0.00  0.00    +0.000 C 
ATOM     12  O   UNL     1      47.167   0.526   6.613  0.00  0.00    +0.000 OA
ATOM     13  H   UNL     1      49.198   1.698   5.934  0.00  0.00    +0.000 HD
ATOM     14  H   UNL     1      48.892   3.153   6.818  0.00  0.00    +0.000 HD
ENDBRANCH   4  11
ENDBRANCH   2   7
ENDBRANCH   1   2
BRANCH   1  15
ATOM     15  C   UNL     1      43.393   5.101  12.518  0.00  0.00    +0.000 C 
ATOM     16  F   UNL     1      42.579   4.634  13.522  0.00  0.00    +0.000 F 
BRANCH  15  17
ATOM     17  C   UNL     1      44.819   5.329  12.987  0.00  0.00    +0.000 A 
ATOM     18  C   UNL     1      45.433   6.571  12.779  0.00  0.00    +0.000 A 
ATOM     19  C   UNL     1      46.792   6.714  13.062  0.00  0.00    +0.000 A 
ATOM     20  C   UNL     1      47.498   5.620  13.551  0.00  0.00    +0.000 A 
ATOM     21  C   UNL     1      46.816   4.433  13.749  0.00  0.00    +0.000 A 
ATOM     22  N   UNL     1      45.505   4.265  13.473  0.00  0.00    +0.000 NA
BRANCH  19  23
ATOM     23  S   UNL     1      47.688   8.165  12.540  0.00  0.00    +0.000 S 
BRANCH  23  24
ATOM     24  C   UNL     1      49.426   7.617  12.684  0.00  0.00    +0.000 C 
ATOM     25  C   UNL     1      50.304   8.798  13.184  0.00  0.00    +0.000 C 
ATOM     26  C   UNL     1      51.344   8.426  12.117  0.00  0.00    +0.000 C 
ATOM     27  C   UNL     1      50.228   7.671  11.363  0.00  0.00    +0.000 C 
ENDBRANCH  23  24
ENDBRANCH  19  23
ENDBRANCH  15  17
ENDBRANCH   1  15
TORSDOF 7
ENDMDL
MODEL 3
REMARK VINA RESULT:    -8.095      1.751      3.559
REMARK INTER + INTRA:         -12.426
REMARK INTER:                 -11.649
REMARK INTRA:                  -0.776
REMARK UNBOUND:                -1.019
REMARK  Name = 
REMARK  7 active torsions:
REMARK  status: ('A' for Active; 'I' for Inactive)
REMARK    1  A    between atoms: C_2  and  C_4
REMARK    2  A    between atoms: C_7  and  N_8
REMARK    3  A    between atoms: N_8  and  C_9
REMARK    4  A    between atoms: C_9  and  C_10
REMARK    5  A    between atoms: C_10  and  C_12
REMARK    6  A    between atoms: C_14  and  S_15
REMARK    7  A    between atoms: S_15  and  C_16
REMARK                            x       y       z     vdW  Elec       q    Type
REMARK                         _______ _______ _______ _____ _____    ______ ____
ROOT
ATOM      1  C   UNL     1      43.227   4.221  11.287  0.00  0.00    +0.000 C 
ENDROOT
BRANCH   1   2
ATOM      2  N   UNL     1      43.734   4.774  10.007  0.00  0.00    +0.000 N 
ATOM      3  H   UNL     1      42.974   5.103   9.410  0.00  0.00    +0.000 HD
BRANCH   2   7
ATOM      4  C   UNL     1      46.437   2.404   7.782  0.00  0.00    +0.000 A 
ATOM      5  C   UNL     1      46.433   3.795   7.652  0.00  0.00    +0.000 A 
ATOM      6  C   UNL     1      45.543   4.564   8.412  0.00  0.00    +0.000 A 
ATOM      7  C   UNL     1      44.620   3.962   9.280  0.00  0.00    +0.000 A 
ATOM      8  C   UNL     1      44.696   2.574   9.454  0.00  0.00    +0.000 A 
ATOM      9  C   UNL     1      45.567   1.796   8.690  0.00  0.00    +0.000 A 
BRANCH   4  11
ATOM     10  N   UNL     1      48.361   2.130   6.313  0.00  0.00    +0.000 N 
ATOM     11  C   UNL     1      47.322   1.528   6.970  0.00  0.00    +0.000 C 
ATOM     12  O   UNL     1      47.161   0.319   6.917  0.00  0.00    +0.000 OA
ATOM     13  H   UNL     1      49.022   1.503   5.871  0.00  0.00    +0.000 HD
ATOM     14  H   UNL     1      48.682   3.053   6.558  0.00  0.00    +0.000 HD
ENDBRANCH   4  11
ENDBRANCH   2   7
ENDBRANCH   1   2
BRANCH   1  15
ATOM     15  C   UNL     1      43.378   5.223  12.447  0.00  0.00    +0.000 C 
ATOM     16  F   UNL     1      42.542   4.812  13.457  0.00  0.00    +0.000 F 
BRANCH  15  17
ATOM     17  C   UNL     1      44.818   5.368  12.910  0.00  0.00    +0.000 A 
ATOM     18  C   UNL     1      45.611   6.409  12.412  0.00  0.00    +0.000 A 
ATOM     19  C   UNL     1      46.974   6.432  12.714  0.00  0.00    +0.000 A 
ATOM     20  C   UNL     1      47.504   5.422  13.510  0.00  0.00    +0.000 A 
ATOM     21  C   UNL     1      46.651   4.440  13.981  0.00  0.00    +0.000 A 
ATOM     22  N   UNL     1      45.334   4.389  13.694  0.00  0.00    +0.000 NA
BRANCH  19  23
ATOM     23  S   UNL     1      48.080   7.549  11.872  0.00  0.00    +0.000 S 
BRANCH  23  24
ATOM     24  C   UNL     1      47.802   9.116  12.771  0.00  0.00    +0.000 C 
ATOM     25  C   UNL     1      46.715   9.951  12.036  0.00  0.00    +0.000 C 
ATOM     26  C   UNL     1      47.602  11.191  12.215  0.00  0.00    +0.000 C 
ATOM     27  C   UNL     1      48.802  10.242  12.422  0.00  0.00    +0.000 C 
ENDBRANCH  23  24
ENDBRANCH  19  23
ENDBRANCH  15  17
ENDBRANCH   1  15
TORSDOF 7
ENDMDL
MODEL 4
REMARK VINA RESULT:    -7.480      2.173      3.773
REMARK INTER + INTRA:         -11.560
REMARK INTER:                 -10.821
REMARK INTRA:                  -0.739
REMARK UNBOUND:                -1.019
REMARK  Name = 
REMARK  7 active torsions:
REMARK  status: ('A' for Active; 'I' for Inactive)
REMARK    1  A    between atoms: C_2  and  C_4
REMARK    2  A    between atoms: C_7  and  N_8
REMARK    3  A    between atoms: N_8  and  C_9
REMARK    4  A    between atoms: C_9  and  C_10
REMARK    5  A    between atoms: C_10  and  C_12
REMARK    6  A    between atoms: C_14  and  S_15
REMARK    7  A    between atoms: S_15  and  C_16
REMARK                            x       y       z     vdW  Elec       q    Type
REMARK                         _______ _______ _______ _____ _____    ______ ____
ROOT
ATOM      1  C   UNL     1      43.916   5.258  11.109  0.00  0.00    +0.000 C 
ENDROOT
BRANCH   1   2
ATOM      2  N   UNL     1      43.708   4.959   9.671  0.00  0.00    +0.000 N 
ATOM      3  H   UNL     1      42.729   4.755   9.465  0.00  0.00    +0.000 HD
BRANCH   2   7
ATOM      4  C   UNL     1      46.282   2.095   7.925  0.00  0.00    +0.000 A 
ATOM      5  C   UNL     1      46.436   3.456   7.650  0.00  0.00    +0.000 A 
ATOM      6  C   UNL     1      45.585   4.391   8.252  0.00  0.00    +0.000 A 
ATOM      7  C   UNL     1      44.548   3.985   9.105  0.00  0.00    +0.000 A 
ATOM      8  C   UNL     1      44.463   2.626   9.430  0.00  0.00    +0.000 A 
ATOM      9  C   UNL     1      45.294   1.683   8.821  0.00  0.00    +0.000 A 
BRANCH   4  11
ATOM     10  N   UNL     1      46.827  -0.253   7.578  0.00  0.00    +0.000 N 
ATOM     11  C   UNL     1      47.120   1.050   7.281  0.00  0.00    +0.000 C 
ATOM     12  O   UNL     1      48.007   1.331   6.490  0.00  0.00    +0.000 OA
ATOM     13  H   UNL     1      47.323  -0.949   7.034  0.00  0.00    +0.000 HD
ATOM     14  H   UNL     1      45.947  -0.520   7.990  0.00  0.00    +0.000 HD
ENDBRANCH   4  11
ENDBRANCH   2   7
ENDBRANCH   1   2
BRANCH   1  15
ATOM     15  C   UNL     1      44.891   6.432  11.317  0.00  0.00    +0.000 C 
ATOM     16  F   UNL     1      44.137   7.573  11.450  0.00  0.00    +0.000 F 
BRANCH  15  17
ATOM     17  C   UNL     1      45.824   6.215  12.496  0.00  0.00    +0.000 A 
ATOM     18  C   UNL     1      46.957   7.025  12.649  0.00  0.00    +0.000 A 
ATOM     19  C   UNL     1      47.891   6.709  13.637  0.00  0.00    +0.000 A 
ATOM     20  C   UNL     1      47.667   5.600  14.446  0.00  0.00    +0.000 A 
ATOM     21  C   UNL     1      46.515   4.862  14.246  0.00  0.00    +0.000 A 
ATOM     22  N   UNL     1      45.601   5.140  13.292  0.00  0.00    +0.000 NA
BRANCH  19  23
ATOM     23  S   UNL     1      49.482   7.513  13.682  0.00  0.00    +0.000 S 
BRANCH  23  24
ATOM     24  C   UNL     1      49.596   8.236  12.006  0.00  0.00    +0.000 C 
ATOM     25  C   UNL     1      51.052   8.099  11.479  0.00  0.00    +0.000 C 
ATOM     26  C   UNL     1      50.970   9.552  10.991  0.00  0.00    +0.000 C 
ATOM     27  C   UNL     1      49.805   9.767  11.980  0.00  0.00    +0.000 C 
ENDBRANCH  23  24
ENDBRANCH  19  23
ENDBRANCH  15  17
ENDBRANCH   1  15
TORSDOF 7
ENDMDL
MODEL 5
REMARK VINA RESULT:    -7.408      2.861      4.921
REMARK INTER + INTRA:         -11.458
REMARK INTER:                 -10.628
REMARK INTRA:                  -0.830
REMARK UNBOUND:                -1.019
REMARK  Name = 
REMARK  7 active torsions:
REMARK  status: ('A' for Active; 'I' for Inactive)
REMARK    1  A    between atoms: C_2  and  C_4
REMARK    2  A    between atoms: C_7  and  N_8
REMARK    3  A    between atoms: N_8  and  C_9
REMARK    4  A    between atoms: C_9  and  C_10
REMARK    5  A    between atoms: C_10  and  C_12
REMARK    6  A    between atoms: C_14  and  S_15
REMARK    7  A    between atoms: S_15  and  C_16
REMARK                            x       y       z     vdW  Elec       q    Type
REMARK                         _______ _______ _______ _____ _____    ______ ____
ROOT
ATOM      1  C   UNL     1      43.807   5.078  11.136  0.00  0.00    +0.000 C 
ENDROOT
BRANCH   1   2
ATOM      2  N   UNL     1      43.788   3.685  10.624  0.00  0.00    +0.000 N 
ATOM      3  H   UNL     1      43.857   3.003  11.380  0.00  0.00    +0.000 HD
BRANCH   2   7
ATOM      4  C   UNL     1      46.515   2.685   7.551  0.00  0.00    +0.000 A 
ATOM      5  C   UNL     1      45.900   1.688   8.313  0.00  0.00    +0.000 A 
ATOM      6  C   UNL     1      44.985   2.039   9.314  0.00  0.00    +0.000 A 
ATOM      7  C   UNL     1      44.698   3.383   9.597  0.00  0.00    +0.000 A 
ATOM      8  C   UNL     1      45.264   4.360   8.769  0.00  0.00    +0.000 A 
ATOM      9  C   UNL     1      46.190   4.024   7.781  0.00  0.00    +0.000 A 
BRANCH   4  11
ATOM     10  N   UNL     1      47.456   3.093   5.342  0.00  0.00    +0.000 N 
ATOM     11  C   UNL     1      47.530   2.382   6.509  0.00  0.00    +0.000 C 
ATOM     12  O   UNL     1      48.419   1.564   6.692  0.00  0.00    +0.000 OA
ATOM     13  H   UNL     1      48.228   2.963   4.700  0.00  0.00    +0.000 HD
ATOM     14  H   UNL     1      46.928   3.948   5.273  0.00  0.00    +0.000 HD
ENDBRANCH   4  11
ENDBRANCH   2   7
ENDBRANCH   1   2
BRANCH   1  15
ATOM     15  C   UNL     1      44.610   5.199  12.444  0.00  0.00    +0.000 C 
ATOM     16  F   UNL     1      45.301   4.023  12.613  0.00  0.00    +0.000 F 
BRANCH  15  17
ATOM     17  C   UNL     1      45.522   6.413  12.459  0.00  0.00    +0.000 A 
ATOM     18  C   UNL     1      44.978   7.698  12.333  0.00  0.00    +0.000 A 
ATOM     19  C   UNL     1      45.835   8.789  12.181  0.00  0.00    +0.000 A 
ATOM     20  C   UNL     1      47.209   8.569  12.166  0.00  0.00    +0.000 A 
ATOM     21  C   UNL     1      47.669   7.274  12.317  0.00  0.00    +0.000 A 
ATOM     22  N   UNL     1      46.862   6.202  12.455  0.00  0.00    +0.000 NA
BRANCH  19  23
ATOM     23  S   UNL     1      45.204  10.391  11.718  0.00  0.00    +0.000 S 
BRANCH  23  24
ATOM     24  C   UNL     1      44.018   9.969  10.393  0.00  0.00    +0.000 C 
ATOM     25  C   UNL     1      43.923  11.149   9.385  0.00  0.00    +0.000 C 
ATOM     26  C   UNL     1      42.396  10.989   9.401  0.00  0.00    +0.000 C 
ATOM     27  C   UNL     1      42.537  10.242  10.745  0.00  0.00    +0.000 C 
ENDBRANCH  23  24
ENDBRANCH  19  23
ENDBRANCH  15  17
ENDBRANCH   1  15
TORSDOF 7
ENDMDL
MODEL 6
REMARK VINA RESULT:    -7.326      1.540      1.955
REMARK INTER + INTRA:         -11.343
REMARK INTER:                 -10.552
REMARK INTRA:                  -0.791
REMARK UNBOUND:                -1.019
REMARK  Name = 
REMARK  7 active torsions:
REMARK  status: ('A' for Active; 'I' for Inactive)
REMARK    1  A    between atoms: C_2  and  C_4
REMARK    2  A    between atoms: C_7  and  N_8
REMARK    3  A    between atoms: N_8  and  C_9
REMARK    4  A    between atoms: C_9  and  C_10
REMARK    5  A    between atoms: C_10  and  C_12
REMARK    6  A    between atoms: C_14  and  S_15
REMARK    7  A    between atoms: S_15  and  C_16
REMARK                            x       y       z     vdW  Elec       q    Type
REMARK                         _______ _______ _______ _____ _____    ______ ____
ROOT
ATOM      1  C   UNL     1      43.507   4.384  11.340  0.00  0.00    +0.000 C 
ENDROOT
BRANCH   1   2
ATOM      2  N   UNL     1      43.638   4.679   9.892  0.00  0.00    +0.000 N 
ATOM      3  H   UNL     1      42.733   4.663   9.420  0.00  0.00    +0.000 HD
BRANCH   2   7
ATOM      4  C   UNL     1      46.517   2.475   7.718  0.00  0.00    +0.000 A 
ATOM      5  C   UNL     1      46.471   3.869   7.632  0.00  0.00    +0.000 A 
ATOM      6  C   UNL     1      45.521   4.582   8.375  0.00  0.00    +0.000 A 
ATOM      7  C   UNL     1      44.583   3.921   9.181  0.00  0.00    +0.000 A 
ATOM      8  C   UNL     1      44.699   2.532   9.314  0.00  0.00    +0.000 A 
ATOM      9  C   UNL     1      45.629   1.809   8.565  0.00  0.00    +0.000 A 
BRANCH   4  11
ATOM     10  N   UNL     1      48.546   2.303   6.381  0.00  0.00    +0.000 N 
ATOM     11  C   UNL     1      47.466   1.657   6.919  0.00  0.00    +0.000 C 
ATOM     12  O   UNL     1      47.318   0.453   6.775  0.00  0.00    +0.000 OA
ATOM     13  H   UNL     1      49.243   1.708   5.951  0.00  0.00    +0.000 HD
ATOM     14  H   UNL     1      48.841   3.209   6.710  0.00  0.00    +0.000 HD
ENDBRANCH   4  11
ENDBRANCH   2   7
ENDBRANCH   1   2
BRANCH   1  15
ATOM     15  C   UNL     1      43.370   5.668  12.180  0.00  0.00    +0.000 C 
ATOM     16  F   UNL     1      43.087   5.288  13.469  0.00  0.00    +0.000 F 
BRANCH  15  17
ATOM     17  C   UNL     1      44.600   6.555  12.095  0.00  0.00    +0.000 A 
ATOM     18  C   UNL     1      45.864   6.030  12.395  0.00  0.00    +0.000 A 
ATOM     19  C   UNL     1      46.958   6.892  12.475  0.00  0.00    +0.000 A 
ATOM     20  C   UNL     1      46.765   8.250  12.247  0.00  0.00    +0.000 A 
ATOM     21  C   UNL     1      45.490   8.689  11.935  0.00  0.00    +0.000 A 
ATOM     22  N   UNL     1      44.414   7.878  11.862  0.00  0.00    +0.000 NA
BRANCH  19  23
ATOM     23  S   UNL     1      48.515   6.334  13.143  0.00  0.00    +0.000 S 
BRANCH  23  24
ATOM     24  C   UNL     1      48.555   7.164  14.771  0.00  0.00    +0.000 C 
ATOM     25  C   UNL     1      50.008   7.617  15.089  0.00  0.00    +0.000 C 
ATOM     26  C   UNL     1      49.825   7.071  16.512  0.00  0.00    +0.000 C 
ATOM     27  C   UNL     1      48.664   6.205  15.979  0.00  0.00    +0.000 C 
ENDBRANCH  23  24
ENDBRANCH  19  23
ENDBRANCH  15  17
ENDBRANCH   1  15
TORSDOF 7
ENDMDL
MODEL 7
REMARK VINA RESULT:    -7.064      4.356      8.537
REMARK INTER + INTRA:         -10.973
REMARK INTER:                 -10.188
REMARK INTRA:                  -0.786
REMARK UNBOUND:                -1.019
REMARK  Name = 
REMARK  7 active torsions:
REMARK  status: ('A' for Active; 'I' for Inactive)
REMARK    1  A    between atoms: C_2  and  C_4
REMARK    2  A    between atoms: C_7  and  N_8
REMARK    3  A    between atoms: N_8  and  C_9
REMARK    4  A    between atoms: C_9  and  C_10
REMARK    5  A    between atoms: C_10  and  C_12
REMARK    6  A    between atoms: C_14  and  S_15
REMARK    7  A    between atoms: S_15  and  C_16
REMARK                            x       y       z     vdW  Elec       q    Type
REMARK                         _______ _______ _______ _____ _____    ______ ____
ROOT
ATOM      1  C   UNL     1      46.935   5.232  13.923  0.00  0.00    +0.000 C 
ENDROOT
BRANCH   1   2
ATOM      2  N   UNL     1      46.773   4.135  14.910  0.00  0.00    +0.000 N 
ATOM      3  H   UNL     1      45.789   3.938  15.097  0.00  0.00    +0.000 HD
BRANCH   2   7
ATOM      4  C   UNL     1      48.970   4.594  18.493  0.00  0.00    +0.000 A 
ATOM      5  C   UNL     1      49.024   5.568  17.492  0.00  0.00    +0.000 A 
ATOM      6  C   UNL     1      48.275   5.406  16.320  0.00  0.00    +0.000 A 
ATOM      7  C   UNL     1      47.492   4.261  16.110  0.00  0.00    +0.000 A 
ATOM      8  C   UNL     1      47.390   3.338  17.158  0.00  0.00    +0.000 A 
ATOM      9  C   UNL     1      48.146   3.480  18.323  0.00  0.00    +0.000 A 
BRANCH   4  11
ATOM     10  N   UNL     1      49.179   4.276  20.899  0.00  0.00    +0.000 N 
ATOM     11  C   UNL     1      49.778   4.682  19.737  0.00  0.00    +0.000 C 
ATOM     12  O   UNL     1      50.939   5.061  19.727  0.00  0.00    +0.000 OA
ATOM     13  H   UNL     1      49.785   4.224  21.709  0.00  0.00    +0.000 HD
ATOM     14  H   UNL     1      48.348   3.707  20.898  0.00  0.00    +0.000 HD
ENDBRANCH   4  11
ENDBRANCH   2   7
ENDBRANCH   1   2
BRANCH   1  15
ATOM     15  C   UNL     1      45.594   5.629  13.279  0.00  0.00    +0.000 C 
ATOM     16  F   UNL     1      45.796   6.809  12.604  0.00  0.00    +0.000 F 
BRANCH  15  17
ATOM     17  C   UNL     1      45.031   4.540  12.383  0.00  0.00    +0.000 A 
ATOM     18  C   UNL     1      45.295   4.559  11.007  0.00  0.00    +0.000 A 
ATOM     19  C   UNL     1      44.638   3.652  10.174  0.00  0.00    +0.000 A 
ATOM     20  C   UNL     1      43.743   2.748  10.737  0.00  0.00    +0.000 A 
ATOM     21  C   UNL     1      43.552   2.777  12.106  0.00  0.00    +0.000 A 
ATOM     22  N   UNL     1      44.167   3.650  12.931  0.00  0.00    +0.000 NA
BRANCH  19  23
ATOM     23  S   UNL     1      44.702   3.826   8.401  0.00  0.00    +0.000 S 
BRANCH  23  24
ATOM     24  C   UNL     1      46.352   3.146   8.007  0.00  0.00    +0.000 C 
ATOM     25  C   UNL     1      46.555   3.131   6.466  0.00  0.00    +0.000 C 
ATOM     26  C   UNL     1      47.126   1.712   6.594  0.00  0.00    +0.000 C 
ATOM     27  C   UNL     1      46.416   1.602   7.960  0.00  0.00    +0.000 C 
ENDBRANCH  23  24
ENDBRANCH  19  23
ENDBRANCH  15  17
ENDBRANCH   1  15
TORSDOF 7
ENDMDL
MODEL 8
REMARK VINA RESULT:    -7.028      2.389      2.950
REMARK INTER + INTRA:         -10.923
REMARK INTER:                 -10.255
REMARK INTRA:                  -0.668
REMARK UNBOUND:                -1.019
REMARK  Name = 
REMARK  7 active torsions:
REMARK  status: ('A' for Active; 'I' for Inactive)
REMARK    1  A    between atoms: C_2  and  C_4
REMARK    2  A    between atoms: C_7  and  N_8
REMARK    3  A    between atoms: N_8  and  C_9
REMARK    4  A    between atoms: C_9  and  C_10
REMARK    5  A    between atoms: C_10  and  C_12
REMARK    6  A    between atoms: C_14  and  S_15
REMARK    7  A    between atoms: S_15  and  C_16
REMARK                            x       y       z     vdW  Elec       q    Type
REMARK                         _______ _______ _______ _____ _____    ______ ____
ROOT
ATOM      1  C   UNL     1      44.542   4.739  11.853  0.00  0.00    +0.000 C 
ENDROOT
BRANCH   1   2
ATOM      2  N   UNL     1      44.010   4.599  10.475  0.00  0.00    +0.000 N 
ATOM      3  H   UNL     1      43.063   4.219  10.472  0.00  0.00    +0.000 HD
BRANCH   2   7
ATOM      4  C   UNL     1      46.429   2.459   7.746  0.00  0.00    +0.000 A 
ATOM      5  C   UNL     1      45.659   1.786   8.698  0.00  0.00    +0.000 A 
ATOM      6  C   UNL     1      44.849   2.512   9.581  0.00  0.00    +0.000 A 
ATOM      7  C   UNL     1      44.824   3.915   9.556  0.00  0.00    +0.000 A 
ATOM      8  C   UNL     1      45.541   4.564   8.544  0.00  0.00    +0.000 A 
ATOM      9  C   UNL     1      46.364   3.852   7.670  0.00  0.00    +0.000 A 
BRANCH   4  11
ATOM     10  N   UNL     1      48.418   2.456   6.340  0.00  0.00    +0.000 N 
ATOM     11  C   UNL     1      47.345   1.751   6.815  0.00  0.00    +0.000 C 
ATOM     12  O   UNL     1      47.177   0.580   6.511  0.00  0.00    +0.000 OA
ATOM     13  H   UNL     1      49.095   1.920   5.811  0.00  0.00    +0.000 HD
ATOM     14  H   UNL     1      48.734   3.305   6.781  0.00  0.00    +0.000 HD
ENDBRANCH   4  11
ENDBRANCH   2   7
ENDBRANCH   1   2
BRANCH   1  15
ATOM     15  C   UNL     1      45.934   5.399  11.869  0.00  0.00    +0.000 C 
ATOM     16  F   UNL     1      45.793   6.668  11.361  0.00  0.00    +0.000 F 
BRANCH  15  17
ATOM     17  C   UNL     1      46.566   5.395  13.250  0.00  0.00    +0.000 A 
ATOM     18  C   UNL     1      47.512   6.370  13.589  0.00  0.00    +0.000 A 
ATOM     19  C   UNL     1      48.205   6.257  14.795  0.00  0.00    +0.000 A 
ATOM     20  C   UNL     1      47.930   5.181  15.632  0.00  0.00    +0.000 A 
ATOM     21  C   UNL     1      46.967   4.270  15.237  0.00  0.00    +0.000 A 
ATOM     22  N   UNL     1      46.291   4.351  14.072  0.00  0.00    +0.000 NA
BRANCH  19  23
ATOM     23  S   UNL     1      49.620   7.288  15.138  0.00  0.00    +0.000 S 
BRANCH  23  24
ATOM     24  C   UNL     1      50.428   6.389  16.509  0.00  0.00    +0.000 C 
ATOM     25  C   UNL     1      50.357   7.245  17.805  0.00  0.00    +0.000 C 
ATOM     26  C   UNL     1      51.831   6.900  18.066  0.00  0.00    +0.000 C 
ATOM     27  C   UNL     1      51.964   6.552  16.568  0.00  0.00    +0.000 C 
ENDBRANCH  23  24
ENDBRANCH  19  23
ENDBRANCH  15  17
ENDBRANCH   1  15
TORSDOF 7
ENDMDL
MODEL 9
REMARK VINA RESULT:    -6.745      3.686      7.576
REMARK INTER + INTRA:         -10.523
REMARK INTER:                  -9.672
REMARK INTRA:                  -0.851
REMARK UNBOUND:                -1.019
REMARK  Name = 
REMARK  7 active torsions:
REMARK  status: ('A' for Active; 'I' for Inactive)
REMARK    1  A    between atoms: C_2  and  C_4
REMARK    2  A    between atoms: C_7  and  N_8
REMARK    3  A    between atoms: N_8  and  C_9
REMARK    4  A    between atoms: C_9  and  C_10
REMARK    5  A    between atoms: C_10  and  C_12
REMARK    6  A    between atoms: C_14  and  S_15
REMARK    7  A    between atoms: S_15  and  C_16
REMARK                            x       y       z     vdW  Elec       q    Type
REMARK                         _______ _______ _______ _____ _____    ______ ____
ROOT
ATOM      1  C   UNL     1      45.990   7.139  12.918  0.00  0.00    +0.000 C 
ENDROOT
BRANCH   1   2
ATOM      2  N   UNL     1      47.416   6.932  13.275  0.00  0.00    +0.000 N 
ATOM      3  H   UNL     1      47.977   6.683  12.459  0.00  0.00    +0.000 HD
BRANCH   2   7
ATOM      4  C   UNL     1      48.244   4.360  16.527  0.00  0.00    +0.000 A 
ATOM      5  C   UNL     1      48.774   5.652  16.484  0.00  0.00    +0.000 A 
ATOM      6  C   UNL     1      48.473   6.495  15.407  0.00  0.00    +0.000 A 
ATOM      7  C   UNL     1      47.674   6.056  14.342  0.00  0.00    +0.000 A 
ATOM      8  C   UNL     1      47.089   4.788  14.444  0.00  0.00    +0.000 A 
ATOM      9  C   UNL     1      47.396   3.932  15.503  0.00  0.00    +0.000 A 
BRANCH   4  11
ATOM     10  N   UNL     1      47.607   3.202  18.573  0.00  0.00    +0.000 N 
ATOM     11  C   UNL     1      48.564   3.400  17.615  0.00  0.00    +0.000 C 
ATOM     12  O   UNL     1      49.617   2.782  17.640  0.00  0.00    +0.000 OA
ATOM     13  H   UNL     1      47.793   2.455  19.230  0.00  0.00    +0.000 HD
ATOM     14  H   UNL     1      46.647   3.472  18.429  0.00  0.00    +0.000 HD
ENDBRANCH   4  11
ENDBRANCH   2   7
ENDBRANCH   1   2
BRANCH   1  15
ATOM     15  C   UNL     1      45.664   6.599  11.513  0.00  0.00    +0.000 C 
ATOM     16  F   UNL     1      46.832   6.605  10.789  0.00  0.00    +0.000 F 
BRANCH  15  17
ATOM     17  C   UNL     1      45.013   5.228  11.551  0.00  0.00    +0.000 A 
ATOM     18  C   UNL     1      45.246   4.314  10.516  0.00  0.00    +0.000 A 
ATOM     19  C   UNL     1      44.514   3.126  10.477  0.00  0.00    +0.000 A 
ATOM     20  C   UNL     1      43.576   2.881  11.474  0.00  0.00    +0.000 A 
ATOM     21  C   UNL     1      43.417   3.823  12.474  0.00  0.00    +0.000 A 
ATOM     22  N   UNL     1      44.105   4.983  12.529  0.00  0.00    +0.000 NA
BRANCH  19  23
ATOM     23  S   UNL     1      44.550   2.075   9.037  0.00  0.00    +0.000 S 
BRANCH  23  24
ATOM     24  C   UNL     1      46.199   2.440   8.336  0.00  0.00    +0.000 C 
ATOM     25  C   UNL     1      46.034   3.196   6.987  0.00  0.00    +0.000 C 
ATOM     26  C   UNL     1      47.109   2.278   6.387  0.00  0.00    +0.000 C 
ATOM     27  C   UNL     1      46.825   1.280   7.529  0.00  0.00    +0.000 C 
ENDBRANCH  23  24
ENDBRANCH  19  23
ENDBRANCH  15  17
ENDBRANCH   1  15
TORSDOF 7
ENDMDL
