MODEL 1
REMARK VINA RESULT:    -7.970      0.000      0.000
REMARK INTER + INTRA:         -10.941
REMARK INTER:                 -10.299
REMARK INTRA:                  -0.641
REMARK UNBOUND:                -0.641
REMARK  Name = 
REMARK  6 active torsions:
REMARK  status: ('A' for Active; 'I' for Inactive)
REMARK    1  A    between atoms: N_1  and  C_2
REMARK    2  A    between atoms: C_2  and  C_3
REMARK    3  A    between atoms: C_3  and  C_4
REMARK    4  A    between atoms: C_7  and  C_8
REMARK    5  A    between atoms: C_8  and  N_9
REMARK    6  A    between atoms: C_15  and  N_16
REMARK                            x       y       z     vdW  Elec       q    Type
REMARK                         _______ _______ _______ _____ _____    ______ ____
ROOT
ATOM      1  C   UNL     1      43.494   5.113  10.709  0.00  0.00    +0.000 C 
ENDROOT
BRANCH   1   2
ATOM      2  N   UNL     1      44.211   6.028  11.580  0.00  0.00    +0.000 N 
ATOM      3  C   UNL     1      44.399   7.359  11.229  0.00  0.00    +0.000 A 
ATOM      4  C   UNL     1      45.136   7.900  12.279  0.00  0.00    +0.000 A 
ATOM      5  C   UNL     1      45.954   6.820  12.697  0.00  0.00    +0.000 A 
ATOM      6  C   UNL     1      47.207   6.741  13.317  0.00  0.00    +0.000 A 
ATOM      7  C   UNL     1      47.650   5.500  13.755  0.00  0.00    +0.000 A 
ATOM      8  C   UNL     1      46.823   4.372  13.691  0.00  0.00    +0.000 A 
ATOM      9  C   UNL     1      45.557   4.467  13.087  0.00  0.00    +0.000 A 
ATOM     10  C   UNL     1      45.200   5.669  12.475  0.00  0.00    +0.000 A 
BRANCH   8  11
ATOM     11  N   UNL     1      47.185   3.230  14.414  0.00  0.00    +0.000 N 
ATOM     12  H   UNL     1      46.426   2.819  14.945  0.00  0.00    +0.000 HD
ATOM     13  H   UNL     1      48.041   3.329  14.955  0.00  0.00    +0.000 HD
ENDBRANCH   8  11
ENDBRANCH   1   2
BRANCH   1  17
ATOM     14  C   UNL     1      45.983   2.546   8.219  0.00  0.00    +0.000 A 
ATOM     15  C   UNL     1      45.092   1.988   9.165  0.00  0.00    +0.000 A 
ATOM     16  C   UNL     1      44.292   2.811   9.981  0.00  0.00    +0.000 A 
ATOM     17  C   UNL     1      44.361   4.208   9.872  0.00  0.00    +0.000 A 
ATOM     18  C   UNL     1      45.237   4.762   8.934  0.00  0.00    +0.000 A 
ATOM     19  C   UNL     1      46.035   3.949   8.121  0.00  0.00    +0.000 A 
BRANCH  14  20
ATOM     20  C   UNL     1      46.880   1.687   7.392  0.00  0.00    +0.000 C 
BRANCH  20  21
ATOM     21  C   UNL     1      48.028   2.466   6.744  0.00  0.00    +0.000 C 
BRANCH  21  22
ATOM     22  N   UNL     1      48.457   1.833   5.495  0.00  0.00    +0.000 NA
ATOM     23  H   UNL     1      49.202   2.383   5.072  0.00  0.00    +0.000 HD
ATOM     24  H   UNL     1      47.685   1.835   4.828  0.00  0.00    +0.000 HD
ENDBRANCH  21  22
ENDBRANCH  20  21
ENDBRANCH  14  20
ENDBRANCH   1  17
TORSDOF 6
ENDMDL
MODEL 2
REMARK VINA RESULT:    -6.698      1.563      6.630
REMARK INTER + INTRA:          -9.297
REMARK INTER:                  -9.450
REMARK INTRA:                   0.153
REMARK UNBOUND:                -0.641
REMARK  Name = 
REMARK  6 active torsions:
REMARK  status: ('A' for Active; 'I' for Inactive)
REMARK    1  A    between atoms: N_1  and  C_2
REMARK    2  A    between atoms: C_2  and  C_3
REMARK    3  A    between atoms: C_3  and  C_4
REMARK    4  A    between atoms: C_7  and  C_8
REMARK    5  A    between atoms: C_8  and  N_9
REMARK    6  A    between atoms: C_15  and  N_16
REMARK                            x       y       z     vdW  Elec       q    Type
REMARK                         _______ _______ _______ _____ _____    ______ ____
ROOT
ATOM      1  C   UNL     1      45.170   5.153   9.642  0.00  0.00    +0.000 C 
ENDROOT
BRANCH   1   2
ATOM      2  N   UNL     1      44.938   3.799   9.172  0.00  0.00    +0.000 N 
ATOM      3  C   UNL     1      44.238   2.877   9.941  0.00  0.00    +0.000 A 
ATOM      4  C   UNL     1      44.244   1.709   9.183  0.00  0.00    +0.000 A 
ATOM      5  C   UNL     1      45.494   1.756   8.517  0.00  0.00    +0.000 A 
ATOM      6  C   UNL     1      46.358   0.774   8.015  0.00  0.00    +0.000 A 
ATOM      7  C   UNL     1      47.441   1.179   7.246  0.00  0.00    +0.000 A 
ATOM      8  C   UNL     1      47.607   2.520   6.878  0.00  0.00    +0.000 A 
ATOM      9  C   UNL     1      46.721   3.494   7.369  0.00  0.00    +0.000 A 
ATOM     10  C   UNL     1      45.754   3.107   8.297  0.00  0.00    +0.000 A 
BRANCH   8  11
ATOM     11  N   UNL     1      48.520   2.831   5.864  0.00  0.00    +0.000 N 
ATOM     12  H   UNL     1      48.092   3.192   5.019  0.00  0.00    +0.000 HD
ATOM     13  H   UNL     1      49.210   2.105   5.682  0.00  0.00    +0.000 HD
ENDBRANCH   8  11
ENDBRANCH   1   2
BRANCH   1  17
ATOM     14  C   UNL     1      46.892   5.451  13.634  0.00  0.00    +0.000 A 
ATOM     15  C   UNL     1      47.217   6.398  12.636  0.00  0.00    +0.000 A 
ATOM     16  C   UNL     1      46.674   6.302  11.340  0.00  0.00    +0.000 A 
ATOM     17  C   UNL     1      45.792   5.262  11.010  0.00  0.00    +0.000 A 
ATOM     18  C   UNL     1      45.463   4.328  11.997  0.00  0.00    +0.000 A 
ATOM     19  C   UNL     1      46.001   4.417  13.286  0.00  0.00    +0.000 A 
BRANCH  14  20
ATOM     20  C   UNL     1      47.508   5.505  14.991  0.00  0.00    +0.000 C 
BRANCH  20  21
ATOM     21  C   UNL     1      47.298   4.222  15.799  0.00  0.00    +0.000 C 
BRANCH  21  22
ATOM     22  N   UNL     1      46.871   4.523  17.167  0.00  0.00    +0.000 NA
ATOM     23  H   UNL     1      45.927   4.903  17.153  0.00  0.00    +0.000 HD
ATOM     24  H   UNL     1      47.468   5.251  17.559  0.00  0.00    +0.000 HD
ENDBRANCH  21  22
ENDBRANCH  20  21
ENDBRANCH  14  20
ENDBRANCH   1  17
TORSDOF 6
ENDMDL
MODEL 3
REMARK VINA RESULT:    -6.679      1.760      2.629
REMARK INTER + INTRA:          -9.273
REMARK INTER:                  -8.709
REMARK INTRA:                  -0.564
REMARK UNBOUND:                -0.641
REMARK  Name = 
REMARK  6 active torsions:
REMARK  status: ('A' for Active; 'I' for Inactive)
REMARK    1  A    between atoms: N_1  and  C_2
REMARK    2  A    between atoms: C_2  and  C_3
REMARK    3  A    between atoms: C_3  and  C_4
REMARK    4  A    between atoms: C_7  and  C_8
REMARK    5  A    between atoms: C_8  and  N_9
REMARK    6  A    between atoms: C_15  and  N_16
REMARK                            x       y       z     vdW  Elec       q    Type
REMARK                         _______ _______ _______ _____ _____    ______ ____
ROOT
ATOM      1  C   UNL     1      44.947   5.330  11.283  0.00  0.00    +0.000 C 
ENDROOT
BRANCH   1   2
ATOM      2  N   UNL     1      45.943   5.217  12.335  0.00  0.00    +0.000 N 
ATOM      3  C   UNL     1      45.651   4.591  13.540  0.00  0.00    +0.000 A 
ATOM      4  C   UNL     1      46.821   4.701  14.287  0.00  0.00    +0.000 A 
ATOM      5  C   UNL     1      47.355   5.949  13.878  0.00  0.00    +0.000 A 
ATOM      6  C   UNL     1      48.179   6.897  14.499  0.00  0.00    +0.000 A 
ATOM      7  C   UNL     1      48.667   7.948  13.735  0.00  0.00    +0.000 A 
ATOM      8  C   UNL     1      48.443   8.005  12.354  0.00  0.00    +0.000 A 
ATOM      9  C   UNL     1      47.633   7.036  11.737  0.00  0.00    +0.000 A 
ATOM     10  C   UNL     1      46.989   6.096  12.542  0.00  0.00    +0.000 A 
BRANCH   8  11
ATOM     11  N   UNL     1      49.200   8.897  11.585  0.00  0.00    +0.000 N 
ATOM     12  H   UNL     1      49.999   8.474  11.128  0.00  0.00    +0.000 HD
ATOM     13  H   UNL     1      49.426   9.770  12.057  0.00  0.00    +0.000 HD
ENDBRANCH   8  11
ENDBRANCH   1   2
BRANCH   1  17
ATOM     14  C   UNL     1      45.852   3.255   7.561  0.00  0.00    +0.000 A 
ATOM     15  C   UNL     1      45.072   2.632   8.562  0.00  0.00    +0.000 A 
ATOM     16  C   UNL     1      44.784   3.292   9.773  0.00  0.00    +0.000 A 
ATOM     17  C   UNL     1      45.265   4.587  10.012  0.00  0.00    +0.000 A 
ATOM     18  C   UNL     1      46.032   5.208   9.021  0.00  0.00    +0.000 A 
ATOM     19  C   UNL     1      46.321   4.557   7.816  0.00  0.00    +0.000 A 
BRANCH  14  20
ATOM     20  C   UNL     1      46.215   2.544   6.300  0.00  0.00    +0.000 C 
BRANCH  20  21
ATOM     21  C   UNL     1      47.357   1.541   6.483  0.00  0.00    +0.000 C 
BRANCH  21  22
ATOM     22  N   UNL     1      48.524   1.917   5.682  0.00  0.00    +0.000 NA
ATOM     23  H   UNL     1      49.277   1.252   5.845  0.00  0.00    +0.000 HD
ATOM     24  H   UNL     1      48.871   2.825   5.990  0.00  0.00    +0.000 HD
ENDBRANCH  21  22
ENDBRANCH  20  21
ENDBRANCH  14  20
ENDBRANCH   1  17
TORSDOF 6
ENDMDL
MODEL 4
REMARK VINA RESULT:    -6.467      1.403      3.089
REMARK INTER + INTRA:          -8.998
REMARK INTER:                  -8.410
REMARK INTRA:                  -0.589
REMARK UNBOUND:                -0.641
REMARK  Name = 
REMARK  6 active torsions:
REMARK  status: ('A' for Active; 'I' for Inactive)
REMARK    1  A    between atoms: N_1  and  C_2
REMARK    2  A    between atoms: C_2  and  C_3
REMARK    3  A    between atoms: C_3  and  C_4
REMARK    4  A    between atoms: C_7  and  C_8
REMARK    5  A    between atoms: C_8  and  N_9
REMARK    6  A    between atoms: C_15  and  N_16
REMARK                            x       y       z     vdW  Elec       q    Type
REMARK                         _______ _______ _______ _____ _____    ______ ____
ROOT
ATOM      1  C   UNL     1      44.325   4.867  11.108  0.00  0.00    +0.000 C 
ENDROOT
BRANCH   1   2
ATOM      2  N   UNL     1      45.266   5.768  11.748  0.00  0.00    +0.000 N 
ATOM      3  C   UNL     1      45.938   5.405  12.909  0.00  0.00    +0.000 A 
ATOM      4  C   UNL     1      46.715   6.515  13.228  0.00  0.00    +0.000 A 
ATOM      5  C   UNL     1      45.920   7.607  12.799  0.00  0.00    +0.000 A 
ATOM      6  C   UNL     1      45.815   8.944  13.204  0.00  0.00    +0.000 A 
ATOM      7  C   UNL     1      45.046   9.808  12.436  0.00  0.00    +0.000 A 
ATOM      8  C   UNL     1      44.483   9.392  11.223  0.00  0.00    +0.000 A 
ATOM      9  C   UNL     1      44.613   8.053  10.814  0.00  0.00    +0.000 A 
ATOM     10  C   UNL     1      45.219   7.148  11.685  0.00  0.00    +0.000 A 
BRANCH   8  11
ATOM     11  N   UNL     1      43.986  10.362  10.344  0.00  0.00    +0.000 N 
ATOM     12  H   UNL     1      44.525  10.462   9.492  0.00  0.00    +0.000 HD
ATOM     13  H   UNL     1      43.765  11.253  10.783  0.00  0.00    +0.000 HD
ENDBRANCH   8  11
ENDBRANCH   1   2
BRANCH   1  17
ATOM     14  C   UNL     1      45.945   2.465   7.854  0.00  0.00    +0.000 A 
ATOM     15  C   UNL     1      45.275   1.852   8.938  0.00  0.00    +0.000 A 
ATOM     16  C   UNL     1      44.758   2.620   9.999  0.00  0.00    +0.000 A 
ATOM     17  C   UNL     1      44.895   4.016  10.003  0.00  0.00    +0.000 A 
ATOM     18  C   UNL     1      45.552   4.626   8.930  0.00  0.00    +0.000 A 
ATOM     19  C   UNL     1      46.069   3.867   7.873  0.00  0.00    +0.000 A 
BRANCH  14  20
ATOM     20  C   UNL     1      46.551   1.658   6.755  0.00  0.00    +0.000 C 
BRANCH  20  21
ATOM     21  C   UNL     1      47.144   2.517   5.635  0.00  0.00    +0.000 C 
BRANCH  21  22
ATOM     22  N   UNL     1      48.555   2.193   5.411  0.00  0.00    +0.000 NA
ATOM     23  H   UNL     1      48.625   1.415   4.758  0.00  0.00    +0.000 HD
ATOM     24  H   UNL     1      48.974   1.873   6.284  0.00  0.00    +0.000 HD
ENDBRANCH  21  22
ENDBRANCH  20  21
ENDBRANCH  14  20
ENDBRANCH   1  17
TORSDOF 6
ENDMDL
MODEL 5
REMARK VINA RESULT:    -5.838      1.717      6.618
REMARK INTER + INTRA:          -8.186
REMARK INTER:                  -8.527
REMARK INTRA:                   0.341
REMARK UNBOUND:                -0.641
REMARK  Name = 
REMARK  6 active torsions:
REMARK  status: ('A' for Active; 'I' for Inactive)
REMARK    1  A    between atoms: N_1  and  C_2
REMARK    2  A    between atoms: C_2  and  C_3
REMARK    3  A    between atoms: C_3  and  C_4
REMARK    4  A    between atoms: C_7  and  C_8
REMARK    5  A    between atoms: C_8  and  N_9
REMARK    6  A    between atoms: C_15  and  N_16
REMARK                            x       y       z     vdW  Elec       q    Type
REMARK                         _______ _______ _______ _____ _____    ______ ____
ROOT
ATOM      1  C   UNL     1      45.923   6.410  11.502  0.00  0.00    +0.000 C 
ENDROOT
BRANCH   1   2
ATOM      2  N   UNL     1      44.973   5.475  10.924  0.00  0.00    +0.000 N 
ATOM      3  C   UNL     1      44.042   4.812  11.714  0.00  0.00    +0.000 A 
ATOM      4  C   UNL     1      43.340   4.001  10.826  0.00  0.00    +0.000 A 
ATOM      5  C   UNL     1      44.320   3.640   9.867  0.00  0.00    +0.000 A 
ATOM      6  C   UNL     1      44.483   2.534   9.022  0.00  0.00    +0.000 A 
ATOM      7  C   UNL     1      45.482   2.581   8.060  0.00  0.00    +0.000 A 
ATOM      8  C   UNL     1      46.235   3.744   7.852  0.00  0.00    +0.000 A 
ATOM      9  C   UNL     1      46.047   4.857   8.691  0.00  0.00    +0.000 A 
ATOM     10  C   UNL     1      45.180   4.732   9.777  0.00  0.00    +0.000 A 
BRANCH   8  11
ATOM     11  N   UNL     1      47.003   3.850   6.687  0.00  0.00    +0.000 N 
ATOM     12  H   UNL     1      47.088   2.984   6.168  0.00  0.00    +0.000 HD
ATOM     13  H   UNL     1      47.893   4.328   6.813  0.00  0.00    +0.000 HD
ENDBRANCH   8  11
ENDBRANCH   1   2
BRANCH   1  17
ATOM     14  C   UNL     1      47.651   5.117  15.287  0.00  0.00    +0.000 A 
ATOM     15  C   UNL     1      47.975   6.380  14.740  0.00  0.00    +0.000 A 
ATOM     16  C   UNL     1      47.430   6.801  13.512  0.00  0.00    +0.000 A 
ATOM     17  C   UNL     1      46.547   5.973  12.802  0.00  0.00    +0.000 A 
ATOM     18  C   UNL     1      46.220   4.727  13.342  0.00  0.00    +0.000 A 
ATOM     19  C   UNL     1      46.760   4.303  14.562  0.00  0.00    +0.000 A 
BRANCH  14  20
ATOM     20  C   UNL     1      48.270   4.634  16.555  0.00  0.00    +0.000 C 
BRANCH  20  21
ATOM     21  C   UNL     1      47.243   4.345  17.653  0.00  0.00    +0.000 C 
BRANCH  21  22
ATOM     22  N   UNL     1      46.949   2.912  17.737  0.00  0.00    +0.000 NA
ATOM     23  H   UNL     1      46.497   2.606  16.878  0.00  0.00    +0.000 HD
ATOM     24  H   UNL     1      46.282   2.743  18.489  0.00  0.00    +0.000 HD
ENDBRANCH  21  22
ENDBRANCH  20  21
ENDBRANCH  14  20
ENDBRANCH   1  17
TORSDOF 6
ENDMDL
MODEL 6
REMARK VINA RESULT:    -5.784      2.808      6.378
REMARK INTER + INTRA:          -8.116
REMARK INTER:                  -7.811
REMARK INTRA:                  -0.306
REMARK UNBOUND:                -0.641
REMARK  Name = 
REMARK  6 active torsions:
REMARK  status: ('A' for Active; 'I' for Inactive)
REMARK    1  A    between atoms: N_1  and  C_2
REMARK    2  A    between atoms: C_2  and  C_3
REMARK    3  A    between atoms: C_3  and  C_4
REMARK    4  A    between atoms: C_7  and  C_8
REMARK    5  A    between atoms: C_8  and  N_9
REMARK    6  A    between atoms: C_15  and  N_16
REMARK                            x       y       z     vdW  Elec       q    Type
REMARK                         _______ _______ _______ _____ _____    ______ ____
ROOT
ATOM      1  C   UNL     1      47.516   6.733  11.949  0.00  0.00    +0.000 C 
ENDROOT
BRANCH   1   2
ATOM      2  N   UNL     1      46.140   6.979  11.554  0.00  0.00    +0.000 N 
ATOM      3  C   UNL     1      45.457   8.110  11.984  0.00  0.00    +0.000 A 
ATOM      4  C   UNL     1      44.185   7.984  11.433  0.00  0.00    +0.000 A 
ATOM      5  C   UNL     1      43.962   6.584  11.437  0.00  0.00    +0.000 A 
ATOM      6  C   UNL     1      42.810   5.789  11.497  0.00  0.00    +0.000 A 
ATOM      7  C   UNL     1      42.940   4.422  11.298  0.00  0.00    +0.000 A 
ATOM      8  C   UNL     1      44.168   3.857  10.929  0.00  0.00    +0.000 A 
ATOM      9  C   UNL     1      45.313   4.668  10.848  0.00  0.00    +0.000 A 
ATOM     10  C   UNL     1      45.213   6.003  11.240  0.00  0.00    +0.000 A 
BRANCH   8  11
ATOM     11  N   UNL     1      44.186   2.545  10.443  0.00  0.00    +0.000 N 
ATOM     12  H   UNL     1      43.269   2.118  10.372  0.00  0.00    +0.000 HD
ATOM     13  H   UNL     1      44.873   1.941  10.889  0.00  0.00    +0.000 HD
ENDBRANCH   8  11
ENDBRANCH   1   2
BRANCH   1  17
ATOM     14  C   UNL     1      47.964   5.178  15.995  0.00  0.00    +0.000 A 
ATOM     15  C   UNL     1      48.653   6.344  15.590  0.00  0.00    +0.000 A 
ATOM     16  C   UNL     1      48.523   6.846  14.281  0.00  0.00    +0.000 A 
ATOM     17  C   UNL     1      47.700   6.200  13.346  0.00  0.00    +0.000 A 
ATOM     18  C   UNL     1      47.012   5.051  13.745  0.00  0.00    +0.000 A 
ATOM     19  C   UNL     1      47.139   4.546  15.045  0.00  0.00    +0.000 A 
BRANCH  14  20
ATOM     20  C   UNL     1      48.141   4.600  17.359  0.00  0.00    +0.000 C 
BRANCH  20  21
ATOM     21  C   UNL     1      48.005   3.076  17.389  0.00  0.00    +0.000 C 
BRANCH  21  22
ATOM     22  N   UNL     1      46.669   2.673  17.831  0.00  0.00    +0.000 NA
ATOM     23  H   UNL     1      45.989   2.896  17.107  0.00  0.00    +0.000 HD
ATOM     24  H   UNL     1      46.402   3.217  18.652  0.00  0.00    +0.000 HD
ENDBRANCH  21  22
ENDBRANCH  20  21
ENDBRANCH  14  20
ENDBRANCH   1  17
TORSDOF 6
ENDMDL
MODEL 7
REMARK VINA RESULT:    -5.737      2.315      4.261
REMARK INTER + INTRA:          -8.056
REMARK INTER:                  -7.537
REMARK INTRA:                  -0.519
REMARK UNBOUND:                -0.641
REMARK  Name = 
REMARK  6 active torsions:
REMARK  status: ('A' for Active; 'I' for Inactive)
REMARK    1  A    between atoms: N_1  and  C_2
REMARK    2  A    between atoms: C_2  and  C_3
REMARK    3  A    between atoms: C_3  and  C_4
REMARK    4  A    between atoms: C_7  and  C_8
REMARK    5  A    between atoms: C_8  and  N_9
REMARK    6  A    between atoms: C_15  and  N_16
REMARK                            x       y       z     vdW  Elec       q    Type
REMARK                         _______ _______ _______ _____ _____    ______ ____
ROOT
ATOM      1  C   UNL     1      44.995   6.559  12.880  0.00  0.00    +0.000 C 
ENDROOT
BRANCH   1   2
ATOM      2  N   UNL     1      45.719   7.732  12.426  0.00  0.00    +0.000 N 
ATOM      3  C   UNL     1      46.871   8.164  13.071  0.00  0.00    +0.000 A 
ATOM      4  C   UNL     1      47.257   9.307  12.377  0.00  0.00    +0.000 A 
ATOM      5  C   UNL     1      46.023   9.882  11.980  0.00  0.00    +0.000 A 
ATOM      6  C   UNL     1      45.612  11.192  11.704  0.00  0.00    +0.000 A 
ATOM      7  C   UNL     1      44.351  11.387  11.158  0.00  0.00    +0.000 A 
ATOM      8  C   UNL     1      43.550  10.303  10.780  0.00  0.00    +0.000 A 
ATOM      9  C   UNL     1      43.981   8.991  11.041  0.00  0.00    +0.000 A 
ATOM     10  C   UNL     1      45.160   8.809  11.765  0.00  0.00    +0.000 A 
BRANCH   8  11
ATOM     11  N   UNL     1      42.438  10.539   9.963  0.00  0.00    +0.000 N 
ATOM     12  H   UNL     1      41.592  10.074  10.271  0.00  0.00    +0.000 HD
ATOM     13  H   UNL     1      42.616  10.425   8.967  0.00  0.00    +0.000 HD
ENDBRANCH   8  11
ENDBRANCH   1   2
BRANCH   1  17
ATOM     14  C   UNL     1      44.746   3.340   9.954  0.00  0.00    +0.000 A 
ATOM     15  C   UNL     1      44.186   3.188  11.243  0.00  0.00    +0.000 A 
ATOM     16  C   UNL     1      44.272   4.218  12.198  0.00  0.00    +0.000 A 
ATOM     17  C   UNL     1      44.916   5.426  11.890  0.00  0.00    +0.000 A 
ATOM     18  C   UNL     1      45.465   5.583  10.614  0.00  0.00    +0.000 A 
ATOM     19  C   UNL     1      45.384   4.561   9.661  0.00  0.00    +0.000 A 
BRANCH  14  20
ATOM     20  C   UNL     1      44.716   2.233   8.954  0.00  0.00    +0.000 C 
BRANCH  20  21
ATOM     21  C   UNL     1      46.017   2.108   8.156  0.00  0.00    +0.000 C 
BRANCH  21  22
ATOM     22  N   UNL     1      46.454   0.713   8.074  0.00  0.00    +0.000 NA
ATOM     23  H   UNL     1      46.179   0.322   7.175  0.00  0.00    +0.000 HD
ATOM     24  H   UNL     1      45.974   0.162   8.786  0.00  0.00    +0.000 HD
ENDBRANCH  21  22
ENDBRANCH  20  21
ENDBRANCH  14  20
ENDBRANCH   1  17
TORSDOF 6
ENDMDL
MODEL 8
REMARK VINA RESULT:    -5.556      4.353      7.903
REMARK INTER + INTRA:          -7.822
REMARK INTER:                  -7.245
REMARK INTRA:                  -0.576
REMARK UNBOUND:                -0.641
REMARK  Name = 
REMARK  6 active torsions:
REMARK  status: ('A' for Active; 'I' for Inactive)
REMARK    1  A    between atoms: N_1  and  C_2
REMARK    2  A    between atoms: C_2  and  C_3
REMARK    3  A    between atoms: C_3  and  C_4
REMARK    4  A    between atoms: C_7  and  C_8
REMARK    5  A    between atoms: C_8  and  N_9
REMARK    6  A    between atoms: C_15  and  N_16
REMARK                            x       y       z     vdW  Elec       q    Type
REMARK                         _______ _______ _______ _____ _____    ______ ____
ROOT
ATOM      1  C   UNL     1      48.232   5.324  16.704  0.00  0.00    +0.000 C 
ENDROOT
BRANCH   1   2
ATOM      2  N   UNL     1      48.262   5.859  15.354  0.00  0.00    +0.000 N 
ATOM      3  C   UNL     1      48.549   7.197  15.115  0.00  0.00    +0.000 A 
ATOM      4  C   UNL     1      48.460   7.335  13.733  0.00  0.00    +0.000 A 
ATOM      5  C   UNL     1      47.434   6.424  13.377  0.00  0.00    +0.000 A 
ATOM      6  C   UNL     1      46.512   6.369  12.324  0.00  0.00    +0.000 A 
ATOM      7  C   UNL     1      45.748   5.220  12.175  0.00  0.00    +0.000 A 
ATOM      8  C   UNL     1      45.966   4.095  12.979  0.00  0.00    +0.000 A 
ATOM      9  C   UNL     1      46.909   4.152  14.020  0.00  0.00    +0.000 A 
ATOM     10  C   UNL     1      47.533   5.372  14.286  0.00  0.00    +0.000 A 
BRANCH   8  11
ATOM     11  N   UNL     1      45.397   2.874  12.598  0.00  0.00    +0.000 N 
ATOM     12  H   UNL     1      46.064   2.203  12.234  0.00  0.00    +0.000 HD
ATOM     13  H   UNL     1      44.564   2.961  12.021  0.00  0.00    +0.000 HD
ENDBRANCH   8  11
ENDBRANCH   1   2
BRANCH   1  17
ATOM     14  C   UNL     1      51.684   2.880  17.750  0.00  0.00    +0.000 A 
ATOM     15  C   UNL     1      50.460   2.278  17.379  0.00  0.00    +0.000 A 
ATOM     16  C   UNL     1      49.337   3.060  17.050  0.00  0.00    +0.000 A 
ATOM     17  C   UNL     1      49.408   4.461  17.081  0.00  0.00    +0.000 A 
ATOM     18  C   UNL     1      50.618   5.060  17.442  0.00  0.00    +0.000 A 
ATOM     19  C   UNL     1      51.738   4.287  17.770  0.00  0.00    +0.000 A 
BRANCH  14  20
ATOM     20  C   UNL     1      52.864   2.064  18.159  0.00  0.00    +0.000 C 
BRANCH  20  21
ATOM     21  C   UNL     1      52.924   0.702  17.461  0.00  0.00    +0.000 C 
BRANCH  21  22
ATOM     22  N   UNL     1      52.741  -0.391  18.418  0.00  0.00    +0.000 NA
ATOM     23  H   UNL     1      51.857  -0.270  18.908  0.00  0.00    +0.000 HD
ATOM     24  H   UNL     1      53.471  -0.349  19.129  0.00  0.00    +0.000 HD
ENDBRANCH  21  22
ENDBRANCH  20  21
ENDBRANCH  14  20
ENDBRANCH   1  17
TORSDOF 6
ENDMDL
MODEL 9
REMARK VINA RESULT:    -5.545      2.451      3.222
REMARK INTER + INTRA:          -7.807
REMARK INTER:                  -7.533
REMARK INTRA:                  -0.274
REMARK UNBOUND:                -0.641
REMARK  Name = 
REMARK  6 active torsions:
REMARK  status: ('A' for Active; 'I' for Inactive)
REMARK    1  A    between atoms: N_1  and  C_2
REMARK    2  A    between atoms: C_2  and  C_3
REMARK    3  A    between atoms: C_3  and  C_4
REMARK    4  A    between atoms: C_7  and  C_8
REMARK    5  A    between atoms: C_8  and  N_9
REMARK    6  A    between atoms: C_15  and  N_16
REMARK                            x       y       z     vdW  Elec       q    Type
REMARK                         _______ _______ _______ _____ _____    ______ ____
ROOT
ATOM      1  C   UNL     1      45.887   5.972  13.092  0.00  0.00    +0.000 C 
ENDROOT
BRANCH   1   2
ATOM      2  N   UNL     1      46.212   7.383  12.979  0.00  0.00    +0.000 N 
ATOM      3  C   UNL     1      45.276   8.305  12.528  0.00  0.00    +0.000 A 
ATOM      4  C   UNL     1      45.951   9.523  12.531  0.00  0.00    +0.000 A 
ATOM      5  C   UNL     1      47.282   9.162  12.202  0.00  0.00    +0.000 A 
ATOM      6  C   UNL     1      48.339   9.836  11.578  0.00  0.00    +0.000 A 
ATOM      7  C   UNL     1      49.592   9.237  11.572  0.00  0.00    +0.000 A 
ATOM      8  C   UNL     1      49.829   8.046  12.270  0.00  0.00    +0.000 A 
ATOM      9  C   UNL     1      48.765   7.389  12.913  0.00  0.00    +0.000 A 
ATOM     10  C   UNL     1      47.475   7.895  12.750  0.00  0.00    +0.000 A 
BRANCH   8  11
ATOM     11  N   UNL     1      51.152   7.648  12.493  0.00  0.00    +0.000 N 
ATOM     12  H   UNL     1      51.329   6.670  12.293  0.00  0.00    +0.000 HD
ATOM     13  H   UNL     1      51.537   7.948  13.386  0.00  0.00    +0.000 HD
ENDBRANCH   8  11
ENDBRANCH   1   2
BRANCH   1  17
ATOM     14  C   UNL     1      45.128   3.993   9.285  0.00  0.00    +0.000 A 
ATOM     15  C   UNL     1      44.765   3.375  10.504  0.00  0.00    +0.000 A 
ATOM     16  C   UNL     1      45.017   4.003  11.739  0.00  0.00    +0.000 A 
ATOM     17  C   UNL     1      45.634   5.262  11.788  0.00  0.00    +0.000 A 
ATOM     18  C   UNL     1      45.988   5.878  10.584  0.00  0.00    +0.000 A 
ATOM     19  C   UNL     1      45.741   5.258   9.353  0.00  0.00    +0.000 A 
BRANCH  14  20
ATOM     20  C   UNL     1      44.923   3.312   7.974  0.00  0.00    +0.000 C 
BRANCH  20  21
ATOM     21  C   UNL     1      46.224   3.103   7.194  0.00  0.00    +0.000 C 
BRANCH  21  22
ATOM     22  N   UNL     1      46.854   1.830   7.552  0.00  0.00    +0.000 NA
ATOM     23  H   UNL     1      47.530   1.572   6.835  0.00  0.00    +0.000 HD
ATOM     24  H   UNL     1      46.151   1.091   7.561  0.00  0.00    +0.000 HD
ENDBRANCH  21  22
ENDBRANCH  20  21
ENDBRANCH  14  20
ENDBRANCH   1  17
TORSDOF 6
ENDMDL
