MODEL 1
REMARK VINA RESULT:    -7.701      0.000      0.000
REMARK INTER + INTRA:         -14.411
REMARK INTER:                 -12.428
REMARK INTRA:                  -1.983
REMARK UNBOUND:                -1.983
REMARK  Name = 
REMARK  11 active torsions:
REMARK  status: ('A' for Active; 'I' for Inactive)
REMARK    1  A    between atoms: N_1  and  C_2
REMARK    2  A    between atoms: C_2  and  C_3
REMARK    3  A    between atoms: C_3  and  N_4
REMARK    4  A    between atoms: N_4  and  C_5
REMARK    5  A    between atoms: C_5  and  C_6
REMARK    6  A    between atoms: C_5  and  C_21
REMARK    7  A    between atoms: C_6  and  C_7
REMARK    8  A    between atoms: C_10  and  C_11
REMARK    9  A    between atoms: C_11  and  N_12
REMARK   10  A    between atoms: N_12  and  C_13
REMARK   11  A    between atoms: C_21  and  C_23
REMARK                            x       y       z     vdW  Elec       q    Type
REMARK                         _______ _______ _______ _____ _____    ______ ____
ROOT
ATOM      1  C   UNL     1      47.640   8.007  13.234  0.00  0.00    +0.000 C 
ENDROOT
BRANCH   1   2
ATOM      2  N   UNL     1      48.301   8.413  11.953  0.00  0.00    +0.000 NA
ATOM      3  H   UNL     1      48.689   7.570  11.519  0.00  0.00    +0.000 HD
BRANCH   2   4
ATOM      4  C   UNL     1      49.409   9.363  12.080  0.00  0.00    +0.000 C 
BRANCH   4   5
ATOM      5  C   UNL     1      50.813   8.730  12.152  0.00  0.00    +0.000 C 
BRANCH   5   6
ATOM      6  N   UNL     1      50.903   7.480  11.381  0.00  0.00    +0.000 NA
ATOM      7  H   UNL     1      50.957   6.706  12.045  0.00  0.00    +0.000 HD
ATOM      8  H   UNL     1      51.799   7.470  10.888  0.00  0.00    +0.000 HD
ENDBRANCH   5   6
ENDBRANCH   4   5
ENDBRANCH   2   4
ENDBRANCH   1   2
BRANCH   1   9
ATOM      9  C   UNL     1      48.299   6.665  13.643  0.00  0.00    +0.000 C 
ATOM     10  O   UNL     1      48.716   5.881  12.785  0.00  0.00    +0.000 OA
BRANCH   9  11
ATOM     11  C   UNL     1      48.576   6.375  15.067  0.00  0.00    +0.000 A 
ATOM     12  C   UNL     1      49.360   7.253  15.803  0.00  0.00    +0.000 A 
ATOM     13  S   UNL     1      49.387   6.900  17.472  0.00  0.00    +0.000 S 
ATOM     14  C   UNL     1      48.391   5.539  17.249  0.00  0.00    +0.000 A 
ATOM     15  N   UNL     1      47.943   4.813  18.309  0.00  0.00    +0.000 NA
ATOM     16  C   UNL     1      47.185   3.821  17.984  0.00  0.00    +0.000 A 
ATOM     17  N   UNL     1      46.886   3.445  16.703  0.00  0.00    +0.000 N 
ATOM     18  C   UNL     1      47.486   4.030  15.619  0.00  0.00    +0.000 A 
ATOM     19  O   UNL     1      47.541   3.457  14.533  0.00  0.00    +0.000 OA
ATOM     20  C   UNL     1      48.147   5.290  15.912  0.00  0.00    +0.000 A 
ATOM     21  H   UNL     1      46.401   2.581  16.521  0.00  0.00    +0.000 HD
ENDBRANCH   9  11
ENDBRANCH   1   9
BRANCH   1  22
ATOM     22  C   UNL     1      46.099   7.878  13.140  0.00  0.00    +0.000 C 
BRANCH  22  23
ATOM     23  C   UNL     1      45.449   6.693  12.433  0.00  0.00    +0.000 A 
ATOM     24  C   UNL     1      45.542   6.642  11.031  0.00  0.00    +0.000 A 
ATOM     25  C   UNL     1      45.257   5.467  10.328  0.00  0.00    +0.000 A 
ATOM     26  C   UNL     1      44.855   4.313  11.008  0.00  0.00    +0.000 A 
ATOM     27  C   UNL     1      44.664   4.385  12.389  0.00  0.00    +0.000 A 
ATOM     28  C   UNL     1      44.944   5.564  13.087  0.00  0.00    +0.000 A 
BRANCH  26  29
ATOM     29  C   UNL     1      44.707   3.000  10.281  0.00  0.00    +0.000 C 
BRANCH  29  30
ATOM     30  N   UNL     1      44.737   3.239   8.836  0.00  0.00    +0.000 N 
ATOM     31  H   UNL     1      44.615   4.224   8.616  0.00  0.00    +0.000 HD
BRANCH  30  32
ATOM     32  C   UNL     1      45.752   2.637   8.082  0.00  0.00    +0.000 A 
ATOM     33  C   UNL     1      46.613   3.358   7.254  0.00  0.00    +0.000 A 
ATOM     34  C   UNL     1      47.638   2.697   6.592  0.00  0.00    +0.000 A 
ATOM     35  N   UNL     1      47.879   1.377   6.708  0.00  0.00    +0.000 NA
ATOM     36  C   UNL     1      47.072   0.700   7.548  0.00  0.00    +0.000 A 
ATOM     37  C   UNL     1      46.026   1.278   8.256  0.00  0.00    +0.000 A 
ENDBRANCH  30  32
ENDBRANCH  29  30
ENDBRANCH  26  29
ENDBRANCH  22  23
ENDBRANCH   1  22
TORSDOF 11
ENDMDL
MODEL 2
REMARK VINA RESULT:    -7.574      2.265      3.371
REMARK INTER + INTRA:         -14.206
REMARK INTER:                 -12.768
REMARK INTRA:                  -1.438
REMARK UNBOUND:                -1.983
REMARK  Name = 
REMARK  11 active torsions:
REMARK  status: ('A' for Active; 'I' for Inactive)
REMARK    1  A    between atoms: N_1  and  C_2
REMARK    2  A    between atoms: C_2  and  C_3
REMARK    3  A    between atoms: C_3  and  N_4
REMARK    4  A    between atoms: N_4  and  C_5
REMARK    5  A    between atoms: C_5  and  C_6
REMARK    6  A    between atoms: C_5  and  C_21
REMARK    7  A    between atoms: C_6  and  C_7
REMARK    8  A    between atoms: C_10  and  C_11
REMARK    9  A    between atoms: C_11  and  N_12
REMARK   10  A    between atoms: N_12  and  C_13
REMARK   11  A    between atoms: C_21  and  C_23
REMARK                            x       y       z     vdW  Elec       q    Type
REMARK                         _______ _______ _______ _____ _____    ______ ____
ROOT
ATOM      1  C   UNL     1      47.280   4.948  15.519  0.00  0.00    +0.000 C 
ENDROOT
BRANCH   1   2
ATOM      2  N   UNL     1      48.614   5.625  15.459  0.00  0.00    +0.000 NA
ATOM      3  H   UNL     1      48.990   5.664  16.410  0.00  0.00    +0.000 HD
BRANCH   2   4
ATOM      4  C   UNL     1      48.609   7.002  14.956  0.00  0.00    +0.000 C 
BRANCH   4   5
ATOM      5  C   UNL     1      48.673   8.096  16.040  0.00  0.00    +0.000 C 
BRANCH   5   6
ATOM      6  N   UNL     1      47.593   9.085  15.902  0.00  0.00    +0.000 NA
ATOM      7  H   UNL     1      47.899   9.948  16.355  0.00  0.00    +0.000 HD
ATOM      8  H   UNL     1      46.792   8.766  16.453  0.00  0.00    +0.000 HD
ENDBRANCH   5   6
ENDBRANCH   4   5
ENDBRANCH   2   4
ENDBRANCH   1   2
BRANCH   1   9
ATOM      9  C   UNL     1      47.177   4.344  16.943  0.00  0.00    +0.000 C 
ATOM     10  O   UNL     1      46.712   3.213  17.115  0.00  0.00    +0.000 OA
BRANCH   9  11
ATOM     11  C   UNL     1      47.774   5.052  18.096  0.00  0.00    +0.000 A 
ATOM     12  C   UNL     1      47.005   5.959  18.813  0.00  0.00    +0.000 A 
ATOM     13  S   UNL     1      47.762   6.508  20.241  0.00  0.00    +0.000 S 
ATOM     14  C   UNL     1      49.153   5.584  19.916  0.00  0.00    +0.000 A 
ATOM     15  N   UNL     1      50.181   5.523  20.804  0.00  0.00    +0.000 NA
ATOM     16  C   UNL     1      51.159   4.772  20.426  0.00  0.00    +0.000 A 
ATOM     17  N   UNL     1      51.238   4.130  19.220  0.00  0.00    +0.000 N 
ATOM     18  C   UNL     1      50.316   4.338  18.228  0.00  0.00    +0.000 A 
ATOM     19  O   UNL     1      50.580   4.104  17.052  0.00  0.00    +0.000 OA
ATOM     20  C   UNL     1      49.089   4.969  18.679  0.00  0.00    +0.000 A 
ATOM     21  H   UNL     1      52.089   3.671  18.937  0.00  0.00    +0.000 HD
ENDBRANCH   9  11
ENDBRANCH   1   9
BRANCH   1  22
ATOM     22  C   UNL     1      47.066   3.870  14.428  0.00  0.00    +0.000 C 
BRANCH  22  23
ATOM     23  C   UNL     1      46.206   4.150  13.200  0.00  0.00    +0.000 A 
ATOM     24  C   UNL     1      46.401   5.374  12.535  0.00  0.00    +0.000 A 
ATOM     25  C   UNL     1      45.895   5.588  11.249  0.00  0.00    +0.000 A 
ATOM     26  C   UNL     1      45.166   4.589  10.597  0.00  0.00    +0.000 A 
ATOM     27  C   UNL     1      44.884   3.410  11.289  0.00  0.00    +0.000 A 
ATOM     28  C   UNL     1      45.386   3.202  12.577  0.00  0.00    +0.000 A 
BRANCH  26  29
ATOM     29  C   UNL     1      44.762   4.746   9.153  0.00  0.00    +0.000 C 
BRANCH  29  30
ATOM     30  N   UNL     1      44.580   3.422   8.553  0.00  0.00    +0.000 N 
ATOM     31  H   UNL     1      43.778   3.400   7.928  0.00  0.00    +0.000 HD
BRANCH  30  32
ATOM     32  C   UNL     1      45.700   2.773   8.019  0.00  0.00    +0.000 A 
ATOM     33  C   UNL     1      45.952   1.413   8.207  0.00  0.00    +0.000 A 
ATOM     34  C   UNL     1      47.048   0.828   7.588  0.00  0.00    +0.000 A 
ATOM     35  N   UNL     1      47.899   1.493   6.783  0.00  0.00    +0.000 NA
ATOM     36  C   UNL     1      47.618   2.794   6.570  0.00  0.00    +0.000 A 
ATOM     37  C   UNL     1      46.542   3.460   7.141  0.00  0.00    +0.000 A 
ENDBRANCH  30  32
ENDBRANCH  29  30
ENDBRANCH  26  29
ENDBRANCH  22  23
ENDBRANCH   1  22
TORSDOF 11
ENDMDL
MODEL 3
REMARK VINA RESULT:    -7.462      2.343      3.210
REMARK INTER + INTRA:         -14.025
REMARK INTER:                 -13.287
REMARK INTRA:                  -0.738
REMARK UNBOUND:                -1.983
REMARK  Name = 
REMARK  11 active torsions:
REMARK  status: ('A' for Active; 'I' for Inactive)
REMARK    1  A    between atoms: N_1  and  C_2
REMARK    2  A    between atoms: C_2  and  C_3
REMARK    3  A    between atoms: C_3  and  N_4
REMARK    4  A    between atoms: N_4  and  C_5
REMARK    5  A    between atoms: C_5  and  C_6
REMARK    6  A    between atoms: C_5  and  C_21
REMARK    7  A    between atoms: C_6  and  C_7
REMARK    8  A    between atoms: C_10  and  C_11
REMARK    9  A    between atoms: C_11  and  N_12
REMARK   10  A    between atoms: N_12  and  C_13
REMARK   11  A    between atoms: C_21  and  C_23
REMARK                            x       y       z     vdW  Elec       q    Type
REMARK                         _______ _______ _______ _____ _____    ______ ____
ROOT
ATOM      1  C   UNL     1      47.481   5.145  15.465  0.00  0.00    +0.000 C 
ENDROOT
BRANCH   1   2
ATOM      2  N   UNL     1      48.623   5.997  15.004  0.00  0.00    +0.000 NA
ATOM      3  H   UNL     1      49.452   5.731  15.543  0.00  0.00    +0.000 HD
BRANCH   2   4
ATOM      4  C   UNL     1      48.455   7.441  15.184  0.00  0.00    +0.000 C 
BRANCH   4   5
ATOM      5  C   UNL     1      48.048   8.218  13.916  0.00  0.00    +0.000 C 
BRANCH   5   6
ATOM      6  N   UNL     1      46.722   8.841  14.042  0.00  0.00    +0.000 NA
ATOM      7  H   UNL     1      46.806   9.817  13.754  0.00  0.00    +0.000 HD
ATOM      8  H   UNL     1      46.476   8.877  15.034  0.00  0.00    +0.000 HD
ENDBRANCH   5   6
ENDBRANCH   4   5
ENDBRANCH   2   4
ENDBRANCH   1   2
BRANCH   1   9
ATOM      9  C   UNL     1      47.886   4.619  16.867  0.00  0.00    +0.000 C 
ATOM     10  O   UNL     1      47.037   4.158  17.635  0.00  0.00    +0.000 OA
BRANCH   9  11
ATOM     11  C   UNL     1      49.314   4.523  17.241  0.00  0.00    +0.000 A 
ATOM     12  C   UNL     1      49.975   5.651  17.707  0.00  0.00    +0.000 A 
ATOM     13  S   UNL     1      51.536   5.318  18.311  0.00  0.00    +0.000 S 
ATOM     14  C   UNL     1      51.387   3.668  17.925  0.00  0.00    +0.000 A 
ATOM     15  N   UNL     1      52.354   2.775  18.265  0.00  0.00    +0.000 NA
ATOM     16  C   UNL     1      52.093   1.560  17.920  0.00  0.00    +0.000 A 
ATOM     17  N   UNL     1      50.993   1.162  17.210  0.00  0.00    +0.000 N 
ATOM     18  C   UNL     1      50.110   2.065  16.679  0.00  0.00    +0.000 A 
ATOM     19  O   UNL     1      49.381   1.766  15.737  0.00  0.00    +0.000 OA
ATOM     20  C   UNL     1      50.219   3.402  17.235  0.00  0.00    +0.000 A 
ATOM     21  H   UNL     1      50.922   0.221  16.859  0.00  0.00    +0.000 HD
ENDBRANCH   9  11
ENDBRANCH   1   9
BRANCH   1  22
ATOM     22  C   UNL     1      47.127   3.984  14.504  0.00  0.00    +0.000 C 
BRANCH  22  23
ATOM     23  C   UNL     1      46.236   4.211  13.287  0.00  0.00    +0.000 A 
ATOM     24  C   UNL     1      46.418   5.402  12.561  0.00  0.00    +0.000 A 
ATOM     25  C   UNL     1      45.880   5.560  11.280  0.00  0.00    +0.000 A 
ATOM     26  C   UNL     1      45.130   4.536  10.694  0.00  0.00    +0.000 A 
ATOM     27  C   UNL     1      44.862   3.391  11.447  0.00  0.00    +0.000 A 
ATOM     28  C   UNL     1      45.396   3.240  12.730  0.00  0.00    +0.000 A 
BRANCH  26  29
ATOM     29  C   UNL     1      44.688   4.628   9.255  0.00  0.00    +0.000 C 
BRANCH  29  30
ATOM     30  N   UNL     1      44.517   3.278   8.713  0.00  0.00    +0.000 N 
ATOM     31  H   UNL     1      43.685   3.209   8.132  0.00  0.00    +0.000 HD
BRANCH  30  32
ATOM     32  C   UNL     1      45.628   2.642   8.144  0.00  0.00    +0.000 A 
ATOM     33  C   UNL     1      45.881   1.278   8.292  0.00  0.00    +0.000 A 
ATOM     34  C   UNL     1      46.967   0.709   7.639  0.00  0.00    +0.000 A 
ATOM     35  N   UNL     1      47.806   1.395   6.839  0.00  0.00    +0.000 NA
ATOM     36  C   UNL     1      47.523   2.701   6.665  0.00  0.00    +0.000 A 
ATOM     37  C   UNL     1      46.456   3.352   7.271  0.00  0.00    +0.000 A 
ENDBRANCH  30  32
ENDBRANCH  29  30
ENDBRANCH  26  29
ENDBRANCH  22  23
ENDBRANCH   1  22
TORSDOF 11
ENDMDL
MODEL 4
REMARK VINA RESULT:    -7.190      2.381      3.590
REMARK INTER + INTRA:         -13.587
REMARK INTER:                 -12.311
REMARK INTRA:                  -1.276
REMARK UNBOUND:                -1.983
REMARK  Name = 
REMARK  11 active torsions:
REMARK  status: ('A' for Active; 'I' for Inactive)
REMARK    1  A    between atoms: N_1  and  C_2
REMARK    2  A    between atoms: C_2  and  C_3
REMARK    3  A    between atoms: C_3  and  N_4
REMARK    4  A    between atoms: N_4  and  C_5
REMARK    5  A    between atoms: C_5  and  C_6
REMARK    6  A    between atoms: C_5  and  C_21
REMARK    7  A    between atoms: C_6  and  C_7
REMARK    8  A    between atoms: C_10  and  C_11
REMARK    9  A    between atoms: C_11  and  N_12
REMARK   10  A    between atoms: N_12  and  C_13
REMARK   11  A    between atoms: C_21  and  C_23
REMARK                            x       y       z     vdW  Elec       q    Type
REMARK                         _______ _______ _______ _____ _____    ______ ____
ROOT
ATOM      1  C   UNL     1      47.066   4.731  15.846  0.00  0.00    +0.000 C 
ENDROOT
BRANCH   1   2
ATOM      2  N   UNL     1      47.863   5.929  16.263  0.00  0.00    +0.000 NA
ATOM      3  H   UNL     1      47.204   6.667  16.527  0.00  0.00    +0.000 HD
BRANCH   2   4
ATOM      4  C   UNL     1      48.740   6.500  15.238  0.00  0.00    +0.000 C 
BRANCH   4   5
ATOM      5  C   UNL     1      50.080   7.057  15.758  0.00  0.00    +0.000 C 
BRANCH   5   6
ATOM      6  N   UNL     1      50.972   7.478  14.667  0.00  0.00    +0.000 NA
ATOM      7  H   UNL     1      51.560   6.681  14.417  0.00  0.00    +0.000 HD
ATOM      8  H   UNL     1      51.619   8.181  15.033  0.00  0.00    +0.000 HD
ENDBRANCH   5   6
ENDBRANCH   4   5
ENDBRANCH   2   4
ENDBRANCH   1   2
BRANCH   1   9
ATOM      9  C   UNL     1      47.334   3.650  16.925  0.00  0.00    +0.000 C 
ATOM     10  O   UNL     1      46.408   2.969  17.376  0.00  0.00    +0.000 OA
BRANCH   9  11
ATOM     11  C   UNL     1      48.721   3.315  17.315  0.00  0.00    +0.000 A 
ATOM     12  C   UNL     1      49.295   2.139  16.853  0.00  0.00    +0.000 A 
ATOM     13  S   UNL     1      50.962   2.019  17.199  0.00  0.00    +0.000 S 
ATOM     14  C   UNL     1      50.950   3.512  18.014  0.00  0.00    +0.000 A 
ATOM     15  N   UNL     1      52.097   4.062  18.494  0.00  0.00    +0.000 NA
ATOM     16  C   UNL     1      51.932   5.202  19.074  0.00  0.00    +0.000 A 
ATOM     17  N   UNL     1      50.725   5.814  19.280  0.00  0.00    +0.000 N 
ATOM     18  C   UNL     1      49.540   5.189  18.991  0.00  0.00    +0.000 A 
ATOM     19  O   UNL     1      48.490   5.536  19.525  0.00  0.00    +0.000 OA
ATOM     20  C   UNL     1      49.673   4.029  18.127  0.00  0.00    +0.000 A 
ATOM     21  H   UNL     1      50.657   6.635  19.858  0.00  0.00    +0.000 HD
ENDBRANCH   9  11
ENDBRANCH   1   9
BRANCH   1  22
ATOM     22  C   UNL     1      47.399   4.210  14.425  0.00  0.00    +0.000 C 
BRANCH  22  23
ATOM     23  C   UNL     1      46.381   4.300  13.294  0.00  0.00    +0.000 A 
ATOM     24  C   UNL     1      46.377   5.471  12.515  0.00  0.00    +0.000 A 
ATOM     25  C   UNL     1      45.709   5.523  11.287  0.00  0.00    +0.000 A 
ATOM     26  C   UNL     1      45.013   4.408  10.810  0.00  0.00    +0.000 A 
ATOM     27  C   UNL     1      44.930   3.276  11.623  0.00  0.00    +0.000 A 
ATOM     28  C   UNL     1      45.594   3.230  12.853  0.00  0.00    +0.000 A 
BRANCH  26  29
ATOM     29  C   UNL     1      44.433   4.397   9.419  0.00  0.00    +0.000 C 
BRANCH  29  30
ATOM     30  N   UNL     1      44.398   3.020   8.918  0.00  0.00    +0.000 N 
ATOM     31  H   UNL     1      43.545   2.831   8.398  0.00  0.00    +0.000 HD
BRANCH  30  32
ATOM     32  C   UNL     1      45.541   2.512   8.288  0.00  0.00    +0.000 A 
ATOM     33  C   UNL     1      45.873   1.156   8.296  0.00  0.00    +0.000 A 
ATOM     34  C   UNL     1      46.986   0.721   7.589  0.00  0.00    +0.000 A 
ATOM     35  N   UNL     1      47.780   1.532   6.864  0.00  0.00    +0.000 NA
ATOM     36  C   UNL     1      47.421   2.830   6.824  0.00  0.00    +0.000 A 
ATOM     37  C   UNL     1      46.322   3.354   7.493  0.00  0.00    +0.000 A 
ENDBRANCH  30  32
ENDBRANCH  29  30
ENDBRANCH  26  29
ENDBRANCH  22  23
ENDBRANCH   1  22
TORSDOF 11
ENDMDL
MODEL 5
REMARK VINA RESULT:    -7.183      1.663      2.058
REMARK INTER + INTRA:         -13.575
REMARK INTER:                 -12.200
REMARK INTRA:                  -1.375
REMARK UNBOUND:                -1.983
REMARK  Name = 
REMARK  11 active torsions:
REMARK  status: ('A' for Active; 'I' for Inactive)
REMARK    1  A    between atoms: N_1  and  C_2
REMARK    2  A    between atoms: C_2  and  C_3
REMARK    3  A    between atoms: C_3  and  N_4
REMARK    4  A    between atoms: N_4  and  C_5
REMARK    5  A    between atoms: C_5  and  C_6
REMARK    6  A    between atoms: C_5  and  C_21
REMARK    7  A    between atoms: C_6  and  C_7
REMARK    8  A    between atoms: C_10  and  C_11
REMARK    9  A    between atoms: C_11  and  N_12
REMARK   10  A    between atoms: N_12  and  C_13
REMARK   11  A    between atoms: C_21  and  C_23
REMARK                            x       y       z     vdW  Elec       q    Type
REMARK                         _______ _______ _______ _____ _____    ______ ____
ROOT
ATOM      1  C   UNL     1      47.720   7.302  14.130  0.00  0.00    +0.000 C 
ENDROOT
BRANCH   1   2
ATOM      2  N   UNL     1      47.164   8.690  14.215  0.00  0.00    +0.000 NA
ATOM      3  H   UNL     1      46.147   8.616  14.314  0.00  0.00    +0.000 HD
BRANCH   2   4
ATOM      4  C   UNL     1      47.408   9.548  13.052  0.00  0.00    +0.000 C 
BRANCH   4   5
ATOM      5  C   UNL     1      46.176   9.813  12.163  0.00  0.00    +0.000 C 
BRANCH   5   6
ATOM      6  N   UNL     1      44.912   9.525  12.857  0.00  0.00    +0.000 NA
ATOM      7  H   UNL     1      44.508   8.686  12.438  0.00  0.00    +0.000 HD
ATOM      8  H   UNL     1      44.249  10.274  12.643  0.00  0.00    +0.000 HD
ENDBRANCH   5   6
ENDBRANCH   4   5
ENDBRANCH   2   4
ENDBRANCH   1   2
BRANCH   1   9
ATOM      9  C   UNL     1      49.145   7.381  14.736  0.00  0.00    +0.000 C 
ATOM     10  O   UNL     1      50.122   7.608  14.016  0.00  0.00    +0.000 OA
BRANCH   9  11
ATOM     11  C   UNL     1      49.334   7.336  16.202  0.00  0.00    +0.000 A 
ATOM     12  C   UNL     1      50.142   8.283  16.815  0.00  0.00    +0.000 A 
ATOM     13  S   UNL     1      50.067   8.235  18.519  0.00  0.00    +0.000 S 
ATOM     14  C   UNL     1      48.990   6.918  18.483  0.00  0.00    +0.000 A 
ATOM     15  N   UNL     1      48.444   6.423  19.626  0.00  0.00    +0.000 NA
ATOM     16  C   UNL     1      47.636   5.436  19.438  0.00  0.00    +0.000 A 
ATOM     17  N   UNL     1      47.371   4.854  18.228  0.00  0.00    +0.000 N 
ATOM     18  C   UNL     1      48.060   5.198  17.094  0.00  0.00    +0.000 A 
ATOM     19  O   UNL     1      48.125   4.437  16.132  0.00  0.00    +0.000 OA
ATOM     20  C   UNL     1      48.792   6.448  17.198  0.00  0.00    +0.000 A 
ATOM     21  H   UNL     1      46.836   4.002  18.173  0.00  0.00    +0.000 HD
ENDBRANCH   9  11
ENDBRANCH   1   9
BRANCH   1  22
ATOM     22  C   UNL     1      47.742   6.714  12.697  0.00  0.00    +0.000 C 
BRANCH  22  23
ATOM     23  C   UNL     1      46.597   5.850  12.181  0.00  0.00    +0.000 A 
ATOM     24  C   UNL     1      46.088   6.142  10.903  0.00  0.00    +0.000 A 
ATOM     25  C   UNL     1      45.267   5.235  10.225  0.00  0.00    +0.000 A 
ATOM     26  C   UNL     1      44.919   4.015  10.814  0.00  0.00    +0.000 A 
ATOM     27  C   UNL     1      45.339   3.762  12.121  0.00  0.00    +0.000 A 
ATOM     28  C   UNL     1      46.154   4.675  12.798  0.00  0.00    +0.000 A 
BRANCH  26  29
ATOM     29  C   UNL     1      44.176   2.963  10.030  0.00  0.00    +0.000 C 
BRANCH  29  30
ATOM     30  N   UNL     1      44.392   3.182   8.598  0.00  0.00    +0.000 N 
ATOM     31  H   UNL     1      44.269   4.159   8.344  0.00  0.00    +0.000 HD
BRANCH  30  32
ATOM     32  C   UNL     1      45.519   2.605   7.999  0.00  0.00    +0.000 A 
ATOM     33  C   UNL     1      46.448   3.341   7.261  0.00  0.00    +0.000 A 
ATOM     34  C   UNL     1      47.576   2.708   6.756  0.00  0.00    +0.000 A 
ATOM     35  N   UNL     1      47.854   1.404   6.947  0.00  0.00    +0.000 NA
ATOM     36  C   UNL     1      46.976   0.715   7.701  0.00  0.00    +0.000 A 
ATOM     37  C   UNL     1      45.825   1.265   8.252  0.00  0.00    +0.000 A 
ENDBRANCH  30  32
ENDBRANCH  29  30
ENDBRANCH  26  29
ENDBRANCH  22  23
ENDBRANCH   1  22
TORSDOF 11
ENDMDL
MODEL 6
REMARK VINA RESULT:    -7.172      2.044      3.279
REMARK INTER + INTRA:         -13.558
REMARK INTER:                 -12.445
REMARK INTRA:                  -1.113
REMARK UNBOUND:                -1.983
REMARK  Name = 
REMARK  11 active torsions:
REMARK  status: ('A' for Active; 'I' for Inactive)
REMARK    1  A    between atoms: N_1  and  C_2
REMARK    2  A    between atoms: C_2  and  C_3
REMARK    3  A    between atoms: C_3  and  N_4
REMARK    4  A    between atoms: N_4  and  C_5
REMARK    5  A    between atoms: C_5  and  C_6
REMARK    6  A    between atoms: C_5  and  C_21
REMARK    7  A    between atoms: C_6  and  C_7
REMARK    8  A    between atoms: C_10  and  C_11
REMARK    9  A    between atoms: C_11  and  N_12
REMARK   10  A    between atoms: N_12  and  C_13
REMARK   11  A    between atoms: C_21  and  C_23
REMARK                            x       y       z     vdW  Elec       q    Type
REMARK                         _______ _______ _______ _____ _____    ______ ____
ROOT
ATOM      1  C   UNL     1      47.890   6.101  14.161  0.00  0.00    +0.000 C 
ENDROOT
BRANCH   1   2
ATOM      2  N   UNL     1      47.474   5.376  15.403  0.00  0.00    +0.000 NA
ATOM      3  H   UNL     1      48.140   5.613  16.143  0.00  0.00    +0.000 HD
BRANCH   2   4
ATOM      4  C   UNL     1      47.454   3.913  15.312  0.00  0.00    +0.000 C 
BRANCH   4   5
ATOM      5  C   UNL     1      47.725   3.170  16.635  0.00  0.00    +0.000 C 
BRANCH   5   6
ATOM      6  N   UNL     1      46.608   3.293  17.584  0.00  0.00    +0.000 NA
ATOM      7  H   UNL     1      47.000   3.499  18.504  0.00  0.00    +0.000 HD
ATOM      8  H   UNL     1      46.167   2.376  17.683  0.00  0.00    +0.000 HD
ENDBRANCH   5   6
ENDBRANCH   4   5
ENDBRANCH   2   4
ENDBRANCH   1   2
BRANCH   1   9
ATOM      9  C   UNL     1      48.984   7.106  14.605  0.00  0.00    +0.000 C 
ATOM     10  O   UNL     1      49.818   7.526  13.798  0.00  0.00    +0.000 OA
BRANCH   9  11
ATOM     11  C   UNL     1      48.949   7.691  15.964  0.00  0.00    +0.000 A 
ATOM     12  C   UNL     1      48.461   8.978  16.140  0.00  0.00    +0.000 A 
ATOM     13  S   UNL     1      48.271   9.410  17.780  0.00  0.00    +0.000 S 
ATOM     14  C   UNL     1      48.880   7.908  18.297  0.00  0.00    +0.000 A 
ATOM     15  N   UNL     1      48.908   7.575  19.615  0.00  0.00    +0.000 NA
ATOM     16  C   UNL     1      49.382   6.399  19.851  0.00  0.00    +0.000 A 
ATOM     17  N   UNL     1      49.891   5.551  18.905  0.00  0.00    +0.000 N 
ATOM     18  C   UNL     1      50.063   5.941  17.603  0.00  0.00    +0.000 A 
ATOM     19  O   UNL     1      50.861   5.367  16.866  0.00  0.00    +0.000 OA
ATOM     20  C   UNL     1      49.334   7.143  17.239  0.00  0.00    +0.000 A 
ATOM     21  H   UNL     1      50.367   4.706  19.176  0.00  0.00    +0.000 HD
ENDBRANCH   9  11
ENDBRANCH   1   9
BRANCH   1  22
ATOM     22  C   UNL     1      46.730   6.814  13.422  0.00  0.00    +0.000 C 
BRANCH  22  23
ATOM     23  C   UNL     1      45.803   6.048  12.484  0.00  0.00    +0.000 A 
ATOM     24  C   UNL     1      46.008   6.200  11.101  0.00  0.00    +0.000 A 
ATOM     25  C   UNL     1      45.428   5.320  10.182  0.00  0.00    +0.000 A 
ATOM     26  C   UNL     1      44.613   4.272  10.619  0.00  0.00    +0.000 A 
ATOM     27  C   UNL     1      44.325   4.174  11.982  0.00  0.00    +0.000 A 
ATOM     28  C   UNL     1      44.902   5.060  12.898  0.00  0.00    +0.000 A 
BRANCH  26  29
ATOM     29  C   UNL     1      44.120   3.222   9.655  0.00  0.00    +0.000 C 
BRANCH  29  30
ATOM     30  N   UNL     1      44.638   3.512   8.316  0.00  0.00    +0.000 N 
ATOM     31  H   UNL     1      44.724   4.513   8.155  0.00  0.00    +0.000 HD
BRANCH  30  32
ATOM     32  C   UNL     1      45.751   2.793   7.861  0.00  0.00    +0.000 A 
ATOM     33  C   UNL     1      45.971   1.452   8.181  0.00  0.00    +0.000 A 
ATOM     34  C   UNL     1      47.061   0.789   7.635  0.00  0.00    +0.000 A 
ATOM     35  N   UNL     1      47.936   1.358   6.783  0.00  0.00    +0.000 NA
ATOM     36  C   UNL     1      47.686   2.638   6.444  0.00  0.00    +0.000 A 
ATOM     37  C   UNL     1      46.617   3.377   6.934  0.00  0.00    +0.000 A 
ENDBRANCH  30  32
ENDBRANCH  29  30
ENDBRANCH  26  29
ENDBRANCH  22  23
ENDBRANCH   1  22
TORSDOF 11
ENDMDL
MODEL 7
REMARK VINA RESULT:    -7.121      1.661      2.058
REMARK INTER + INTRA:         -13.476
REMARK INTER:                 -11.756
REMARK INTRA:                  -1.720
REMARK UNBOUND:                -1.983
REMARK  Name = 
REMARK  11 active torsions:
REMARK  status: ('A' for Active; 'I' for Inactive)
REMARK    1  A    between atoms: N_1  and  C_2
REMARK    2  A    between atoms: C_2  and  C_3
REMARK    3  A    between atoms: C_3  and  N_4
REMARK    4  A    between atoms: N_4  and  C_5
REMARK    5  A    between atoms: C_5  and  C_6
REMARK    6  A    between atoms: C_5  and  C_21
REMARK    7  A    between atoms: C_6  and  C_7
REMARK    8  A    between atoms: C_10  and  C_11
REMARK    9  A    between atoms: C_11  and  N_12
REMARK   10  A    between atoms: N_12  and  C_13
REMARK   11  A    between atoms: C_21  and  C_23
REMARK                            x       y       z     vdW  Elec       q    Type
REMARK                         _______ _______ _______ _____ _____    ______ ____
ROOT
ATOM      1  C   UNL     1      48.692   6.987  13.765  0.00  0.00    +0.000 C 
ENDROOT
BRANCH   1   2
ATOM      2  N   UNL     1      49.563   6.698  12.582  0.00  0.00    +0.000 NA
ATOM      3  H   UNL     1      50.532   6.650  12.909  0.00  0.00    +0.000 HD
BRANCH   2   4
ATOM      4  C   UNL     1      49.535   7.696  11.509  0.00  0.00    +0.000 C 
BRANCH   4   5
ATOM      5  C   UNL     1      50.901   8.316  11.154  0.00  0.00    +0.000 C 
BRANCH   5   6
ATOM      6  N   UNL     1      51.983   7.819  12.017  0.00  0.00    +0.000 NA
ATOM      7  H   UNL     1      51.570   7.187  12.705  0.00  0.00    +0.000 HD
ATOM      8  H   UNL     1      52.347   8.603  12.562  0.00  0.00    +0.000 HD
ENDBRANCH   5   6
ENDBRANCH   4   5
ENDBRANCH   2   4
ENDBRANCH   1   2
BRANCH   1   9
ATOM      9  C   UNL     1      49.658   7.334  14.926  0.00  0.00    +0.000 C 
ATOM     10  O   UNL     1      50.833   7.640  14.698  0.00  0.00    +0.000 OA
BRANCH   9  11
ATOM     11  C   UNL     1      49.147   7.451  16.309  0.00  0.00    +0.000 A 
ATOM     12  C   UNL     1      48.633   8.665  16.747  0.00  0.00    +0.000 A 
ATOM     13  S   UNL     1      47.878   8.568  18.274  0.00  0.00    +0.000 S 
ATOM     14  C   UNL     1      48.257   6.915  18.411  0.00  0.00    +0.000 A 
ATOM     15  N   UNL     1      47.815   6.177  19.464  0.00  0.00    +0.000 NA
ATOM     16  C   UNL     1      48.169   4.937  19.422  0.00  0.00    +0.000 A 
ATOM     17  N   UNL     1      48.976   4.381  18.468  0.00  0.00    +0.000 N 
ATOM     18  C   UNL     1      49.601   5.142  17.515  0.00  0.00    +0.000 A 
ATOM     19  O   UNL     1      50.605   4.740  16.934  0.00  0.00    +0.000 OA
ATOM     20  C   UNL     1      49.053   6.479  17.369  0.00  0.00    +0.000 A 
ATOM     21  H   UNL     1      49.322   3.440  18.572  0.00  0.00    +0.000 HD
ENDBRANCH   9  11
ENDBRANCH   1   9
BRANCH   1  22
ATOM     22  C   UNL     1      47.736   5.830  14.147  0.00  0.00    +0.000 C 
BRANCH  22  23
ATOM     23  C   UNL     1      46.593   5.414  13.227  0.00  0.00    +0.000 A 
ATOM     24  C   UNL     1      46.165   6.343  12.262  0.00  0.00    +0.000 A 
ATOM     25  C   UNL     1      45.353   5.954  11.191  0.00  0.00    +0.000 A 
ATOM     26  C   UNL     1      44.933   4.626  11.065  0.00  0.00    +0.000 A 
ATOM     27  C   UNL     1      45.272   3.721  12.072  0.00  0.00    +0.000 A 
ATOM     28  C   UNL     1      46.078   4.115  13.144  0.00  0.00    +0.000 A 
BRANCH  26  29
ATOM     29  C   UNL     1      44.201   4.162   9.831  0.00  0.00    +0.000 C 
BRANCH  29  30
ATOM     30  N   UNL     1      45.030   4.416   8.650  0.00  0.00    +0.000 N 
ATOM     31  H   UNL     1      45.521   5.304   8.719  0.00  0.00    +0.000 HD
BRANCH  30  32
ATOM     32  C   UNL     1      45.847   3.381   8.175  0.00  0.00    +0.000 A 
ATOM     33  C   UNL     1      45.654   2.042   8.519  0.00  0.00    +0.000 A 
ATOM     34  C   UNL     1      46.464   1.068   7.952  0.00  0.00    +0.000 A 
ATOM     35  N   UNL     1      47.438   1.327   7.058  0.00  0.00    +0.000 NA
ATOM     36  C   UNL     1      47.583   2.617   6.698  0.00  0.00    +0.000 A 
ATOM     37  C   UNL     1      46.815   3.657   7.206  0.00  0.00    +0.000 A 
ENDBRANCH  30  32
ENDBRANCH  29  30
ENDBRANCH  26  29
ENDBRANCH  22  23
ENDBRANCH   1  22
TORSDOF 11
ENDMDL
MODEL 8
REMARK VINA RESULT:    -6.938      1.817      4.642
REMARK INTER + INTRA:         -13.180
REMARK INTER:                 -11.765
REMARK INTRA:                  -1.415
REMARK UNBOUND:                -1.983
REMARK  Name = 
REMARK  11 active torsions:
REMARK  status: ('A' for Active; 'I' for Inactive)
REMARK    1  A    between atoms: N_1  and  C_2
REMARK    2  A    between atoms: C_2  and  C_3
REMARK    3  A    between atoms: C_3  and  N_4
REMARK    4  A    between atoms: N_4  and  C_5
REMARK    5  A    between atoms: C_5  and  C_6
REMARK    6  A    between atoms: C_5  and  C_21
REMARK    7  A    between atoms: C_6  and  C_7
REMARK    8  A    between atoms: C_10  and  C_11
REMARK    9  A    between atoms: C_11  and  N_12
REMARK   10  A    between atoms: N_12  and  C_13
REMARK   11  A    between atoms: C_21  and  C_23
REMARK                            x       y       z     vdW  Elec       q    Type
REMARK                         _______ _______ _______ _____ _____    ______ ____
ROOT
ATOM      1  C   UNL     1      48.355   6.484  14.338  0.00  0.00    +0.000 C 
ENDROOT
BRANCH   1   2
ATOM      2  N   UNL     1      48.674   5.710  15.580  0.00  0.00    +0.000 NA
ATOM      3  H   UNL     1      49.343   4.976  15.330  0.00  0.00    +0.000 HD
BRANCH   2   4
ATOM      4  C   UNL     1      47.541   5.039  16.222  0.00  0.00    +0.000 C 
BRANCH   4   5
ATOM      5  C   UNL     1      47.884   3.727  16.955  0.00  0.00    +0.000 C 
BRANCH   5   6
ATOM      6  N   UNL     1      46.695   3.077  17.526  0.00  0.00    +0.000 NA
ATOM      7  H   UNL     1      46.631   2.137  17.131  0.00  0.00    +0.000 HD
ATOM      8  H   UNL     1      45.865   3.566  17.183  0.00  0.00    +0.000 HD
ENDBRANCH   5   6
ENDBRANCH   4   5
ENDBRANCH   2   4
ENDBRANCH   1   2
BRANCH   1   9
ATOM      9  C   UNL     1      48.801   7.941  14.623  0.00  0.00    +0.000 C 
ATOM     10  O   UNL     1      48.126   8.676  15.350  0.00  0.00    +0.000 OA
BRANCH   9  11
ATOM     11  C   UNL     1      50.119   8.421  14.152  0.00  0.00    +0.000 A 
ATOM     12  C   UNL     1      50.932   9.142  15.016  0.00  0.00    +0.000 A 
ATOM     13  S   UNL     1      52.499   9.416  14.400  0.00  0.00    +0.000 S 
ATOM     14  C   UNL     1      52.119   8.620  12.945  0.00  0.00    +0.000 A 
ATOM     15  N   UNL     1      53.063   8.413  11.988  0.00  0.00    +0.000 NA
ATOM     16  C   UNL     1      52.629   7.784  10.949  0.00  0.00    +0.000 A 
ATOM     17  N   UNL     1      51.332   7.400  10.746  0.00  0.00    +0.000 N 
ATOM     18  C   UNL     1      50.325   7.774  11.597  0.00  0.00    +0.000 A 
ATOM     19  O   UNL     1      49.153   7.789  11.230  0.00  0.00    +0.000 OA
ATOM     20  C   UNL     1      50.785   8.264  12.884  0.00  0.00    +0.000 A 
ATOM     21  H   UNL     1      51.038   7.033   9.855  0.00  0.00    +0.000 HD
ENDBRANCH   9  11
ENDBRANCH   1   9
BRANCH   1  22
ATOM     22  C   UNL     1      46.867   6.418  13.914  0.00  0.00    +0.000 C 
BRANCH  22  23
ATOM     23  C   UNL     1      46.422   5.571  12.726  0.00  0.00    +0.000 A 
ATOM     24  C   UNL     1      46.079   4.230  12.976  0.00  0.00    +0.000 A 
ATOM     25  C   UNL     1      45.377   3.474  12.032  0.00  0.00    +0.000 A 
ATOM     26  C   UNL     1      45.012   4.032  10.804  0.00  0.00    +0.000 A 
ATOM     27  C   UNL     1      45.436   5.330  10.509  0.00  0.00    +0.000 A 
ATOM     28  C   UNL     1      46.143   6.081  11.453  0.00  0.00    +0.000 A 
BRANCH  26  29
ATOM     29  C   UNL     1      44.115   3.284   9.851  0.00  0.00    +0.000 C 
BRANCH  29  30
ATOM     30  N   UNL     1      44.570   3.510   8.477  0.00  0.00    +0.000 N 
ATOM     31  H   UNL     1      44.621   4.501   8.256  0.00  0.00    +0.000 HD
BRANCH  30  32
ATOM     32  C   UNL     1      45.684   2.795   8.018  0.00  0.00    +0.000 A 
ATOM     33  C   UNL     1      45.855   1.428   8.244  0.00  0.00    +0.000 A 
ATOM     34  C   UNL     1      46.953   0.777   7.697  0.00  0.00    +0.000 A 
ATOM     35  N   UNL     1      47.880   1.383   6.931  0.00  0.00    +0.000 NA
ATOM     36  C   UNL     1      47.678   2.691   6.680  0.00  0.00    +0.000 A 
ATOM     37  C   UNL     1      46.607   3.422   7.178  0.00  0.00    +0.000 A 
ENDBRANCH  30  32
ENDBRANCH  29  30
ENDBRANCH  26  29
ENDBRANCH  22  23
ENDBRANCH   1  22
TORSDOF 11
ENDMDL
MODEL 9
REMARK VINA RESULT:    -6.895      1.970      2.609
REMARK INTER + INTRA:         -13.111
REMARK INTER:                 -11.423
REMARK INTRA:                  -1.688
REMARK UNBOUND:                -1.983
REMARK  Name = 
REMARK  11 active torsions:
REMARK  status: ('A' for Active; 'I' for Inactive)
REMARK    1  A    between atoms: N_1  and  C_2
REMARK    2  A    between atoms: C_2  and  C_3
REMARK    3  A    between atoms: C_3  and  N_4
REMARK    4  A    between atoms: N_4  and  C_5
REMARK    5  A    between atoms: C_5  and  C_6
REMARK    6  A    between atoms: C_5  and  C_21
REMARK    7  A    between atoms: C_6  and  C_7
REMARK    8  A    between atoms: C_10  and  C_11
REMARK    9  A    between atoms: C_11  and  N_12
REMARK   10  A    between atoms: N_12  and  C_13
REMARK   11  A    between atoms: C_21  and  C_23
REMARK                            x       y       z     vdW  Elec       q    Type
REMARK                         _______ _______ _______ _____ _____    ______ ____
ROOT
ATOM      1  C   UNL     1      47.578   6.863  14.548  0.00  0.00    +0.000 C 
ENDROOT
BRANCH   1   2
ATOM      2  N   UNL     1      47.702   8.350  14.674  0.00  0.00    +0.000 NA
ATOM      3  H   UNL     1      46.818   8.708  15.045  0.00  0.00    +0.000 HD
BRANCH   2   4
ATOM      4  C   UNL     1      47.956   9.077  13.428  0.00  0.00    +0.000 C 
BRANCH   4   5
ATOM      5  C   UNL     1      49.425   9.482  13.193  0.00  0.00    +0.000 C 
BRANCH   5   6
ATOM      6  N   UNL     1      50.187   9.576  14.447  0.00  0.00    +0.000 NA
ATOM      7  H   UNL     1      50.116  10.536  14.787  0.00  0.00    +0.000 HD
ATOM      8  H   UNL     1      51.178   9.443  14.232  0.00  0.00    +0.000 HD
ENDBRANCH   5   6
ENDBRANCH   4   5
ENDBRANCH   2   4
ENDBRANCH   1   2
BRANCH   1   9
ATOM      9  C   UNL     1      48.694   6.269  15.446  0.00  0.00    +0.000 C 
ATOM     10  O   UNL     1      49.865   6.641  15.323  0.00  0.00    +0.000 OA
BRANCH   9  11
ATOM     11  C   UNL     1      48.348   5.363  16.563  0.00  0.00    +0.000 A 
ATOM     12  C   UNL     1      47.710   4.160  16.293  0.00  0.00    +0.000 A 
ATOM     13  S   UNL     1      47.594   3.136  17.654  0.00  0.00    +0.000 S 
ATOM     14  C   UNL     1      48.350   4.292  18.648  0.00  0.00    +0.000 A 
ATOM     15  N   UNL     1      48.649   4.016  19.946  0.00  0.00    +0.000 NA
ATOM     16  C   UNL     1      49.234   4.983  20.567  0.00  0.00    +0.000 A 
ATOM     17  N   UNL     1      49.487   6.220  20.039  0.00  0.00    +0.000 N 
ATOM     18  C   UNL     1      49.015   6.591  18.807  0.00  0.00    +0.000 A 
ATOM     19  O   UNL     1      48.884   7.774  18.504  0.00  0.00    +0.000 OA
ATOM     20  C   UNL     1      48.571   5.482  17.981  0.00  0.00    +0.000 A 
ATOM     21  H   UNL     1      49.823   6.969  20.623  0.00  0.00    +0.000 HD
ENDBRANCH   9  11
ENDBRANCH   1   9
BRANCH   1  22
ATOM     22  C   UNL     1      47.679   6.339  13.094  0.00  0.00    +0.000 C 
BRANCH  22  23
ATOM     23  C   UNL     1      46.539   5.549  12.460  0.00  0.00    +0.000 A 
ATOM     24  C   UNL     1      46.025   6.017  11.237  0.00  0.00    +0.000 A 
ATOM     25  C   UNL     1      45.211   5.211  10.437  0.00  0.00    +0.000 A 
ATOM     26  C   UNL     1      44.874   3.916  10.844  0.00  0.00    +0.000 A 
ATOM     27  C   UNL     1      45.298   3.481  12.100  0.00  0.00    +0.000 A 
ATOM     28  C   UNL     1      46.108   4.293  12.901  0.00  0.00    +0.000 A 
BRANCH  26  29
ATOM     29  C   UNL     1      44.138   2.982   9.917  0.00  0.00    +0.000 C 
BRANCH  29  30
ATOM     30  N   UNL     1      44.524   3.267   8.533  0.00  0.00    +0.000 N 
ATOM     31  H   UNL     1      44.502   4.265   8.335  0.00  0.00    +0.000 HD
BRANCH  30  32
ATOM     32  C   UNL     1      45.664   2.638   8.016  0.00  0.00    +0.000 A 
ATOM     33  C   UNL     1      45.957   1.292   8.243  0.00  0.00    +0.000 A 
ATOM     34  C   UNL     1      47.070   0.724   7.639  0.00  0.00    +0.000 A 
ATOM     35  N   UNL     1      47.900   1.391   6.814  0.00  0.00    +0.000 NA
ATOM     36  C   UNL     1      47.579   2.676   6.564  0.00  0.00    +0.000 A 
ATOM     37  C   UNL     1      46.483   3.325   7.117  0.00  0.00    +0.000 A 
ENDBRANCH  30  32
ENDBRANCH  29  30
ENDBRANCH  26  29
ENDBRANCH  22  23
ENDBRANCH   1  22
TORSDOF 11
ENDMDL
