MODEL 1
REMARK VINA RESULT:    -7.225      0.000      0.000
REMARK INTER + INTRA:          -9.606
REMARK INTER:                  -9.126
REMARK INTRA:                  -0.480
REMARK UNBOUND:                -0.480
REMARK  Name = 
REMARK  5 active torsions:
REMARK  status: ('A' for Active; 'I' for Inactive)
REMARK    1  A    between atoms: N_1  and  C_2
REMARK    2  A    between atoms: C_2  and  C_3
REMARK    3  A    between atoms: C_6  and  O_7
REMARK    4  A    between atoms: O_7  and  C_8
REMARK    5  A    between atoms: C_8  and  C_9
REMARK                            x       y       z     vdW  Elec       q    Type
REMARK                         _______ _______ _______ _____ _____    ______ ____
ROOT
ATOM      1  C   UNL     1      47.045   2.362   7.253  0.00  0.00    +0.000 A 
ATOM      2  C   UNL     1      46.408   1.378   8.023  0.00  0.00    +0.000 A 
ATOM      3  C   UNL     1      45.321   1.707   8.839  0.00  0.00    +0.000 A 
ATOM      4  C   UNL     1      44.867   3.023   8.905  0.00  0.00    +0.000 A 
ATOM      5  C   UNL     1      45.463   3.997   8.105  0.00  0.00    +0.000 A 
ATOM      6  C   UNL     1      46.552   3.671   7.293  0.00  0.00    +0.000 A 
ENDROOT
BRANCH   1   7
ATOM      7  C   UNL     1      48.252   2.029   6.415  0.00  0.00    +0.000 C 
BRANCH   7   8
ATOM      8  N   UNL     1      48.143   2.574   5.068  0.00  0.00    +0.000 NA
ATOM      9  H   UNL     1      49.077   2.672   4.674  0.00  0.00    +0.000 HD
ATOM     10  H   UNL     1      47.754   3.514   5.127  0.00  0.00    +0.000 HD
ENDBRANCH   7   8
ENDBRANCH   1   7
BRANCH   4  11
ATOM     11  O   UNL     1      43.835   3.251   9.777  0.00  0.00    +0.000 OA
BRANCH  11  12
ATOM     12  C   UNL     1      43.767   4.576  10.308  0.00  0.00    +0.000 C 
BRANCH  12  13
ATOM     13  C   UNL     1      44.757   4.717  11.428  0.00  0.00    +0.000 A 
ATOM     14  C   UNL     1      45.690   5.758  11.447  0.00  0.00    +0.000 A 
ATOM     15  C   UNL     1      46.552   5.892  12.530  0.00  0.00    +0.000 A 
ATOM     16  C   UNL     1      46.448   4.980  13.565  0.00  0.00    +0.000 A 
ATOM     17  N   UNL     1      45.555   3.966  13.589  0.00  0.00    +0.000 NA
ATOM     18  C   UNL     1      44.732   3.858  12.521  0.00  0.00    +0.000 A 
ENDBRANCH  12  13
ENDBRANCH  11  12
ENDBRANCH   4  11
TORSDOF 5
ENDMDL
MODEL 2
REMARK VINA RESULT:    -6.701      1.233      5.896
REMARK INTER + INTRA:          -8.944
REMARK INTER:                  -8.480
REMARK INTRA:                  -0.463
REMARK UNBOUND:                -0.480
REMARK  Name = 
REMARK  5 active torsions:
REMARK  status: ('A' for Active; 'I' for Inactive)
REMARK    1  A    between atoms: N_1  and  C_2
REMARK    2  A    between atoms: C_2  and  C_3
REMARK    3  A    between atoms: C_6  and  O_7
REMARK    4  A    between atoms: O_7  and  C_8
REMARK    5  A    between atoms: C_8  and  C_9
REMARK                            x       y       z     vdW  Elec       q    Type
REMARK                         _______ _______ _______ _____ _____    ______ ____
ROOT
ATOM      1  C   UNL     1      46.454   5.399  12.773  0.00  0.00    +0.000 A 
ATOM      2  C   UNL     1      46.133   6.074  11.586  0.00  0.00    +0.000 A 
ATOM      3  C   UNL     1      45.377   5.443  10.593  0.00  0.00    +0.000 A 
ATOM      4  C   UNL     1      44.947   4.130  10.767  0.00  0.00    +0.000 A 
ATOM      5  C   UNL     1      45.220   3.469  11.965  0.00  0.00    +0.000 A 
ATOM      6  C   UNL     1      45.978   4.096  12.957  0.00  0.00    +0.000 A 
ENDROOT
BRANCH   1   7
ATOM      7  C   UNL     1      47.316   6.049  13.825  0.00  0.00    +0.000 C 
BRANCH   7   8
ATOM      8  N   UNL     1      47.533   5.170  14.966  0.00  0.00    +0.000 NA
ATOM      9  H   UNL     1      47.333   4.211  14.688  0.00  0.00    +0.000 HD
ATOM     10  H   UNL     1      46.859   5.406  15.694  0.00  0.00    +0.000 HD
ENDBRANCH   7   8
ENDBRANCH   1   7
BRANCH   4  11
ATOM     11  O   UNL     1      44.263   3.585   9.712  0.00  0.00    +0.000 OA
BRANCH  11  12
ATOM     12  C   UNL     1      44.623   2.242   9.382  0.00  0.00    +0.000 C 
BRANCH  12  13
ATOM     13  C   UNL     1      45.619   2.251   8.259  0.00  0.00    +0.000 A 
ATOM     14  C   UNL     1      45.804   3.386   7.462  0.00  0.00    +0.000 A 
ATOM     15  C   UNL     1      46.778   3.378   6.468  0.00  0.00    +0.000 A 
ATOM     16  C   UNL     1      47.538   2.234   6.307  0.00  0.00    +0.000 A 
ATOM     17  N   UNL     1      47.396   1.122   7.062  0.00  0.00    +0.000 NA
ATOM     18  C   UNL     1      46.440   1.156   8.017  0.00  0.00    +0.000 A 
ENDBRANCH  12  13
ENDBRANCH  11  12
ENDBRANCH   4  11
TORSDOF 5
ENDMDL
MODEL 3
REMARK VINA RESULT:    -5.251      4.313      8.299
REMARK INTER + INTRA:          -7.112
REMARK INTER:                  -6.800
REMARK INTRA:                  -0.312
REMARK UNBOUND:                -0.480
REMARK  Name = 
REMARK  5 active torsions:
REMARK  status: ('A' for Active; 'I' for Inactive)
REMARK    1  A    between atoms: N_1  and  C_2
REMARK    2  A    between atoms: C_2  and  C_3
REMARK    3  A    between atoms: C_6  and  O_7
REMARK    4  A    between atoms: O_7  and  C_8
REMARK    5  A    between atoms: C_8  and  C_9
REMARK                            x       y       z     vdW  Elec       q    Type
REMARK                         _______ _______ _______ _____ _____    ______ ____
ROOT
ATOM      1  C   UNL     1      48.655   4.451  18.464  0.00  0.00    +0.000 A 
ATOM      2  C   UNL     1      48.112   3.213  18.094  0.00  0.00    +0.000 A 
ATOM      3  C   UNL     1      47.562   3.030  16.821  0.00  0.00    +0.000 A 
ATOM      4  C   UNL     1      47.536   4.084  15.911  0.00  0.00    +0.000 A 
ATOM      5  C   UNL     1      48.119   5.304  16.254  0.00  0.00    +0.000 A 
ATOM      6  C   UNL     1      48.665   5.489  17.526  0.00  0.00    +0.000 A 
ENDROOT
BRANCH   1   7
ATOM      7  C   UNL     1      49.199   4.675  19.852  0.00  0.00    +0.000 C 
BRANCH   7   8
ATOM      8  N   UNL     1      48.515   3.851  20.840  0.00  0.00    +0.000 NA
ATOM      9  H   UNL     1      49.191   3.535  21.533  0.00  0.00    +0.000 HD
ATOM     10  H   UNL     1      48.161   3.014  20.379  0.00  0.00    +0.000 HD
ENDBRANCH   7   8
ENDBRANCH   1   7
BRANCH   4  11
ATOM     11  O   UNL     1      46.924   3.819  14.714  0.00  0.00    +0.000 OA
BRANCH  11  12
ATOM     12  C   UNL     1      46.581   4.969  13.938  0.00  0.00    +0.000 C 
BRANCH  12  13
ATOM     13  C   UNL     1      45.385   4.660  13.085  0.00  0.00    +0.000 A 
ATOM     14  C   UNL     1      45.266   3.437  12.416  0.00  0.00    +0.000 A 
ATOM     15  C   UNL     1      44.116   3.161  11.683  0.00  0.00    +0.000 A 
ATOM     16  C   UNL     1      43.119   4.119  11.647  0.00  0.00    +0.000 A 
ATOM     17  N   UNL     1      43.192   5.308  12.286  0.00  0.00    +0.000 NA
ATOM     18  C   UNL     1      44.322   5.550  12.988  0.00  0.00    +0.000 A 
ENDBRANCH  12  13
ENDBRANCH  11  12
ENDBRANCH   4  11
TORSDOF 5
ENDMDL
MODEL 4
REMARK VINA RESULT:    -5.173      1.722      6.015
REMARK INTER + INTRA:          -7.013
REMARK INTER:                  -7.159
REMARK INTRA:                   0.146
REMARK UNBOUND:                -0.480
REMARK  Name = 
REMARK  5 active torsions:
REMARK  status: ('A' for Active; 'I' for Inactive)
REMARK    1  A    between atoms: N_1  and  C_2
REMARK    2  A    between atoms: C_2  and  C_3
REMARK    3  A    between atoms: C_6  and  O_7
REMARK    4  A    between atoms: O_7  and  C_8
REMARK    5  A    between atoms: C_8  and  C_9
REMARK                            x       y       z     vdW  Elec       q    Type
REMARK                         _______ _______ _______ _____ _____    ______ ____
ROOT
ATOM      1  C   UNL     1      44.485   5.695  11.891  0.00  0.00    +0.000 A 
ATOM      2  C   UNL     1      43.656   4.577  12.061  0.00  0.00    +0.000 A 
ATOM      3  C   UNL     1      43.617   3.568  11.093  0.00  0.00    +0.000 A 
ATOM      4  C   UNL     1      44.392   3.672   9.940  0.00  0.00    +0.000 A 
ATOM      5  C   UNL     1      45.255   4.757   9.787  0.00  0.00    +0.000 A 
ATOM      6  C   UNL     1      45.293   5.767  10.751  0.00  0.00    +0.000 A 
ENDROOT
BRANCH   1   7
ATOM      7  C   UNL     1      44.492   6.815  12.900  0.00  0.00    +0.000 C 
BRANCH   7   8
ATOM      8  N   UNL     1      44.953   8.067  12.316  0.00  0.00    +0.000 NA
ATOM      9  H   UNL     1      44.324   8.331  11.560  0.00  0.00    +0.000 HD
ATOM     10  H   UNL     1      45.866   7.913  11.891  0.00  0.00    +0.000 HD
ENDBRANCH   7   8
ENDBRANCH   1   7
BRANCH   4  11
ATOM     11  O   UNL     1      44.237   2.660   9.029  0.00  0.00    +0.000 OA
BRANCH  11  12
ATOM     12  C   UNL     1      45.339   1.756   8.930  0.00  0.00    +0.000 C 
BRANCH  12  13
ATOM     13  C   UNL     1      46.186   2.127   7.747  0.00  0.00    +0.000 A 
ATOM     14  C   UNL     1      47.241   1.312   7.325  0.00  0.00    +0.000 A 
ATOM     15  C   UNL     1      47.967   1.657   6.189  0.00  0.00    +0.000 A 
ATOM     16  C   UNL     1      47.608   2.806   5.508  0.00  0.00    +0.000 A 
ATOM     17  N   UNL     1      46.590   3.614   5.878  0.00  0.00    +0.000 NA
ATOM     18  C   UNL     1      45.905   3.257   6.988  0.00  0.00    +0.000 A 
ENDBRANCH  12  13
ENDBRANCH  11  12
ENDBRANCH   4  11
TORSDOF 5
ENDMDL
MODEL 5
REMARK VINA RESULT:    -5.045      3.829      5.877
REMARK INTER + INTRA:          -6.852
REMARK INTER:                  -6.542
REMARK INTRA:                  -0.310
REMARK UNBOUND:                -0.480
REMARK  Name = 
REMARK  5 active torsions:
REMARK  status: ('A' for Active; 'I' for Inactive)
REMARK    1  A    between atoms: N_1  and  C_2
REMARK    2  A    between atoms: C_2  and  C_3
REMARK    3  A    between atoms: C_6  and  O_7
REMARK    4  A    between atoms: O_7  and  C_8
REMARK    5  A    between atoms: C_8  and  C_9
REMARK                            x       y       z     vdW  Elec       q    Type
REMARK                         _______ _______ _______ _____ _____    ______ ____
ROOT
ATOM      1  C   UNL     1      45.056   4.563  11.097  0.00  0.00    +0.000 A 
ATOM      2  C   UNL     1      45.753   5.752  11.358  0.00  0.00    +0.000 A 
ATOM      3  C   UNL     1      46.566   5.865  12.490  0.00  0.00    +0.000 A 
ATOM      4  C   UNL     1      46.681   4.800  13.380  0.00  0.00    +0.000 A 
ATOM      5  C   UNL     1      46.030   3.598  13.102  0.00  0.00    +0.000 A 
ATOM      6  C   UNL     1      45.215   3.484  11.974  0.00  0.00    +0.000 A 
ENDROOT
BRANCH   1   7
ATOM      7  C   UNL     1      44.133   4.451   9.911  0.00  0.00    +0.000 C 
BRANCH   7   8
ATOM      8  N   UNL     1      44.840   4.651   8.654  0.00  0.00    +0.000 NA
ATOM      9  H   UNL     1      45.290   3.778   8.384  0.00  0.00    +0.000 HD
ATOM     10  H   UNL     1      45.588   5.327   8.803  0.00  0.00    +0.000 HD
ENDBRANCH   7   8
ENDBRANCH   1   7
BRANCH   4  11
ATOM     11  O   UNL     1      47.456   5.032  14.486  0.00  0.00    +0.000 OA
BRANCH  11  12
ATOM     12  C   UNL     1      47.081   4.302  15.656  0.00  0.00    +0.000 C 
BRANCH  12  13
ATOM     13  C   UNL     1      48.305   4.001  16.472  0.00  0.00    +0.000 A 
ATOM     14  C   UNL     1      48.709   2.684  16.716  0.00  0.00    +0.000 A 
ATOM     15  C   UNL     1      49.881   2.443  17.426  0.00  0.00    +0.000 A 
ATOM     16  C   UNL     1      50.614   3.531  17.865  0.00  0.00    +0.000 A 
ATOM     17  N   UNL     1      50.262   4.817  17.642  0.00  0.00    +0.000 NA
ATOM     18  C   UNL     1      49.117   5.021  16.953  0.00  0.00    +0.000 A 
ENDBRANCH  12  13
ENDBRANCH  11  12
ENDBRANCH   4  11
TORSDOF 5
ENDMDL
MODEL 6
REMARK VINA RESULT:    -5.007      5.172      6.928
REMARK INTER + INTRA:          -6.804
REMARK INTER:                  -6.440
REMARK INTRA:                  -0.364
REMARK UNBOUND:                -0.480
REMARK  Name = 
REMARK  5 active torsions:
REMARK  status: ('A' for Active; 'I' for Inactive)
REMARK    1  A    between atoms: N_1  and  C_2
REMARK    2  A    between atoms: C_2  and  C_3
REMARK    3  A    between atoms: C_6  and  O_7
REMARK    4  A    between atoms: O_7  and  C_8
REMARK    5  A    between atoms: C_8  and  C_9
REMARK                            x       y       z     vdW  Elec       q    Type
REMARK                         _______ _______ _______ _____ _____    ______ ____
ROOT
ATOM      1  C   UNL     1      45.744   6.820  12.571  0.00  0.00    +0.000 A 
ATOM      2  C   UNL     1      45.008   5.649  12.803  0.00  0.00    +0.000 A 
ATOM      3  C   UNL     1      45.538   4.620  13.587  0.00  0.00    +0.000 A 
ATOM      4  C   UNL     1      46.813   4.741  14.134  0.00  0.00    +0.000 A 
ATOM      5  C   UNL     1      47.532   5.922  13.949  0.00  0.00    +0.000 A 
ATOM      6  C   UNL     1      47.005   6.950  13.164  0.00  0.00    +0.000 A 
ENDROOT
BRANCH   1   7
ATOM      7  C   UNL     1      45.205   7.911  11.682  0.00  0.00    +0.000 C 
BRANCH   7   8
ATOM      8  N   UNL     1      43.831   7.650  11.277  0.00  0.00    +0.000 NA
ATOM      9  H   UNL     1      43.786   6.739  10.824  0.00  0.00    +0.000 HD
ATOM     10  H   UNL     1      43.561   8.336  10.574  0.00  0.00    +0.000 HD
ENDBRANCH   7   8
ENDBRANCH   1   7
BRANCH   4  11
ATOM     11  O   UNL     1      47.263   3.654  14.837  0.00  0.00    +0.000 OA
BRANCH  11  12
ATOM     12  C   UNL     1      47.271   3.808  16.258  0.00  0.00    +0.000 C 
BRANCH  12  13
ATOM     13  C   UNL     1      48.647   3.520  16.785  0.00  0.00    +0.000 A 
ATOM     14  C   UNL     1      49.196   2.235  16.718  0.00  0.00    +0.000 A 
ATOM     15  C   UNL     1      50.496   2.018  17.163  0.00  0.00    +0.000 A 
ATOM     16  C   UNL     1      51.207   3.097  17.656  0.00  0.00    +0.000 A 
ATOM     17  N   UNL     1      50.716   4.354  17.728  0.00  0.00    +0.000 NA
ATOM     18  C   UNL     1      49.449   4.535  17.293  0.00  0.00    +0.000 A 
ENDBRANCH  12  13
ENDBRANCH  11  12
ENDBRANCH   4  11
TORSDOF 5
ENDMDL
MODEL 7
REMARK VINA RESULT:    -4.997      2.488      3.410
REMARK INTER + INTRA:          -6.792
REMARK INTER:                  -6.358
REMARK INTRA:                  -0.434
REMARK UNBOUND:                -0.480
REMARK  Name = 
REMARK  5 active torsions:
REMARK  status: ('A' for Active; 'I' for Inactive)
REMARK    1  A    between atoms: N_1  and  C_2
REMARK    2  A    between atoms: C_2  and  C_3
REMARK    3  A    between atoms: C_6  and  O_7
REMARK    4  A    between atoms: O_7  and  C_8
REMARK    5  A    between atoms: C_8  and  C_9
REMARK                            x       y       z     vdW  Elec       q    Type
REMARK                         _______ _______ _______ _____ _____    ______ ____
ROOT
ATOM      1  C   UNL     1      45.341   3.211   8.905  0.00  0.00    +0.000 A 
ATOM      2  C   UNL     1      44.732   2.678  10.050  0.00  0.00    +0.000 A 
ATOM      3  C   UNL     1      44.411   3.502  11.134  0.00  0.00    +0.000 A 
ATOM      4  C   UNL     1      44.708   4.862  11.091  0.00  0.00    +0.000 A 
ATOM      5  C   UNL     1      45.268   5.409   9.937  0.00  0.00    +0.000 A 
ATOM      6  C   UNL     1      45.593   4.587   8.856  0.00  0.00    +0.000 A 
ENDROOT
BRANCH   1   7
ATOM      7  C   UNL     1      45.743   2.322   7.756  0.00  0.00    +0.000 C 
BRANCH   7   8
ATOM      8  N   UNL     1      46.253   1.038   8.218  0.00  0.00    +0.000 NA
ATOM      9  H   UNL     1      45.520   0.338   8.126  0.00  0.00    +0.000 HD
ATOM     10  H   UNL     1      46.463   1.108   9.213  0.00  0.00    +0.000 HD
ENDBRANCH   7   8
ENDBRANCH   1   7
BRANCH   4  11
ATOM     11  O   UNL     1      44.406   5.571  12.225  0.00  0.00    +0.000 OA
BRANCH  11  12
ATOM     12  C   UNL     1      45.485   5.729  13.149  0.00  0.00    +0.000 C 
BRANCH  12  13
ATOM     13  C   UNL     1      46.247   6.979  12.820  0.00  0.00    +0.000 A 
ATOM     14  C   UNL     1      47.575   6.927  12.385  0.00  0.00    +0.000 A 
ATOM     15  C   UNL     1      48.232   8.101  12.032  0.00  0.00    +0.000 A 
ATOM     16  C   UNL     1      47.534   9.292  12.122  0.00  0.00    +0.000 A 
ATOM     17  N   UNL     1      46.248   9.384  12.528  0.00  0.00    +0.000 NA
ATOM     18  C   UNL     1      45.637   8.227  12.868  0.00  0.00    +0.000 A 
ENDBRANCH  12  13
ENDBRANCH  11  12
ENDBRANCH   4  11
TORSDOF 5
ENDMDL
MODEL 8
REMARK VINA RESULT:    -4.734      3.770      5.255
REMARK INTER + INTRA:          -6.460
REMARK INTER:                  -5.913
REMARK INTRA:                  -0.546
REMARK UNBOUND:                -0.480
REMARK  Name = 
REMARK  5 active torsions:
REMARK  status: ('A' for Active; 'I' for Inactive)
REMARK    1  A    between atoms: N_1  and  C_2
REMARK    2  A    between atoms: C_2  and  C_3
REMARK    3  A    between atoms: C_6  and  O_7
REMARK    4  A    between atoms: O_7  and  C_8
REMARK    5  A    between atoms: C_8  and  C_9
REMARK                            x       y       z     vdW  Elec       q    Type
REMARK                         _______ _______ _______ _____ _____    ______ ____
ROOT
ATOM      1  C   UNL     1      44.478   4.084  11.277  0.00  0.00    +0.000 A 
ATOM      2  C   UNL     1      45.112   4.906  10.334  0.00  0.00    +0.000 A 
ATOM      3  C   UNL     1      45.358   6.253  10.617  0.00  0.00    +0.000 A 
ATOM      4  C   UNL     1      44.961   6.797  11.836  0.00  0.00    +0.000 A 
ATOM      5  C   UNL     1      44.374   5.975  12.798  0.00  0.00    +0.000 A 
ATOM      6  C   UNL     1      44.124   4.630  12.516  0.00  0.00    +0.000 A 
ENDROOT
BRANCH   1   7
ATOM      7  C   UNL     1      44.157   2.646  10.960  0.00  0.00    +0.000 C 
BRANCH   7   8
ATOM      8  N   UNL     1      42.973   2.186  11.672  0.00  0.00    +0.000 NA
ATOM      9  H   UNL     1      42.453   1.548  11.073  0.00  0.00    +0.000 HD
ATOM     10  H   UNL     1      42.363   2.984  11.842  0.00  0.00    +0.000 HD
ENDBRANCH   7   8
ENDBRANCH   1   7
BRANCH   4  11
ATOM     11  O   UNL     1      45.196   8.139  11.992  0.00  0.00    +0.000 OA
BRANCH  11  12
ATOM     12  C   UNL     1      45.940   8.495  13.159  0.00  0.00    +0.000 C 
BRANCH  12  13
ATOM     13  C   UNL     1      47.390   8.173  12.946  0.00  0.00    +0.000 A 
ATOM     14  C   UNL     1      48.143   8.825  11.964  0.00  0.00    +0.000 A 
ATOM     15  C   UNL     1      49.499   8.543  11.835  0.00  0.00    +0.000 A 
ATOM     16  C   UNL     1      50.060   7.619  12.698  0.00  0.00    +0.000 A 
ATOM     17  N   UNL     1      49.369   6.974  13.664  0.00  0.00    +0.000 NA
ATOM     18  C   UNL     1      48.053   7.265  13.765  0.00  0.00    +0.000 A 
ENDBRANCH  12  13
ENDBRANCH  11  12
ENDBRANCH   4  11
TORSDOF 5
ENDMDL
MODEL 9
REMARK VINA RESULT:    -4.647      4.230      6.315
REMARK INTER + INTRA:          -6.350
REMARK INTER:                  -5.954
REMARK INTRA:                  -0.396
REMARK UNBOUND:                -0.480
REMARK  Name = 
REMARK  5 active torsions:
REMARK  status: ('A' for Active; 'I' for Inactive)
REMARK    1  A    between atoms: N_1  and  C_2
REMARK    2  A    between atoms: C_2  and  C_3
REMARK    3  A    between atoms: C_6  and  O_7
REMARK    4  A    between atoms: O_7  and  C_8
REMARK    5  A    between atoms: C_8  and  C_9
REMARK                            x       y       z     vdW  Elec       q    Type
REMARK                         _______ _______ _______ _____ _____    ______ ____
ROOT
ATOM      1  C   UNL     1      44.711   4.765  11.687  0.00  0.00    +0.000 A 
ATOM      2  C   UNL     1      45.441   5.871  11.230  0.00  0.00    +0.000 A 
ATOM      3  C   UNL     1      46.629   6.250  11.863  0.00  0.00    +0.000 A 
ATOM      4  C   UNL     1      47.093   5.538  12.967  0.00  0.00    +0.000 A 
ATOM      5  C   UNL     1      46.399   4.407  13.397  0.00  0.00    +0.000 A 
ATOM      6  C   UNL     1      45.210   4.030  12.768  0.00  0.00    +0.000 A 
ENDROOT
BRANCH   1   7
ATOM      7  C   UNL     1      43.401   4.383  11.047  0.00  0.00    +0.000 C 
BRANCH   7   8
ATOM      8  N   UNL     1      42.961   3.059  11.465  0.00  0.00    +0.000 NA
ATOM      9  H   UNL     1      43.677   2.643  12.058  0.00  0.00    +0.000 HD
ATOM     10  H   UNL     1      42.886   2.463  10.642  0.00  0.00    +0.000 HD
ENDBRANCH   7   8
ENDBRANCH   1   7
BRANCH   4  11
ATOM     11  O   UNL     1      48.234   6.025  13.550  0.00  0.00    +0.000 OA
BRANCH  11  12
ATOM     12  C   UNL     1      48.394   7.443  13.483  0.00  0.00    +0.000 C 
BRANCH  12  13
ATOM     13  C   UNL     1      49.753   7.768  12.934  0.00  0.00    +0.000 A 
ATOM     14  C   UNL     1      50.014   7.711  11.561  0.00  0.00    +0.000 A 
ATOM     15  C   UNL     1      51.268   8.076  11.082  0.00  0.00    +0.000 A 
ATOM     16  C   UNL     1      52.221   8.491  11.996  0.00  0.00    +0.000 A 
ATOM     17  N   UNL     1      52.005   8.568  13.328  0.00  0.00    +0.000 NA
ATOM     18  C   UNL     1      50.778   8.204  13.764  0.00  0.00    +0.000 A 
ENDBRANCH  12  13
ENDBRANCH  11  12
ENDBRANCH   4  11
TORSDOF 5
ENDMDL
