MODEL 1
REMARK VINA RESULT:    -8.895      0.000      0.000
REMARK INTER + INTRA:         -12.151
REMARK INTER:                 -11.495
REMARK INTRA:                  -0.656
REMARK UNBOUND:                -0.656
REMARK  Name = 
REMARK  5 active torsions:
REMARK  status: ('A' for Active; 'I' for Inactive)
REMARK    1  A    between atoms: C_2  and  C_4
REMARK    2  A    between atoms: C_7  and  O_8
REMARK    3  A    between atoms: O_8  and  C_9
REMARK    4  A    between atoms: C_9  and  C_10
REMARK    5  A    between atoms: C_14  and  C_15
REMARK                            x       y       z     vdW  Elec       q    Type
REMARK                         _______ _______ _______ _____ _____    ______ ____
ROOT
ATOM      1  C   UNL     1      43.441   4.378  11.059  0.00  0.00    +0.000 C 
ENDROOT
BRANCH   1   2
ATOM      2  C   UNL     1      44.647   4.750  11.879  0.00  0.00    +0.000 A 
ATOM      3  C   UNL     1      45.134   3.890  12.856  0.00  0.00    +0.000 A 
ATOM      4  N   UNL     1      46.232   4.139  13.599  0.00  0.00    +0.000 NA
ATOM      5  C   UNL     1      46.882   5.302  13.352  0.00  0.00    +0.000 A 
ATOM      6  C   UNL     1      46.517   6.240  12.382  0.00  0.00    +0.000 A 
ATOM      7  C   UNL     1      45.373   5.919  11.636  0.00  0.00    +0.000 A 
BRANCH   6   8
ATOM      8  C   UNL     1      47.277   7.484  12.144  0.00  0.00    +0.000 A 
ATOM      9  C   UNL     1      46.674   8.750  12.260  0.00  0.00    +0.000 A 
ATOM     10  C   UNL     1      47.400   9.927  12.048  0.00  0.00    +0.000 A 
ATOM     11  C   UNL     1      48.751   9.865  11.726  0.00  0.00    +0.000 A 
ATOM     12  C   UNL     1      49.369   8.626  11.605  0.00  0.00    +0.000 A 
ATOM     13 CL   UNL     1      51.043   8.536  11.215  0.00  0.00    +0.000 Cl
ATOM     14  C   UNL     1      48.644   7.450  11.804  0.00  0.00    +0.000 A 
ENDBRANCH   6   8
ENDBRANCH   1   2
BRANCH   1  15
ATOM     15  O   UNL     1      43.625   4.741   9.681  0.00  0.00    +0.000 OA
BRANCH  15  19
ATOM     16  C   UNL     1      46.295   2.227   7.806  0.00  0.00    +0.000 A 
ATOM     17  C   UNL     1      45.386   1.696   8.726  0.00  0.00    +0.000 A 
ATOM     18  C   UNL     1      44.483   2.553   9.361  0.00  0.00    +0.000 A 
ATOM     19  C   UNL     1      44.528   3.908   9.053  0.00  0.00    +0.000 A 
ATOM     20  N   UNL     1      45.406   4.440   8.178  0.00  0.00    +0.000 NA
ATOM     21  C   UNL     1      46.276   3.594   7.583  0.00  0.00    +0.000 A 
BRANCH  16  23
ATOM     22  N   UNL     1      48.378   2.066   6.578  0.00  0.00    +0.000 N 
ATOM     23  C   UNL     1      47.282   1.410   7.065  0.00  0.00    +0.000 C 
ATOM     24  O   UNL     1      47.150   0.202   6.943  0.00  0.00    +0.000 OA
ATOM     25  H   UNL     1      49.104   1.487   6.175  0.00  0.00    +0.000 HD
ATOM     26  H   UNL     1      48.639   2.991   6.888  0.00  0.00    +0.000 HD
ENDBRANCH  16  23
ENDBRANCH  15  19
ENDBRANCH   1  15
TORSDOF 5
ENDMDL
MODEL 2
REMARK VINA RESULT:    -8.854      1.137      1.500
REMARK INTER + INTRA:         -12.099
REMARK INTER:                 -11.429
REMARK INTRA:                  -0.669
REMARK UNBOUND:                -0.656
REMARK  Name = 
REMARK  5 active torsions:
REMARK  status: ('A' for Active; 'I' for Inactive)
REMARK    1  A    between atoms: C_2  and  C_4
REMARK    2  A    between atoms: C_7  and  O_8
REMARK    3  A    between atoms: O_8  and  C_9
REMARK    4  A    between atoms: C_9  and  C_10
REMARK    5  A    between atoms: C_14  and  C_15
REMARK                            x       y       z     vdW  Elec       q    Type
REMARK                         _______ _______ _______ _____ _____    ______ ____
ROOT
ATOM      1  C   UNL     1      43.495   4.328  11.129  0.00  0.00    +0.000 C 
ENDROOT
BRANCH   1   2
ATOM      2  C   UNL     1      44.721   4.711  11.914  0.00  0.00    +0.000 A 
ATOM      3  C   UNL     1      45.272   3.835  12.842  0.00  0.00    +0.000 A 
ATOM      4  N   UNL     1      46.391   4.094  13.549  0.00  0.00    +0.000 NA
ATOM      5  C   UNL     1      46.996   5.285  13.317  0.00  0.00    +0.000 A 
ATOM      6  C   UNL     1      46.564   6.241  12.394  0.00  0.00    +0.000 A 
ATOM      7  C   UNL     1      45.402   5.910  11.682  0.00  0.00    +0.000 A 
BRANCH   6   8
ATOM      8  C   UNL     1      47.277   7.516  12.168  0.00  0.00    +0.000 A 
ATOM      9  C   UNL     1      48.664   7.552  11.934  0.00  0.00    +0.000 A 
ATOM     10  C   UNL     1      49.334   8.759  11.705  0.00  0.00    +0.000 A 
ATOM     11  C   UNL     1      48.629   9.958  11.696  0.00  0.00    +0.000 A 
ATOM     12  C   UNL     1      47.258   9.947  11.926  0.00  0.00    +0.000 A 
ATOM     13 CL   UNL     1      46.374  11.423  11.907  0.00  0.00    +0.000 Cl
ATOM     14  C   UNL     1      46.590   8.746  12.166  0.00  0.00    +0.000 A 
ENDBRANCH   6   8
ENDBRANCH   1   2
BRANCH   1  15
ATOM     15  O   UNL     1      43.627   4.715   9.752  0.00  0.00    +0.000 OA
BRANCH  15  19
ATOM     16  C   UNL     1      46.342   2.335   7.770  0.00  0.00    +0.000 A 
ATOM     17  C   UNL     1      45.432   1.746   8.653  0.00  0.00    +0.000 A 
ATOM     18  C   UNL     1      44.514   2.557   9.325  0.00  0.00    +0.000 A 
ATOM     19  C   UNL     1      44.544   3.927   9.088  0.00  0.00    +0.000 A 
ATOM     20  N   UNL     1      45.422   4.514   8.251  0.00  0.00    +0.000 NA
ATOM     21  C   UNL     1      46.308   3.712   7.619  0.00  0.00    +0.000 A 
BRANCH  16  23
ATOM     22  N   UNL     1      48.459   2.252   6.595  0.00  0.00    +0.000 N 
ATOM     23  C   UNL     1      47.344   1.570   6.996  0.00  0.00    +0.000 C 
ATOM     24  O   UNL     1      47.208   0.377   6.774  0.00  0.00    +0.000 OA
ATOM     25  H   UNL     1      49.193   1.700   6.169  0.00  0.00    +0.000 HD
ATOM     26  H   UNL     1      48.718   3.147   6.985  0.00  0.00    +0.000 HD
ENDBRANCH  16  23
ENDBRANCH  15  19
ENDBRANCH   1  15
TORSDOF 5
ENDMDL
MODEL 3
REMARK VINA RESULT:    -8.756      1.388      1.585
REMARK INTER + INTRA:         -11.972
REMARK INTER:                 -11.146
REMARK INTRA:                  -0.826
REMARK UNBOUND:                -0.656
REMARK  Name = 
REMARK  5 active torsions:
REMARK  status: ('A' for Active; 'I' for Inactive)
REMARK    1  A    between atoms: C_2  and  C_4
REMARK    2  A    between atoms: C_7  and  O_8
REMARK    3  A    between atoms: O_8  and  C_9
REMARK    4  A    between atoms: C_9  and  C_10
REMARK    5  A    between atoms: C_14  and  C_15
REMARK                            x       y       z     vdW  Elec       q    Type
REMARK                         _______ _______ _______ _____ _____    ______ ____
ROOT
ATOM      1  C   UNL     1      43.802   5.160  10.664  0.00  0.00    +0.000 C 
ENDROOT
BRANCH   1   2
ATOM      2  C   UNL     1      44.815   5.156  11.778  0.00  0.00    +0.000 A 
ATOM      3  C   UNL     1      44.692   4.275  12.846  0.00  0.00    +0.000 A 
ATOM      4  N   UNL     1      45.581   4.188  13.856  0.00  0.00    +0.000 NA
ATOM      5  C   UNL     1      46.653   5.017  13.796  0.00  0.00    +0.000 A 
ATOM      6  C   UNL     1      46.911   5.926  12.768  0.00  0.00    +0.000 A 
ATOM      7  C   UNL     1      45.955   5.963  11.742  0.00  0.00    +0.000 A 
BRANCH   6   8
ATOM      8  C   UNL     1      48.109   6.792  12.746  0.00  0.00    +0.000 A 
ATOM      9  C   UNL     1      48.431   7.575  11.622  0.00  0.00    +0.000 A 
ATOM     10  C   UNL     1      49.557   8.405  11.610  0.00  0.00    +0.000 A 
ATOM     11  C   UNL     1      50.382   8.478  12.726  0.00  0.00    +0.000 A 
ATOM     12  C   UNL     1      50.085   7.714  13.848  0.00  0.00    +0.000 A 
ATOM     13 CL   UNL     1      51.093   7.804  15.240  0.00  0.00    +0.000 Cl
ATOM     14  C   UNL     1      48.969   6.876  13.858  0.00  0.00    +0.000 A 
ENDBRANCH   6   8
ENDBRANCH   1   2
BRANCH   1  15
ATOM     15  O   UNL     1      43.567   3.828  10.180  0.00  0.00    +0.000 OA
BRANCH  15  19
ATOM     16  C   UNL     1      46.440   2.627   7.485  0.00  0.00    +0.000 A 
ATOM     17  C   UNL     1      45.920   1.697   8.389  0.00  0.00    +0.000 A 
ATOM     18  C   UNL     1      44.946   2.109   9.304  0.00  0.00    +0.000 A 
ATOM     19  C   UNL     1      44.534   3.437   9.278  0.00  0.00    +0.000 A 
ATOM     20  N   UNL     1      45.034   4.351   8.422  0.00  0.00    +0.000 NA
ATOM     21  C   UNL     1      45.982   3.933   7.553  0.00  0.00    +0.000 A 
BRANCH  16  23
ATOM     22  N   UNL     1      47.455   3.051   5.325  0.00  0.00    +0.000 N 
ATOM     23  C   UNL     1      47.460   2.295   6.465  0.00  0.00    +0.000 C 
ATOM     24  O   UNL     1      48.298   1.428   6.655  0.00  0.00    +0.000 OA
ATOM     25  H   UNL     1      48.224   2.900   4.684  0.00  0.00    +0.000 HD
ATOM     26  H   UNL     1      46.959   3.928   5.257  0.00  0.00    +0.000 HD
ENDBRANCH  16  23
ENDBRANCH  15  19
ENDBRANCH   1  15
TORSDOF 5
ENDMDL
MODEL 4
REMARK VINA RESULT:    -8.306      1.650      2.155
REMARK INTER + INTRA:         -11.390
REMARK INTER:                 -10.696
REMARK INTRA:                  -0.694
REMARK UNBOUND:                -0.656
REMARK  Name = 
REMARK  5 active torsions:
REMARK  status: ('A' for Active; 'I' for Inactive)
REMARK    1  A    between atoms: C_2  and  C_4
REMARK    2  A    between atoms: C_7  and  O_8
REMARK    3  A    between atoms: O_8  and  C_9
REMARK    4  A    between atoms: C_9  and  C_10
REMARK    5  A    between atoms: C_14  and  C_15
REMARK                            x       y       z     vdW  Elec       q    Type
REMARK                         _______ _______ _______ _____ _____    ______ ____
ROOT
ATOM      1  C   UNL     1      44.238   3.280  11.486  0.00  0.00    +0.000 C 
ENDROOT
BRANCH   1   2
ATOM      2  C   UNL     1      44.591   4.739  11.593  0.00  0.00    +0.000 A 
ATOM      3  C   UNL     1      43.646   5.720  11.318  0.00  0.00    +0.000 A 
ATOM      4  N   UNL     1      43.879   7.043  11.433  0.00  0.00    +0.000 NA
ATOM      5  C   UNL     1      45.117   7.409  11.850  0.00  0.00    +0.000 A 
ATOM      6  C   UNL     1      46.147   6.527  12.186  0.00  0.00    +0.000 A 
ATOM      7  C   UNL     1      45.839   5.165  12.056  0.00  0.00    +0.000 A 
BRANCH   6   8
ATOM      8  C   UNL     1      47.472   6.984  12.655  0.00  0.00    +0.000 A 
ATOM      9  C   UNL     1      47.942   6.678  13.945  0.00  0.00    +0.000 A 
ATOM     10  C   UNL     1      49.203   7.099  14.381  0.00  0.00    +0.000 A 
ATOM     11  C   UNL     1      50.028   7.828  13.531  0.00  0.00    +0.000 A 
ATOM     12  C   UNL     1      49.585   8.142  12.252  0.00  0.00    +0.000 A 
ATOM     13 CL   UNL     1      50.600   9.035  11.187  0.00  0.00    +0.000 Cl
ATOM     14  C   UNL     1      48.322   7.734  11.820  0.00  0.00    +0.000 A 
ENDBRANCH   6   8
ENDBRANCH   1   2
BRANCH   1  15
ATOM     15  O   UNL     1      43.651   2.986  10.208  0.00  0.00    +0.000 OA
BRANCH  15  19
ATOM     16  C   UNL     1      46.531   2.523   7.301  0.00  0.00    +0.000 A 
ATOM     17  C   UNL     1      45.835   3.732   7.387  0.00  0.00    +0.000 A 
ATOM     18  C   UNL     1      44.857   3.884   8.374  0.00  0.00    +0.000 A 
ATOM     19  C   UNL     1      44.613   2.819   9.234  0.00  0.00    +0.000 A 
ATOM     20  N   UNL     1      45.265   1.641   9.157  0.00  0.00    +0.000 NA
ATOM     21  C   UNL     1      46.200   1.512   8.189  0.00  0.00    +0.000 A 
BRANCH  16  23
ATOM     22  N   UNL     1      47.689   3.139   5.263  0.00  0.00    +0.000 N 
ATOM     23  C   UNL     1      47.596   2.260   6.307  0.00  0.00    +0.000 C 
ATOM     24  O   UNL     1      48.384   1.337   6.441  0.00  0.00    +0.000 OA
ATOM     25  H   UNL     1      48.488   3.024   4.652  0.00  0.00    +0.000 HD
ATOM     26  H   UNL     1      47.235   4.040   5.270  0.00  0.00    +0.000 HD
ENDBRANCH  16  23
ENDBRANCH  15  19
ENDBRANCH   1  15
TORSDOF 5
ENDMDL
MODEL 5
REMARK VINA RESULT:    -8.289      2.386      2.888
REMARK INTER + INTRA:         -11.368
REMARK INTER:                 -10.542
REMARK INTRA:                  -0.827
REMARK UNBOUND:                -0.656
REMARK  Name = 
REMARK  5 active torsions:
REMARK  status: ('A' for Active; 'I' for Inactive)
REMARK    1  A    between atoms: C_2  and  C_4
REMARK    2  A    between atoms: C_7  and  O_8
REMARK    3  A    between atoms: O_8  and  C_9
REMARK    4  A    between atoms: C_9  and  C_10
REMARK    5  A    between atoms: C_14  and  C_15
REMARK                            x       y       z     vdW  Elec       q    Type
REMARK                         _______ _______ _______ _____ _____    ______ ____
ROOT
ATOM      1  C   UNL     1      44.039   3.643  11.629  0.00  0.00    +0.000 C 
ENDROOT
BRANCH   1   2
ATOM      2  C   UNL     1      44.883   4.774  12.153  0.00  0.00    +0.000 A 
ATOM      3  C   UNL     1      45.973   4.524  12.977  0.00  0.00    +0.000 A 
ATOM      4  N   UNL     1      46.797   5.483  13.448  0.00  0.00    +0.000 NA
ATOM      5  C   UNL     1      46.524   6.757  13.073  0.00  0.00    +0.000 A 
ATOM      6  C   UNL     1      45.480   7.142  12.228  0.00  0.00    +0.000 A 
ATOM      7  C   UNL     1      44.665   6.099  11.764  0.00  0.00    +0.000 A 
BRANCH   6   8
ATOM      8  C   UNL     1      45.242   8.547  11.838  0.00  0.00    +0.000 A 
ATOM      9  C   UNL     1      46.123   9.576  12.218  0.00  0.00    +0.000 A 
ATOM     10  C   UNL     1      45.904  10.904  11.834  0.00  0.00    +0.000 A 
ATOM     11  C   UNL     1      44.803  11.231  11.050  0.00  0.00    +0.000 A 
ATOM     12  C   UNL     1      43.918  10.231  10.662  0.00  0.00    +0.000 A 
ATOM     13 CL   UNL     1      42.557  10.622   9.685  0.00  0.00    +0.000 Cl
ATOM     14  C   UNL     1      44.128   8.908  11.055  0.00  0.00    +0.000 A 
ENDBRANCH   6   8
ENDBRANCH   1   2
BRANCH   1  15
ATOM     15  O   UNL     1      43.657   3.876  10.264  0.00  0.00    +0.000 OA
BRANCH  15  19
ATOM     16  C   UNL     1      46.574   2.626   7.639  0.00  0.00    +0.000 A 
ATOM     17  C   UNL     1      46.234   3.981   7.690  0.00  0.00    +0.000 A 
ATOM     18  C   UNL     1      45.242   4.401   8.580  0.00  0.00    +0.000 A 
ATOM     19  C   UNL     1      44.628   3.447   9.384  0.00  0.00    +0.000 A 
ATOM     20  N   UNL     1      44.933   2.134   9.341  0.00  0.00    +0.000 NA
ATOM     21  C   UNL     1      45.888   1.749   8.465  0.00  0.00    +0.000 A 
BRANCH  16  23
ATOM     22  N   UNL     1      48.005   2.864   5.698  0.00  0.00    +0.000 N 
ATOM     23  C   UNL     1      47.618   2.076   6.747  0.00  0.00    +0.000 C 
ATOM     24  O   UNL     1      48.147   0.998   6.968  0.00  0.00    +0.000 OA
ATOM     25  H   UNL     1      48.798   2.537   5.161  0.00  0.00    +0.000 HD
ATOM     26  H   UNL     1      47.784   3.848   5.648  0.00  0.00    +0.000 HD
ENDBRANCH  16  23
ENDBRANCH  15  19
ENDBRANCH   1  15
TORSDOF 5
ENDMDL
MODEL 6
REMARK VINA RESULT:    -7.728      2.710      3.440
REMARK INTER + INTRA:         -10.642
REMARK INTER:                 -10.006
REMARK INTRA:                  -0.636
REMARK UNBOUND:                -0.656
REMARK  Name = 
REMARK  5 active torsions:
REMARK  status: ('A' for Active; 'I' for Inactive)
REMARK    1  A    between atoms: C_2  and  C_4
REMARK    2  A    between atoms: C_7  and  O_8
REMARK    3  A    between atoms: O_8  and  C_9
REMARK    4  A    between atoms: C_9  and  C_10
REMARK    5  A    between atoms: C_14  and  C_15
REMARK                            x       y       z     vdW  Elec       q    Type
REMARK                         _______ _______ _______ _____ _____    ______ ____
ROOT
ATOM      1  C   UNL     1      44.551   3.674  11.740  0.00  0.00    +0.000 C 
ENDROOT
BRANCH   1   2
ATOM      2  C   UNL     1      45.238   4.935  12.191  0.00  0.00    +0.000 A 
ATOM      3  C   UNL     1      44.847   6.173  11.695  0.00  0.00    +0.000 A 
ATOM      4  N   UNL     1      45.389   7.345  12.084  0.00  0.00    +0.000 NA
ATOM      5  C   UNL     1      46.366   7.282  13.022  0.00  0.00    +0.000 A 
ATOM      6  C   UNL     1      46.832   6.110  13.622  0.00  0.00    +0.000 A 
ATOM      7  C   UNL     1      46.223   4.925  13.183  0.00  0.00    +0.000 A 
BRANCH   6   8
ATOM      8  C   UNL     1      47.888   6.104  14.656  0.00  0.00    +0.000 A 
ATOM      9  C   UNL     1      48.973   6.999  14.605  0.00  0.00    +0.000 A 
ATOM     10  C   UNL     1      49.964   7.001  15.593  0.00  0.00    +0.000 A 
ATOM     11  C   UNL     1      49.887   6.114  16.661  0.00  0.00    +0.000 A 
ATOM     12  C   UNL     1      48.824   5.221  16.732  0.00  0.00    +0.000 A 
ATOM     13 CL   UNL     1      48.713   4.125  18.055  0.00  0.00    +0.000 Cl
ATOM     14  C   UNL     1      47.842   5.208  15.742  0.00  0.00    +0.000 A 
ENDBRANCH   6   8
ENDBRANCH   1   2
BRANCH   1  15
ATOM     15  O   UNL     1      43.975   3.842  10.434  0.00  0.00    +0.000 OA
BRANCH  15  19
ATOM     16  C   UNL     1      46.582   2.670   7.469  0.00  0.00    +0.000 A 
ATOM     17  C   UNL     1      46.198   4.011   7.551  0.00  0.00    +0.000 A 
ATOM     18  C   UNL     1      45.312   4.404   8.558  0.00  0.00    +0.000 A 
ATOM     19  C   UNL     1      44.843   3.439   9.441  0.00  0.00    +0.000 A 
ATOM     20  N   UNL     1      45.192   2.138   9.370  0.00  0.00    +0.000 NA
ATOM     21  C   UNL     1      46.042   1.778   8.382  0.00  0.00    +0.000 A 
BRANCH  16  23
ATOM     22  N   UNL     1      47.826   2.981   5.413  0.00  0.00    +0.000 N 
ATOM     23  C   UNL     1      47.526   2.148   6.455  0.00  0.00    +0.000 C 
ATOM     24  O   UNL     1      48.051   1.052   6.573  0.00  0.00    +0.000 OA
ATOM     25  H   UNL     1      48.558   2.668   4.787  0.00  0.00    +0.000 HD
ATOM     26  H   UNL     1      47.621   3.969   5.430  0.00  0.00    +0.000 HD
ENDBRANCH  16  23
ENDBRANCH  15  19
ENDBRANCH   1  15
TORSDOF 5
ENDMDL
MODEL 7
REMARK VINA RESULT:    -7.578      4.370      7.839
REMARK INTER + INTRA:         -10.449
REMARK INTER:                  -9.866
REMARK INTRA:                  -0.583
REMARK UNBOUND:                -0.656
REMARK  Name = 
REMARK  5 active torsions:
REMARK  status: ('A' for Active; 'I' for Inactive)
REMARK    1  A    between atoms: C_2  and  C_4
REMARK    2  A    between atoms: C_7  and  O_8
REMARK    3  A    between atoms: O_8  and  C_9
REMARK    4  A    between atoms: C_9  and  C_10
REMARK    5  A    between atoms: C_14  and  C_15
REMARK                            x       y       z     vdW  Elec       q    Type
REMARK                         _______ _______ _______ _____ _____    ______ ____
ROOT
ATOM      1  C   UNL     1      45.385   4.632  13.683  0.00  0.00    +0.000 C 
ENDROOT
BRANCH   1   2
ATOM      2  C   UNL     1      44.777   4.572  12.308  0.00  0.00    +0.000 A 
ATOM      3  C   UNL     1      43.567   5.200  12.039  0.00  0.00    +0.000 A 
ATOM      4  N   UNL     1      42.985   5.223  10.822  0.00  0.00    +0.000 NA
ATOM      5  C   UNL     1      43.646   4.594   9.819  0.00  0.00    +0.000 A 
ATOM      6  C   UNL     1      44.880   3.951   9.947  0.00  0.00    +0.000 A 
ATOM      7  C   UNL     1      45.439   3.970  11.234  0.00  0.00    +0.000 A 
BRANCH   6   8
ATOM      8  C   UNL     1      45.565   3.298   8.812  0.00  0.00    +0.000 A 
ATOM      9  C   UNL     1      46.073   4.042   7.731  0.00  0.00    +0.000 A 
ATOM     10  C   UNL     1      46.734   3.423   6.665  0.00  0.00    +0.000 A 
ATOM     11  C   UNL     1      46.911   2.044   6.661  0.00  0.00    +0.000 A 
ATOM     12  C   UNL     1      46.417   1.287   7.717  0.00  0.00    +0.000 A 
ATOM     13 CL   UNL     1      46.638  -0.420   7.727  0.00  0.00    +0.000 Cl
ATOM     14  C   UNL     1      45.747   1.902   8.775  0.00  0.00    +0.000 A 
ENDBRANCH   6   8
ENDBRANCH   1   2
BRANCH   1  15
ATOM     15  O   UNL     1      46.810   4.800  13.608  0.00  0.00    +0.000 OA
BRANCH  15  19
ATOM     16  C   UNL     1      48.590   4.319  17.291  0.00  0.00    +0.000 A 
ATOM     17  C   UNL     1      47.821   3.279  16.762  0.00  0.00    +0.000 A 
ATOM     18  C   UNL     1      47.217   3.447  15.513  0.00  0.00    +0.000 A 
ATOM     19  C   UNL     1      47.405   4.651  14.844  0.00  0.00    +0.000 A 
ATOM     20  N   UNL     1      48.133   5.670  15.343  0.00  0.00    +0.000 NA
ATOM     21  C   UNL     1      48.700   5.490  16.557  0.00  0.00    +0.000 A 
BRANCH  16  23
ATOM     22  N   UNL     1      48.547   3.806  19.659  0.00  0.00    +0.000 N 
ATOM     23  C   UNL     1      49.287   4.243  18.594  0.00  0.00    +0.000 C 
ATOM     24  O   UNL     1      50.475   4.504  18.703  0.00  0.00    +0.000 OA
ATOM     25  H   UNL     1      49.055   3.644  20.520  0.00  0.00    +0.000 HD
ATOM     26  H   UNL     1      47.659   3.338  19.548  0.00  0.00    +0.000 HD
ENDBRANCH  16  23
ENDBRANCH  15  19
ENDBRANCH   1  15
TORSDOF 5
ENDMDL
MODEL 8
REMARK VINA RESULT:    -7.564      3.785      6.941
REMARK INTER + INTRA:         -10.431
REMARK INTER:                  -9.598
REMARK INTRA:                  -0.833
REMARK UNBOUND:                -0.656
REMARK  Name = 
REMARK  5 active torsions:
REMARK  status: ('A' for Active; 'I' for Inactive)
REMARK    1  A    between atoms: C_2  and  C_4
REMARK    2  A    between atoms: C_7  and  O_8
REMARK    3  A    between atoms: O_8  and  C_9
REMARK    4  A    between atoms: C_9  and  C_10
REMARK    5  A    between atoms: C_14  and  C_15
REMARK                            x       y       z     vdW  Elec       q    Type
REMARK                         _______ _______ _______ _____ _____    ______ ____
ROOT
ATOM      1  C   UNL     1      44.848   7.275  11.710  0.00  0.00    +0.000 C 
ENDROOT
BRANCH   1   2
ATOM      2  C   UNL     1      44.527   5.875  11.260  0.00  0.00    +0.000 A 
ATOM      3  C   UNL     1      43.474   5.171  11.831  0.00  0.00    +0.000 A 
ATOM      4  N   UNL     1      43.103   3.931  11.449  0.00  0.00    +0.000 NA
ATOM      5  C   UNL     1      43.815   3.367  10.442  0.00  0.00    +0.000 A 
ATOM      6  C   UNL     1      44.875   3.975   9.765  0.00  0.00    +0.000 A 
ATOM      7  C   UNL     1      45.205   5.266  10.201  0.00  0.00    +0.000 A 
BRANCH   6   8
ATOM      8  C   UNL     1      45.602   3.317   8.660  0.00  0.00    +0.000 A 
ATOM      9  C   UNL     1      46.141   4.056   7.590  0.00  0.00    +0.000 A 
ATOM     10  C   UNL     1      46.842   3.433   6.552  0.00  0.00    +0.000 A 
ATOM     11  C   UNL     1      47.029   2.055   6.566  0.00  0.00    +0.000 A 
ATOM     12  C   UNL     1      46.506   1.304   7.612  0.00  0.00    +0.000 A 
ATOM     13 CL   UNL     1      46.739  -0.401   7.644  0.00  0.00    +0.000 Cl
ATOM     14  C   UNL     1      45.795   1.922   8.641  0.00  0.00    +0.000 A 
ENDBRANCH   6   8
ENDBRANCH   1   2
BRANCH   1  15
ATOM     15  O   UNL     1      45.678   7.260  12.883  0.00  0.00    +0.000 OA
BRANCH  15  19
ATOM     16  C   UNL     1      49.543   8.384  12.014  0.00  0.00    +0.000 A 
ATOM     17  C   UNL     1      49.276   7.053  12.344  0.00  0.00    +0.000 A 
ATOM     18  C   UNL     1      47.964   6.676  12.640  0.00  0.00    +0.000 A 
ATOM     19  C   UNL     1      46.970   7.647  12.597  0.00  0.00    +0.000 A 
ATOM     20  N   UNL     1      47.211   8.939  12.293  0.00  0.00    +0.000 NA
ATOM     21  C   UNL     1      48.489   9.284  12.020  0.00  0.00    +0.000 A 
BRANCH  16  23
ATOM     22  N   UNL     1      50.946   9.935  10.788  0.00  0.00    +0.000 N 
ATOM     23  C   UNL     1      50.891   8.888  11.667  0.00  0.00    +0.000 C 
ATOM     24  O   UNL     1      51.899   8.429  12.182  0.00  0.00    +0.000 OA
ATOM     25  H   UNL     1      51.858  10.350  10.644  0.00  0.00    +0.000 HD
ATOM     26  H   UNL     1      50.139  10.496  10.560  0.00  0.00    +0.000 HD
ENDBRANCH  16  23
ENDBRANCH  15  19
ENDBRANCH   1  15
TORSDOF 5
ENDMDL
MODEL 9
REMARK VINA RESULT:    -6.914      4.509      8.255
REMARK INTER + INTRA:          -9.591
REMARK INTER:                  -8.914
REMARK INTRA:                  -0.678
REMARK UNBOUND:                -0.656
REMARK  Name = 
REMARK  5 active torsions:
REMARK  status: ('A' for Active; 'I' for Inactive)
REMARK    1  A    between atoms: C_2  and  C_4
REMARK    2  A    between atoms: C_7  and  O_8
REMARK    3  A    between atoms: O_8  and  C_9
REMARK    4  A    between atoms: C_9  and  C_10
REMARK    5  A    between atoms: C_14  and  C_15
REMARK                            x       y       z     vdW  Elec       q    Type
REMARK                         _______ _______ _______ _____ _____    ______ ____
ROOT
ATOM      1  C   UNL     1      48.209   7.439  13.927  0.00  0.00    +0.000 C 
ENDROOT
BRANCH   1   2
ATOM      2  C   UNL     1      46.997   7.381  13.036  0.00  0.00    +0.000 A 
ATOM      3  C   UNL     1      46.173   8.489  12.886  0.00  0.00    +0.000 A 
ATOM      4  N   UNL     1      45.096   8.522  12.075  0.00  0.00    +0.000 NA
ATOM      5  C   UNL     1      44.829   7.394  11.372  0.00  0.00    +0.000 A 
ATOM      6  C   UNL     1      45.591   6.223  11.408  0.00  0.00    +0.000 A 
ATOM      7  C   UNL     1      46.703   6.255  12.262  0.00  0.00    +0.000 A 
BRANCH   6   8
ATOM      8  C   UNL     1      45.263   5.029  10.602  0.00  0.00    +0.000 A 
ATOM      9  C   UNL     1      44.436   4.007  11.102  0.00  0.00    +0.000 A 
ATOM     10  C   UNL     1      44.115   2.884  10.332  0.00  0.00    +0.000 A 
ATOM     11  C   UNL     1      44.606   2.763   9.037  0.00  0.00    +0.000 A 
ATOM     12  C   UNL     1      45.425   3.760   8.520  0.00  0.00    +0.000 A 
ATOM     13 CL   UNL     1      46.032   3.626   6.915  0.00  0.00    +0.000 Cl
ATOM     14  C   UNL     1      45.757   4.875   9.292  0.00  0.00    +0.000 A 
ENDBRANCH   6   8
ENDBRANCH   1   2
BRANCH   1  15
ATOM     15  O   UNL     1      48.639   6.119  14.296  0.00  0.00    +0.000 OA
BRANCH  15  19
ATOM     16  C   UNL     1      48.249   5.510  18.350  0.00  0.00    +0.000 A 
ATOM     17  C   UNL     1      48.649   6.765  17.882  0.00  0.00    +0.000 A 
ATOM     18  C   UNL     1      48.782   6.967  16.506  0.00  0.00    +0.000 A 
ATOM     19  C   UNL     1      48.512   5.903  15.652  0.00  0.00    +0.000 A 
ATOM     20  N   UNL     1      48.138   4.682  16.085  0.00  0.00    +0.000 NA
ATOM     21  C   UNL     1      48.025   4.507  17.421  0.00  0.00    +0.000 A 
BRANCH  16  23
ATOM     22  N   UNL     1      48.592   4.011  20.223  0.00  0.00    +0.000 N 
ATOM     23  C   UNL     1      48.061   5.192  19.783  0.00  0.00    +0.000 C 
ATOM     24  O   UNL     1      47.508   5.970  20.545  0.00  0.00    +0.000 OA
ATOM     25  H   UNL     1      48.564   3.852  21.223  0.00  0.00    +0.000 HD
ATOM     26  H   UNL     1      49.270   3.488  19.689  0.00  0.00    +0.000 HD
ENDBRANCH  16  23
ENDBRANCH  15  19
ENDBRANCH   1  15
TORSDOF 5
ENDMDL
