MODEL 1
REMARK VINA RESULT:    -8.365      0.000      0.000
REMARK INTER + INTRA:         -12.431
REMARK INTER:                 -11.789
REMARK INTRA:                  -0.642
REMARK UNBOUND:                -0.642
REMARK  Name = 
REMARK  8 active torsions:
REMARK  status: ('A' for Active; 'I' for Inactive)
REMARK    1  A    between atoms: C_1  and  C_2
REMARK    2  A    between atoms: C_2  and  O_3
REMARK    3  A    between atoms: O_3  and  C_4
REMARK    4  A    between atoms: C_8  and  C_9
REMARK    5  A    between atoms: C_9  and  C_10
REMARK    6  A    between atoms: C_10  and  N_11
REMARK    7  A    between atoms: N_11  and  C_12
REMARK    8  A    between atoms: C_15  and  C_16
REMARK                            x       y       z     vdW  Elec       q    Type
REMARK                         _______ _______ _______ _____ _____    ______ ____
ROOT
ATOM      1  C   UNL     1      43.331   4.326  11.484  0.00  0.00    +0.000 C 
ENDROOT
BRANCH   1   2
ATOM      2  N   UNL     1      43.629   4.706  10.099  0.00  0.00    +0.000 N 
ATOM      3  H   UNL     1      43.850   5.695  10.007  0.00  0.00    +0.000 HD
BRANCH   2   4
ATOM      4  C   UNL     1      44.567   3.912   9.412  0.00  0.00    +0.000 A 
ATOM      5  C   UNL     1      44.609   2.516   9.521  0.00  0.00    +0.000 A 
ATOM      6  C   UNL     1      45.516   1.754   8.776  0.00  0.00    +0.000 A 
ATOM      7  C   UNL     1      46.379   2.367   7.869  0.00  0.00    +0.000 A 
ATOM      8  C   UNL     1      46.330   3.756   7.718  0.00  0.00    +0.000 A 
ATOM      9  C   UNL     1      45.418   4.514   8.473  0.00  0.00    +0.000 A 
BRANCH   7  10
ATOM     10  C   UNL     1      47.316   1.503   7.107  0.00  0.00    +0.000 C 
ATOM     11  N   UNL     1      48.398   2.106   6.525  0.00  0.00    +0.000 N 
ATOM     12  O   UNL     1      47.117   0.302   6.960  0.00  0.00    +0.000 OA
ATOM     13  H   UNL     1      48.459   3.108   6.401  0.00  0.00    +0.000 HD
ATOM     14  H   UNL     1      48.946   1.525   5.903  0.00  0.00    +0.000 HD
ENDBRANCH   7  10
ENDBRANCH   2   4
ENDBRANCH   1   2
BRANCH   1  15
ATOM     15  C   UNL     1      43.529   5.503  12.448  0.00  0.00    +0.000 C 
BRANCH  15  20
ATOM     16  C   UNL     1      47.035   4.893  13.853  0.00  0.00    +0.000 A 
ATOM     17  C   UNL     1      47.774   5.831  13.135  0.00  0.00    +0.000 A 
ATOM     18  C   UNL     1      47.134   6.704  12.254  0.00  0.00    +0.000 A 
ATOM     19  C   UNL     1      45.756   6.627  12.063  0.00  0.00    +0.000 A 
ATOM     20  C   UNL     1      45.001   5.671  12.754  0.00  0.00    +0.000 A 
ATOM     21  C   UNL     1      45.651   4.812  13.654  0.00  0.00    +0.000 A 
BRANCH  16  22
ATOM     22  O   UNL     1      47.553   3.992  14.752  0.00  0.00    +0.000 OA
BRANCH  22  24
ATOM     23  C   UNL     1      48.469   5.768  16.175  0.00  0.00    +0.000 C 
ATOM     24  C   UNL     1      47.829   4.383  16.126  0.00  0.00    +0.000 C 
ATOM     25  C   UNL     1      46.785   4.039  17.217  0.00  0.00    +0.000 C 
ATOM     26  O   UNL     1      47.565   2.917  17.687  0.00  0.00    +0.000 OA
ATOM     27  C   UNL     1      48.694   3.352  16.895  0.00  0.00    +0.000 C 
ENDBRANCH  22  24
ENDBRANCH  16  22
ENDBRANCH  15  20
ENDBRANCH   1  15
TORSDOF 7
ENDMDL
MODEL 2
REMARK VINA RESULT:    -8.087      2.072      3.537
REMARK INTER + INTRA:         -12.038
REMARK INTER:                 -11.053
REMARK INTRA:                  -0.985
REMARK UNBOUND:                -0.642
REMARK  Name = 
REMARK  8 active torsions:
REMARK  status: ('A' for Active; 'I' for Inactive)
REMARK    1  A    between atoms: C_1  and  C_2
REMARK    2  A    between atoms: C_2  and  O_3
REMARK    3  A    between atoms: O_3  and  C_4
REMARK    4  A    between atoms: C_8  and  C_9
REMARK    5  A    between atoms: C_9  and  C_10
REMARK    6  A    between atoms: C_10  and  N_11
REMARK    7  A    between atoms: N_11  and  C_12
REMARK    8  A    between atoms: C_15  and  C_16
REMARK                            x       y       z     vdW  Elec       q    Type
REMARK                         _______ _______ _______ _____ _____    ______ ____
ROOT
ATOM      1  C   UNL     1      43.190   4.342  11.167  0.00  0.00    +0.000 C 
ENDROOT
BRANCH   1   2
ATOM      2  N   UNL     1      43.741   4.833   9.900  0.00  0.00    +0.000 N 
ATOM      3  H   UNL     1      44.097   5.783   9.973  0.00  0.00    +0.000 HD
BRANCH   2   4
ATOM      4  C   UNL     1      44.664   3.995   9.244  0.00  0.00    +0.000 A 
ATOM      5  C   UNL     1      44.662   2.602   9.383  0.00  0.00    +0.000 A 
ATOM      6  C   UNL     1      45.556   1.797   8.668  0.00  0.00    +0.000 A 
ATOM      7  C   UNL     1      46.450   2.364   7.762  0.00  0.00    +0.000 A 
ATOM      8  C   UNL     1      46.446   3.749   7.581  0.00  0.00    +0.000 A 
ATOM      9  C   UNL     1      45.547   4.552   8.306  0.00  0.00    +0.000 A 
BRANCH   7  10
ATOM     10  C   UNL     1      47.371   1.454   7.033  0.00  0.00    +0.000 C 
ATOM     11  N   UNL     1      48.500   2.005   6.488  0.00  0.00    +0.000 N 
ATOM     12  O   UNL     1      47.122   0.264   6.880  0.00  0.00    +0.000 OA
ATOM     13  H   UNL     1      48.611   3.003   6.366  0.00  0.00    +0.000 HD
ATOM     14  H   UNL     1      49.042   1.398   5.886  0.00  0.00    +0.000 HD
ENDBRANCH   7  10
ENDBRANCH   2   4
ENDBRANCH   1   2
BRANCH   1  15
ATOM     15  C   UNL     1      43.383   5.360  12.298  0.00  0.00    +0.000 C 
BRANCH  15  20
ATOM     16  C   UNL     1      46.813   6.568  13.487  0.00  0.00    +0.000 A 
ATOM     17  C   UNL     1      47.424   5.357  13.803  0.00  0.00    +0.000 A 
ATOM     18  C   UNL     1      46.760   4.152  13.568  0.00  0.00    +0.000 A 
ATOM     19  C   UNL     1      45.470   4.151  13.041  0.00  0.00    +0.000 A 
ATOM     20  C   UNL     1      44.828   5.359  12.745  0.00  0.00    +0.000 A 
ATOM     21  C   UNL     1      45.514   6.565  12.966  0.00  0.00    +0.000 A 
BRANCH  16  22
ATOM     22  O   UNL     1      47.372   7.811  13.665  0.00  0.00    +0.000 OA
BRANCH  22  24
ATOM     23  C   UNL     1      48.593   7.745  11.539  0.00  0.00    +0.000 C 
ATOM     24  C   UNL     1      47.807   8.604  12.526  0.00  0.00    +0.000 C 
ATOM     25  C   UNL     1      46.832   9.655  11.940  0.00  0.00    +0.000 C 
ATOM     26  O   UNL     1      47.526  10.743  12.592  0.00  0.00    +0.000 OA
ATOM     27  C   UNL     1      48.621   9.861  12.929  0.00  0.00    +0.000 C 
ENDBRANCH  22  24
ENDBRANCH  16  22
ENDBRANCH  15  20
ENDBRANCH   1  15
TORSDOF 7
ENDMDL
MODEL 3
REMARK VINA RESULT:    -7.790      2.051      2.558
REMARK INTER + INTRA:         -11.621
REMARK INTER:                 -10.839
REMARK INTRA:                  -0.781
REMARK UNBOUND:                -0.642
REMARK  Name = 
REMARK  8 active torsions:
REMARK  status: ('A' for Active; 'I' for Inactive)
REMARK    1  A    between atoms: C_1  and  C_2
REMARK    2  A    between atoms: C_2  and  O_3
REMARK    3  A    between atoms: O_3  and  C_4
REMARK    4  A    between atoms: C_8  and  C_9
REMARK    5  A    between atoms: C_9  and  C_10
REMARK    6  A    between atoms: C_10  and  N_11
REMARK    7  A    between atoms: N_11  and  C_12
REMARK    8  A    between atoms: C_15  and  C_16
REMARK                            x       y       z     vdW  Elec       q    Type
REMARK                         _______ _______ _______ _____ _____    ______ ____
ROOT
ATOM      1  C   UNL     1      43.948   3.239  12.021  0.00  0.00    +0.000 C 
ENDROOT
BRANCH   1   2
ATOM      2  N   UNL     1      43.592   3.709  10.679  0.00  0.00    +0.000 N 
ATOM      3  H   UNL     1      43.339   4.694  10.666  0.00  0.00    +0.000 HD
BRANCH   2   4
ATOM      4  C   UNL     1      44.496   3.406   9.641  0.00  0.00    +0.000 A 
ATOM      5  C   UNL     1      45.190   4.389   8.924  0.00  0.00    +0.000 A 
ATOM      6  C   UNL     1      46.125   4.050   7.941  0.00  0.00    +0.000 A 
ATOM      7  C   UNL     1      46.422   2.714   7.677  0.00  0.00    +0.000 A 
ATOM      8  C   UNL     1      45.767   1.716   8.405  0.00  0.00    +0.000 A 
ATOM      9  C   UNL     1      44.826   2.066   9.389  0.00  0.00    +0.000 A 
BRANCH   7  10
ATOM     10  C   UNL     1      47.426   2.420   6.622  0.00  0.00    +0.000 C 
ATOM     11  N   UNL     1      47.286   3.064   5.423  0.00  0.00    +0.000 N 
ATOM     12  O   UNL     1      48.324   1.603   6.791  0.00  0.00    +0.000 OA
ATOM     13  H   UNL     1      46.432   3.535   5.156  0.00  0.00    +0.000 HD
ATOM     14  H   UNL     1      47.898   2.751   4.679  0.00  0.00    +0.000 HD
ENDBRANCH   7  10
ENDBRANCH   2   4
ENDBRANCH   1   2
BRANCH   1  15
ATOM     15  C   UNL     1      43.839   4.362  13.060  0.00  0.00    +0.000 C 
BRANCH  15  20
ATOM     16  C   UNL     1      47.108   6.336  12.831  0.00  0.00    +0.000 A 
ATOM     17  C   UNL     1      46.744   7.348  11.946  0.00  0.00    +0.000 A 
ATOM     18  C   UNL     1      45.432   7.436  11.480  0.00  0.00    +0.000 A 
ATOM     19  C   UNL     1      44.481   6.496  11.874  0.00  0.00    +0.000 A 
ATOM     20  C   UNL     1      44.836   5.454  12.739  0.00  0.00    +0.000 A 
ATOM     21  C   UNL     1      46.154   5.388  13.220  0.00  0.00    +0.000 A 
BRANCH  16  22
ATOM     22  O   UNL     1      48.363   6.158  13.362  0.00  0.00    +0.000 OA
BRANCH  22  24
ATOM     23  C   UNL     1      50.097   7.855  13.003  0.00  0.00    +0.000 C 
ATOM     24  C   UNL     1      49.080   7.265  13.976  0.00  0.00    +0.000 C 
ATOM     25  C   UNL     1      48.289   8.252  14.869  0.00  0.00    +0.000 C 
ATOM     26  O   UNL     1      48.787   7.641  16.081  0.00  0.00    +0.000 OA
ATOM     27  C   UNL     1      49.758   6.889  15.318  0.00  0.00    +0.000 C 
ENDBRANCH  22  24
ENDBRANCH  16  22
ENDBRANCH  15  20
ENDBRANCH   1  15
TORSDOF 7
ENDMDL
MODEL 4
REMARK VINA RESULT:    -7.564      1.410      1.803
REMARK INTER + INTRA:         -11.302
REMARK INTER:                 -10.768
REMARK INTRA:                  -0.534
REMARK UNBOUND:                -0.642
REMARK  Name = 
REMARK  8 active torsions:
REMARK  status: ('A' for Active; 'I' for Inactive)
REMARK    1  A    between atoms: C_1  and  C_2
REMARK    2  A    between atoms: C_2  and  O_3
REMARK    3  A    between atoms: O_3  and  C_4
REMARK    4  A    between atoms: C_8  and  C_9
REMARK    5  A    between atoms: C_9  and  C_10
REMARK    6  A    between atoms: C_10  and  N_11
REMARK    7  A    between atoms: N_11  and  C_12
REMARK    8  A    between atoms: C_15  and  C_16
REMARK                            x       y       z     vdW  Elec       q    Type
REMARK                         _______ _______ _______ _____ _____    ______ ____
ROOT
ATOM      1  C   UNL     1      44.008   3.832  11.969  0.00  0.00    +0.000 C 
ENDROOT
BRANCH   1   2
ATOM      2  N   UNL     1      43.676   3.952  10.546  0.00  0.00    +0.000 N 
ATOM      3  H   UNL     1      43.342   4.882  10.301  0.00  0.00    +0.000 HD
BRANCH   2   4
ATOM      4  C   UNL     1      44.649   3.507   9.629  0.00  0.00    +0.000 A 
ATOM      5  C   UNL     1      44.889   2.152   9.370  0.00  0.00    +0.000 A 
ATOM      6  C   UNL     1      45.821   1.748   8.408  0.00  0.00    +0.000 A 
ATOM      7  C   UNL     1      46.509   2.692   7.648  0.00  0.00    +0.000 A 
ATOM      8  C   UNL     1      46.259   4.050   7.865  0.00  0.00    +0.000 A 
ATOM      9  C   UNL     1      45.324   4.448   8.836  0.00  0.00    +0.000 A 
BRANCH   7  10
ATOM     10  C   UNL     1      47.483   2.198   6.641  0.00  0.00    +0.000 C 
ATOM     11  N   UNL     1      47.752   3.011   5.574  0.00  0.00    +0.000 N 
ATOM     12  O   UNL     1      48.001   1.091   6.728  0.00  0.00    +0.000 OA
ATOM     13  H   UNL     1      47.165   3.799   5.331  0.00  0.00    +0.000 HD
ATOM     14  H   UNL     1      48.312   2.602   4.836  0.00  0.00    +0.000 HD
ENDBRANCH   7  10
ENDBRANCH   2   4
ENDBRANCH   1   2
BRANCH   1  15
ATOM     15  C   UNL     1      45.525   3.832  12.197  0.00  0.00    +0.000 C 
BRANCH  15  20
ATOM     16  C   UNL     1      47.666   6.657  13.637  0.00  0.00    +0.000 A 
ATOM     17  C   UNL     1      46.910   7.771  13.278  0.00  0.00    +0.000 A 
ATOM     18  C   UNL     1      45.681   7.609  12.636  0.00  0.00    +0.000 A 
ATOM     19  C   UNL     1      45.213   6.333  12.325  0.00  0.00    +0.000 A 
ATOM     20  C   UNL     1      45.972   5.204  12.652  0.00  0.00    +0.000 A 
ATOM     21  C   UNL     1      47.197   5.377  13.317  0.00  0.00    +0.000 A 
BRANCH  16  22
ATOM     22  O   UNL     1      48.880   6.694  14.279  0.00  0.00    +0.000 OA
BRANCH  22  24
ATOM     23  C   UNL     1      48.679   8.173  16.226  0.00  0.00    +0.000 C 
ATOM     24  C   UNL     1      48.958   6.756  15.731  0.00  0.00    +0.000 C 
ATOM     25  C   UNL     1      48.369   5.583  16.553  0.00  0.00    +0.000 C 
ATOM     26  O   UNL     1      49.680   5.026  16.799  0.00  0.00    +0.000 OA
ATOM     27  C   UNL     1      50.302   6.231  16.297  0.00  0.00    +0.000 C 
ENDBRANCH  22  24
ENDBRANCH  16  22
ENDBRANCH  15  20
ENDBRANCH   1  15
TORSDOF 7
ENDMDL
MODEL 5
REMARK VINA RESULT:    -7.451      2.486      3.077
REMARK INTER + INTRA:         -11.143
REMARK INTER:                 -10.379
REMARK INTRA:                  -0.764
REMARK UNBOUND:                -0.642
REMARK  Name = 
REMARK  8 active torsions:
REMARK  status: ('A' for Active; 'I' for Inactive)
REMARK    1  A    between atoms: C_1  and  C_2
REMARK    2  A    between atoms: C_2  and  O_3
REMARK    3  A    between atoms: O_3  and  C_4
REMARK    4  A    between atoms: C_8  and  C_9
REMARK    5  A    between atoms: C_9  and  C_10
REMARK    6  A    between atoms: C_10  and  N_11
REMARK    7  A    between atoms: N_11  and  C_12
REMARK    8  A    between atoms: C_15  and  C_16
REMARK                            x       y       z     vdW  Elec       q    Type
REMARK                         _______ _______ _______ _____ _____    ______ ____
ROOT
ATOM      1  C   UNL     1      43.914   5.205  11.220  0.00  0.00    +0.000 C 
ENDROOT
BRANCH   1   2
ATOM      2  N   UNL     1      43.760   4.954   9.784  0.00  0.00    +0.000 N 
ATOM      3  H   UNL     1      43.769   5.813   9.237  0.00  0.00    +0.000 HD
BRANCH   2   4
ATOM      4  C   UNL     1      44.609   3.984   9.216  0.00  0.00    +0.000 A 
ATOM      5  C   UNL     1      44.493   2.616   9.490  0.00  0.00    +0.000 A 
ATOM      6  C   UNL     1      45.314   1.674   8.860  0.00  0.00    +0.000 A 
ATOM      7  C   UNL     1      46.248   2.075   7.906  0.00  0.00    +0.000 A 
ATOM      8  C   UNL     1      46.357   3.432   7.591  0.00  0.00    +0.000 A 
ATOM      9  C   UNL     1      45.530   4.372   8.231  0.00  0.00    +0.000 A 
BRANCH   7  10
ATOM     10  C   UNL     1      47.088   1.027   7.272  0.00  0.00    +0.000 C 
ATOM     11  N   UNL     1      46.811  -0.277   7.586  0.00  0.00    +0.000 N 
ATOM     12  O   UNL     1      48.021   1.304   6.528  0.00  0.00    +0.000 OA
ATOM     13  H   UNL     1      46.237  -0.534   8.378  0.00  0.00    +0.000 HD
ATOM     14  H   UNL     1      47.476  -0.963   7.251  0.00  0.00    +0.000 HD
ENDBRANCH   7  10
ENDBRANCH   2   4
ENDBRANCH   1   2
BRANCH   1  15
ATOM     15  C   UNL     1      45.388   5.183  11.644  0.00  0.00    +0.000 C 
BRANCH  15  20
ATOM     16  C   UNL     1      47.666   8.171  12.363  0.00  0.00    +0.000 A 
ATOM     17  C   UNL     1      46.770   9.227  12.220  0.00  0.00    +0.000 A 
ATOM     18  C   UNL     1      45.422   8.974  11.961  0.00  0.00    +0.000 A 
ATOM     19  C   UNL     1      44.966   7.665  11.817  0.00  0.00    +0.000 A 
ATOM     20  C   UNL     1      45.858   6.592  11.929  0.00  0.00    +0.000 A 
ATOM     21  C   UNL     1      47.209   6.856  12.211  0.00  0.00    +0.000 A 
BRANCH  16  22
ATOM     22  O   UNL     1      49.009   8.298  12.628  0.00  0.00    +0.000 OA
BRANCH  22  24
ATOM     23  C   UNL     1      49.823  10.207  13.936  0.00  0.00    +0.000 C 
ATOM     24  C   UNL     1      49.475   8.721  13.940  0.00  0.00    +0.000 C 
ATOM     25  C   UNL     1      48.764   8.157  15.195  0.00  0.00    +0.000 C 
ATOM     26  O   UNL     1      49.831   7.213  15.443  0.00  0.00    +0.000 OA
ATOM     27  C   UNL     1      50.666   7.880  14.469  0.00  0.00    +0.000 C 
ENDBRANCH  22  24
ENDBRANCH  16  22
ENDBRANCH  15  20
ENDBRANCH   1  15
TORSDOF 7
ENDMDL
MODEL 6
REMARK VINA RESULT:    -6.965      2.331      3.250
REMARK INTER + INTRA:         -10.458
REMARK INTER:                  -9.685
REMARK INTRA:                  -0.773
REMARK UNBOUND:                -0.642
REMARK  Name = 
REMARK  8 active torsions:
REMARK  status: ('A' for Active; 'I' for Inactive)
REMARK    1  A    between atoms: C_1  and  C_2
REMARK    2  A    between atoms: C_2  and  O_3
REMARK    3  A    between atoms: O_3  and  C_4
REMARK    4  A    between atoms: C_8  and  C_9
REMARK    5  A    between atoms: C_9  and  C_10
REMARK    6  A    between atoms: C_10  and  N_11
REMARK    7  A    between atoms: N_11  and  C_12
REMARK    8  A    between atoms: C_15  and  C_16
REMARK                            x       y       z     vdW  Elec       q    Type
REMARK                         _______ _______ _______ _____ _____    ______ ____
ROOT
ATOM      1  C   UNL     1      43.369   4.800  11.037  0.00  0.00    +0.000 C 
ENDROOT
BRANCH   1   2
ATOM      2  N   UNL     1      43.829   4.993   9.658  0.00  0.00    +0.000 N 
ATOM      3  H   UNL     1      44.212   5.923   9.503  0.00  0.00    +0.000 HD
BRANCH   2   4
ATOM      4  C   UNL     1      44.678   4.002   9.129  0.00  0.00    +0.000 A 
ATOM      5  C   UNL     1      44.565   2.646   9.458  0.00  0.00    +0.000 A 
ATOM      6  C   UNL     1      45.386   1.681   8.866  0.00  0.00    +0.000 A 
ATOM      7  C   UNL     1      46.318   2.043   7.895  0.00  0.00    +0.000 A 
ATOM      8  C   UNL     1      46.424   3.387   7.525  0.00  0.00    +0.000 A 
ATOM      9  C   UNL     1      45.597   4.351   8.127  0.00  0.00    +0.000 A 
BRANCH   7  10
ATOM     10  C   UNL     1      47.158   0.971   7.303  0.00  0.00    +0.000 C 
ATOM     11  N   UNL     1      46.875  -0.320   7.660  0.00  0.00    +0.000 N 
ATOM     12  O   UNL     1      48.098   1.220   6.557  0.00  0.00    +0.000 OA
ATOM     13  H   UNL     1      46.294  -0.548   8.456  0.00  0.00    +0.000 HD
ATOM     14  H   UNL     1      47.540  -1.019   7.353  0.00  0.00    +0.000 HD
ENDBRANCH   7  10
ENDBRANCH   2   4
ENDBRANCH   1   2
BRANCH   1  15
ATOM     15  C   UNL     1      42.611   6.029  11.557  0.00  0.00    +0.000 C 
BRANCH  15  20
ATOM     16  C   UNL     1      45.647   8.049  12.716  0.00  0.00    +0.000 A 
ATOM     17  C   UNL     1      45.494   9.211  11.962  0.00  0.00    +0.000 A 
ATOM     18  C   UNL     1      44.380   9.372  11.137  0.00  0.00    +0.000 A 
ATOM     19  C   UNL     1      43.425   8.361  11.039  0.00  0.00    +0.000 A 
ATOM     20  C   UNL     1      43.577   7.174  11.766  0.00  0.00    +0.000 A 
ATOM     21  C   UNL     1      44.691   7.032  12.610  0.00  0.00    +0.000 A 
BRANCH  16  22
ATOM     22  O   UNL     1      46.693   7.786  13.567  0.00  0.00    +0.000 OA
BRANCH  22  24
ATOM     23  C   UNL     1      47.649   5.528  13.642  0.00  0.00    +0.000 C 
ATOM     24  C   UNL     1      47.813   6.961  13.142  0.00  0.00    +0.000 C 
ATOM     25  C   UNL     1      48.377   7.159  11.713  0.00  0.00    +0.000 C 
ATOM     26  O   UNL     1      49.503   7.922  12.204  0.00  0.00    +0.000 OA
ATOM     27  C   UNL     1      49.191   7.534  13.561  0.00  0.00    +0.000 C 
ENDBRANCH  22  24
ENDBRANCH  16  22
ENDBRANCH  15  20
ENDBRANCH   1  15
TORSDOF 7
ENDMDL
MODEL 7
REMARK VINA RESULT:    -6.833      3.226      4.927
REMARK INTER + INTRA:         -10.272
REMARK INTER:                  -9.189
REMARK INTRA:                  -1.082
REMARK UNBOUND:                -0.642
REMARK  Name = 
REMARK  8 active torsions:
REMARK  status: ('A' for Active; 'I' for Inactive)
REMARK    1  A    between atoms: C_1  and  C_2
REMARK    2  A    between atoms: C_2  and  O_3
REMARK    3  A    between atoms: O_3  and  C_4
REMARK    4  A    between atoms: C_8  and  C_9
REMARK    5  A    between atoms: C_9  and  C_10
REMARK    6  A    between atoms: C_10  and  N_11
REMARK    7  A    between atoms: N_11  and  C_12
REMARK    8  A    between atoms: C_15  and  C_16
REMARK                            x       y       z     vdW  Elec       q    Type
REMARK                         _______ _______ _______ _____ _____    ______ ____
ROOT
ATOM      1  C   UNL     1      44.151   3.765  12.353  0.00  0.00    +0.000 C 
ENDROOT
BRANCH   1   2
ATOM      2  N   UNL     1      43.467   3.639  11.063  0.00  0.00    +0.000 N 
ATOM      3  H   UNL     1      42.829   4.412  10.884  0.00  0.00    +0.000 HD
BRANCH   2   4
ATOM      4  C   UNL     1      44.276   3.381   9.939  0.00  0.00    +0.000 A 
ATOM      5  C   UNL     1      44.700   4.384   9.059  0.00  0.00    +0.000 A 
ATOM      6  C   UNL     1      45.553   4.100   7.987  0.00  0.00    +0.000 A 
ATOM      7  C   UNL     1      46.038   2.808   7.791  0.00  0.00    +0.000 A 
ATOM      8  C   UNL     1      45.655   1.798   8.678  0.00  0.00    +0.000 A 
ATOM      9  C   UNL     1      44.795   2.091   9.751  0.00  0.00    +0.000 A 
BRANCH   7  10
ATOM     10  C   UNL     1      46.942   2.572   6.636  0.00  0.00    +0.000 C 
ATOM     11  N   UNL     1      48.267   2.366   6.906  0.00  0.00    +0.000 N 
ATOM     12  O   UNL     1      46.538   2.602   5.479  0.00  0.00    +0.000 OA
ATOM     13  H   UNL     1      48.680   2.589   7.803  0.00  0.00    +0.000 HD
ATOM     14  H   UNL     1      48.884   2.341   6.104  0.00  0.00    +0.000 HD
ENDBRANCH   7  10
ENDBRANCH   2   4
ENDBRANCH   1   2
BRANCH   1  15
ATOM     15  C   UNL     1      43.871   5.122  13.012  0.00  0.00    +0.000 C 
BRANCH  15  20
ATOM     16  C   UNL     1      45.707   8.426  12.415  0.00  0.00    +0.000 A 
ATOM     17  C   UNL     1      46.964   7.964  12.033  0.00  0.00    +0.000 A 
ATOM     18  C   UNL     1      47.199   6.595  11.900  0.00  0.00    +0.000 A 
ATOM     19  C   UNL     1      46.187   5.677  12.175  0.00  0.00    +0.000 A 
ATOM     20  C   UNL     1      44.925   6.121  12.589  0.00  0.00    +0.000 A 
ATOM     21  C   UNL     1      44.693   7.502  12.698  0.00  0.00    +0.000 A 
BRANCH  16  22
ATOM     22  O   UNL     1      45.357   9.746  12.568  0.00  0.00    +0.000 OA
BRANCH  22  24
ATOM     23  C   UNL     1      46.235  11.354  10.937  0.00  0.00    +0.000 C 
ATOM     24  C   UNL     1      45.017  10.568  11.417  0.00  0.00    +0.000 C 
ATOM     25  C   UNL     1      44.078   9.976  10.337  0.00  0.00    +0.000 C 
ATOM     26  O   UNL     1      42.945  10.722  10.836  0.00  0.00    +0.000 OA
ATOM     27  C   UNL     1      43.818  11.516  11.672  0.00  0.00    +0.000 C 
ENDBRANCH  22  24
ENDBRANCH  16  22
ENDBRANCH  15  20
ENDBRANCH   1  15
TORSDOF 7
ENDMDL
MODEL 8
REMARK VINA RESULT:    -6.437      2.740      4.362
REMARK INTER + INTRA:          -9.713
REMARK INTER:                  -8.665
REMARK INTRA:                  -1.048
REMARK UNBOUND:                -0.642
REMARK  Name = 
REMARK  8 active torsions:
REMARK  status: ('A' for Active; 'I' for Inactive)
REMARK    1  A    between atoms: C_1  and  C_2
REMARK    2  A    between atoms: C_2  and  O_3
REMARK    3  A    between atoms: O_3  and  C_4
REMARK    4  A    between atoms: C_8  and  C_9
REMARK    5  A    between atoms: C_9  and  C_10
REMARK    6  A    between atoms: C_10  and  N_11
REMARK    7  A    between atoms: N_11  and  C_12
REMARK    8  A    between atoms: C_15  and  C_16
REMARK                            x       y       z     vdW  Elec       q    Type
REMARK                         _______ _______ _______ _____ _____    ______ ____
ROOT
ATOM      1  C   UNL     1      46.988   8.600  12.523  0.00  0.00    +0.000 C 
ENDROOT
BRANCH   1   2
ATOM      2  N   UNL     1      45.950   7.915  13.298  0.00  0.00    +0.000 N 
ATOM      3  H   UNL     1      45.194   8.539  13.572  0.00  0.00    +0.000 HD
BRANCH   2   4
ATOM      4  C   UNL     1      45.444   6.716  12.760  0.00  0.00    +0.000 A 
ATOM      5  C   UNL     1      44.741   6.660  11.550  0.00  0.00    +0.000 A 
ATOM      6  C   UNL     1      44.306   5.442  11.015  0.00  0.00    +0.000 A 
ATOM      7  C   UNL     1      44.601   4.241  11.658  0.00  0.00    +0.000 A 
ATOM      8  C   UNL     1      45.332   4.270  12.848  0.00  0.00    +0.000 A 
ATOM      9  C   UNL     1      45.763   5.498  13.381  0.00  0.00    +0.000 A 
BRANCH   7  10
ATOM     10  C   UNL     1      44.113   2.983  11.037  0.00  0.00    +0.000 C 
ATOM     11  N   UNL     1      44.890   2.421  10.060  0.00  0.00    +0.000 N 
ATOM     12  O   UNL     1      43.040   2.480  11.347  0.00  0.00    +0.000 OA
ATOM     13  H   UNL     1      45.634   2.928   9.599  0.00  0.00    +0.000 HD
ATOM     14  H   UNL     1      44.477   1.643   9.561  0.00  0.00    +0.000 HD
ENDBRANCH   7  10
ENDBRANCH   2   4
ENDBRANCH   1   2
BRANCH   1  15
ATOM     15  C   UNL     1      48.386   8.059  12.849  0.00  0.00    +0.000 C 
BRANCH  15  20
ATOM     16  C   UNL     1      49.162   6.479  16.246  0.00  0.00    +0.000 A 
ATOM     17  C   UNL     1      49.007   7.577  17.090  0.00  0.00    +0.000 A 
ATOM     18  C   UNL     1      48.586   8.804  16.575  0.00  0.00    +0.000 A 
ATOM     19  C   UNL     1      48.344   8.949  15.211  0.00  0.00    +0.000 A 
ATOM     20  C   UNL     1      48.523   7.865  14.343  0.00  0.00    +0.000 A 
ATOM     21  C   UNL     1      48.925   6.628  14.875  0.00  0.00    +0.000 A 
BRANCH  16  22
ATOM     22  O   UNL     1      49.559   5.224  16.640  0.00  0.00    +0.000 OA
BRANCH  22  24
ATOM     23  C   UNL     1      49.113   4.305  18.870  0.00  0.00    +0.000 C 
ATOM     24  C   UNL     1      48.671   4.366  17.411  0.00  0.00    +0.000 C 
ATOM     25  C   UNL     1      47.150   4.430  17.127  0.00  0.00    +0.000 C 
ATOM     26  O   UNL     1      47.186   3.207  16.357  0.00  0.00    +0.000 OA
ATOM     27  C   UNL     1      48.530   2.940  16.820  0.00  0.00    +0.000 C 
ENDBRANCH  22  24
ENDBRANCH  16  22
ENDBRANCH  15  20
ENDBRANCH   1  15
TORSDOF 7
ENDMDL
MODEL 9
REMARK VINA RESULT:    -5.962      3.683      8.316
REMARK INTER + INTRA:          -9.044
REMARK INTER:                  -8.853
REMARK INTRA:                  -0.191
REMARK UNBOUND:                -0.642
REMARK  Name = 
REMARK  8 active torsions:
REMARK  status: ('A' for Active; 'I' for Inactive)
REMARK    1  A    between atoms: C_1  and  C_2
REMARK    2  A    between atoms: C_2  and  O_3
REMARK    3  A    between atoms: O_3  and  C_4
REMARK    4  A    between atoms: C_8  and  C_9
REMARK    5  A    between atoms: C_9  and  C_10
REMARK    6  A    between atoms: C_10  and  N_11
REMARK    7  A    between atoms: N_11  and  C_12
REMARK    8  A    between atoms: C_15  and  C_16
REMARK                            x       y       z     vdW  Elec       q    Type
REMARK                         _______ _______ _______ _____ _____    ______ ____
ROOT
ATOM      1  C   UNL     1      46.852   4.792  14.888  0.00  0.00    +0.000 C 
ENDROOT
BRANCH   1   2
ATOM      2  N   UNL     1      46.982   4.192  16.219  0.00  0.00    +0.000 N 
ATOM      3  H   UNL     1      46.335   3.419  16.362  0.00  0.00    +0.000 HD
BRANCH   2   4
ATOM      4  C   UNL     1      48.283   3.845  16.634  0.00  0.00    +0.000 A 
ATOM      5  C   UNL     1      49.185   4.773  17.168  0.00  0.00    +0.000 A 
ATOM      6  C   UNL     1      50.448   4.381  17.625  0.00  0.00    +0.000 A 
ATOM      7  C   UNL     1      50.826   3.040  17.599  0.00  0.00    +0.000 A 
ATOM      8  C   UNL     1      49.927   2.091  17.103  0.00  0.00    +0.000 A 
ATOM      9  C   UNL     1      48.662   2.494  16.642  0.00  0.00    +0.000 A 
BRANCH   7  10
ATOM     10  C   UNL     1      52.179   2.689  18.102  0.00  0.00    +0.000 C 
ATOM     11  N   UNL     1      52.490   1.359  18.196  0.00  0.00    +0.000 N 
ATOM     12  O   UNL     1      52.980   3.543  18.462  0.00  0.00    +0.000 OA
ATOM     13  H   UNL     1      51.786   0.633  18.160  0.00  0.00    +0.000 HD
ATOM     14  H   UNL     1      53.361   1.141  18.663  0.00  0.00    +0.000 HD
ENDBRANCH   7  10
ENDBRANCH   2   4
ENDBRANCH   1   2
BRANCH   1  15
ATOM     15  C   UNL     1      46.690   3.723  13.800  0.00  0.00    +0.000 C 
BRANCH  15  20
ATOM     16  C   UNL     1      44.132   3.608  10.957  0.00  0.00    +0.000 A 
ATOM     17  C   UNL     1      43.313   4.682  11.295  0.00  0.00    +0.000 A 
ATOM     18  C   UNL     1      43.623   5.484  12.395  0.00  0.00    +0.000 A 
ATOM     19  C   UNL     1      44.739   5.200  13.180  0.00  0.00    +0.000 A 
ATOM     20  C   UNL     1      45.558   4.106  12.873  0.00  0.00    +0.000 A 
ATOM     21  C   UNL     1      45.249   3.319  11.751  0.00  0.00    +0.000 A 
BRANCH  16  22
ATOM     22  O   UNL     1      43.933   2.760   9.894  0.00  0.00    +0.000 OA
BRANCH  22  24
ATOM     23  C   UNL     1      45.414   1.320   8.571  0.00  0.00    +0.000 C 
ATOM     24  C   UNL     1      44.863   2.729   8.777  0.00  0.00    +0.000 C 
ATOM     25  C   UNL     1      44.527   3.556   7.511  0.00  0.00    +0.000 C 
ATOM     26  O   UNL     1      45.458   4.599   7.879  0.00  0.00    +0.000 OA
ATOM     27  C   UNL     1      46.018   3.755   8.910  0.00  0.00    +0.000 C 
ENDBRANCH  22  24
ENDBRANCH  16  22
ENDBRANCH  15  20
ENDBRANCH   1  15
TORSDOF 7
ENDMDL
