MODEL 1
REMARK VINA RESULT:    -8.181      0.000      0.000
REMARK INTER + INTRA:         -10.216
REMARK INTER:                  -9.855
REMARK INTRA:                  -0.361
REMARK UNBOUND:                -0.361
REMARK  Name = 
REMARK  4 active torsions:
REMARK  status: ('A' for Active; 'I' for Inactive)
REMARK    1  A    between atoms: N_1  and  C_2
REMARK    2  A    between atoms: C_2  and  C_3
REMARK    3  A    between atoms: C_7  and  C_8
REMARK    4  A    between atoms: C_8  and  N_9
REMARK                            x       y       z     vdW  Elec       q    Type
REMARK                         _______ _______ _______ _____ _____    ______ ____
ROOT
ATOM      1  C   UNL     1      44.118   4.186   9.052  0.00  0.00    +0.000 C 
ENDROOT
BRANCH   1   2
ATOM      2  N   UNL     1      44.185   4.196  10.510  0.00  0.00    +0.000 N 
ATOM      3  C   UNL     1      43.392   3.420  11.321  0.00  0.00    +0.000 A 
ATOM      4  C   UNL     1      43.767   3.642  12.625  0.00  0.00    +0.000 A 
ATOM      5  C   UNL     1      44.837   4.576  12.615  0.00  0.00    +0.000 A 
ATOM      6  C   UNL     1      45.623   5.160  13.630  0.00  0.00    +0.000 A 
ATOM      7  C   UNL     1      46.634   6.063  13.284  0.00  0.00    +0.000 A 
ATOM      8  C   UNL     1      46.858   6.388  11.951  0.00  0.00    +0.000 A 
ATOM      9 CL   UNL     1      48.110   7.503  11.550  0.00  0.00    +0.000 Cl
ATOM     10  C   UNL     1      46.094   5.825  10.924  0.00  0.00    +0.000 A 
ATOM     11  C   UNL     1      45.084   4.913  11.279  0.00  0.00    +0.000 A 
ENDBRANCH   1   2
BRANCH   1  16
ATOM     12  C   UNL     1      46.706   2.549   6.776  0.00  0.00    +0.000 A 
ATOM     13  C   UNL     1      46.757   1.307   7.396  0.00  0.00    +0.000 A 
ATOM     14  N   UNL     1      46.037   0.973   8.492  0.00  0.00    +0.000 NA
ATOM     15  C   UNL     1      45.211   1.920   8.987  0.00  0.00    +0.000 A 
ATOM     16  C   UNL     1      45.080   3.200   8.459  0.00  0.00    +0.000 A 
ATOM     17  C   UNL     1      45.856   3.509   7.336  0.00  0.00    +0.000 A 
BRANCH  12  18
ATOM     18  C   UNL     1      47.496   2.834   5.532  0.00  0.00    +0.000 C 
BRANCH  18  19
ATOM     19  N   UNL     1      48.533   1.835   5.304  0.00  0.00    +0.000 NA
ATOM     20  H   UNL     1      49.031   2.062   4.445  0.00  0.00    +0.000 HD
ATOM     21  H   UNL     1      48.095   0.928   5.147  0.00  0.00    +0.000 HD
ENDBRANCH  18  19
ENDBRANCH  12  18
ENDBRANCH   1  16
TORSDOF 4
ENDMDL
MODEL 2
REMARK VINA RESULT:    -7.403      1.750      2.342
REMARK INTER + INTRA:          -9.278
REMARK INTER:                  -8.826
REMARK INTRA:                  -0.453
REMARK UNBOUND:                -0.361
REMARK  Name = 
REMARK  4 active torsions:
REMARK  status: ('A' for Active; 'I' for Inactive)
REMARK    1  A    between atoms: N_1  and  C_2
REMARK    2  A    between atoms: C_2  and  C_3
REMARK    3  A    between atoms: C_7  and  C_8
REMARK    4  A    between atoms: C_8  and  N_9
REMARK                            x       y       z     vdW  Elec       q    Type
REMARK                         _______ _______ _______ _____ _____    ______ ____
ROOT
ATOM      1  C   UNL     1      44.233   3.398  10.350  0.00  0.00    +0.000 C 
ENDROOT
BRANCH   1   2
ATOM      2  N   UNL     1      44.958   3.946  11.492  0.00  0.00    +0.000 N 
ATOM      3  C   UNL     1      45.674   3.184  12.385  0.00  0.00    +0.000 A 
ATOM      4  C   UNL     1      46.271   4.031  13.288  0.00  0.00    +0.000 A 
ATOM      5  C   UNL     1      45.922   5.361  12.930  0.00  0.00    +0.000 A 
ATOM      6  C   UNL     1      46.244   6.625  13.467  0.00  0.00    +0.000 A 
ATOM      7  C   UNL     1      45.735   7.780  12.862  0.00  0.00    +0.000 A 
ATOM      8  C   UNL     1      44.913   7.682  11.745  0.00  0.00    +0.000 A 
ATOM      9 CL   UNL     1      44.298   9.119  11.018  0.00  0.00    +0.000 Cl
ATOM     10  C   UNL     1      44.576   6.442  11.192  0.00  0.00    +0.000 A 
ATOM     11  C   UNL     1      45.098   5.286  11.802  0.00  0.00    +0.000 A 
ENDBRANCH   1   2
BRANCH   1  16
ATOM     12  C   UNL     1      46.500   1.975   7.631  0.00  0.00    +0.000 A 
ATOM     13  C   UNL     1      46.773   3.161   6.961  0.00  0.00    +0.000 A 
ATOM     14  N   UNL     1      46.269   4.366   7.311  0.00  0.00    +0.000 NA
ATOM     15  C   UNL     1      45.463   4.396   8.395  0.00  0.00    +0.000 A 
ATOM     16  C   UNL     1      45.112   3.275   9.141  0.00  0.00    +0.000 A 
ATOM     17  C   UNL     1      45.641   2.046   8.734  0.00  0.00    +0.000 A 
BRANCH  12  18
ATOM     18  C   UNL     1      47.134   0.680   7.216  0.00  0.00    +0.000 C 
BRANCH  18  19
ATOM     19  N   UNL     1      46.633  -0.447   7.995  0.00  0.00    +0.000 NA
ATOM     20  H   UNL     1      45.758  -0.771   7.586  0.00  0.00    +0.000 HD
ATOM     21  H   UNL     1      46.406  -0.127   8.936  0.00  0.00    +0.000 HD
ENDBRANCH  18  19
ENDBRANCH  12  18
ENDBRANCH   1  16
TORSDOF 4
ENDMDL
MODEL 3
REMARK VINA RESULT:    -7.037      1.612      2.142
REMARK INTER + INTRA:          -8.837
REMARK INTER:                  -8.624
REMARK INTRA:                  -0.213
REMARK UNBOUND:                -0.361
REMARK  Name = 
REMARK  4 active torsions:
REMARK  status: ('A' for Active; 'I' for Inactive)
REMARK    1  A    between atoms: N_1  and  C_2
REMARK    2  A    between atoms: C_2  and  C_3
REMARK    3  A    between atoms: C_7  and  C_8
REMARK    4  A    between atoms: C_8  and  N_9
REMARK                            x       y       z     vdW  Elec       q    Type
REMARK                         _______ _______ _______ _____ _____    ______ ____
ROOT
ATOM      1  C   UNL     1      44.585   3.149  10.662  0.00  0.00    +0.000 C 
ENDROOT
BRANCH   1   2
ATOM      2  N   UNL     1      44.229   4.507  11.065  0.00  0.00    +0.000 N 
ATOM      3  C   UNL     1      42.960   5.028  10.975  0.00  0.00    +0.000 A 
ATOM      4  C   UNL     1      42.982   6.300  11.495  0.00  0.00    +0.000 A 
ATOM      5  C   UNL     1      44.307   6.566  11.933  0.00  0.00    +0.000 A 
ATOM      6  C   UNL     1      44.919   7.677  12.550  0.00  0.00    +0.000 A 
ATOM      7  C   UNL     1      46.280   7.623  12.873  0.00  0.00    +0.000 A 
ATOM      8  C   UNL     1      47.024   6.486  12.580  0.00  0.00    +0.000 A 
ATOM      9 CL   UNL     1      48.698   6.443  12.987  0.00  0.00    +0.000 Cl
ATOM     10  C   UNL     1      46.445   5.370  11.968  0.00  0.00    +0.000 A 
ATOM     11  C   UNL     1      45.075   5.430  11.653  0.00  0.00    +0.000 A 
ENDBRANCH   1   2
BRANCH   1  16
ATOM     12  C   UNL     1      46.505   1.976   7.582  0.00  0.00    +0.000 A 
ATOM     13  C   UNL     1      46.606   3.200   6.933  0.00  0.00    +0.000 A 
ATOM     14  N   UNL     1      46.089   4.357   7.407  0.00  0.00    +0.000 NA
ATOM     15  C   UNL     1      45.452   4.295   8.596  0.00  0.00    +0.000 A 
ATOM     16  C   UNL     1      45.281   3.128   9.334  0.00  0.00    +0.000 A 
ATOM     17  C   UNL     1      45.816   1.951   8.799  0.00  0.00    +0.000 A 
BRANCH  12  18
ATOM     18  C   UNL     1      47.147   0.740   7.021  0.00  0.00    +0.000 C 
BRANCH  18  19
ATOM     19  N   UNL     1      46.786  -0.453   7.777  0.00  0.00    +0.000 NA
ATOM     20  H   UNL     1      47.502  -0.632   8.479  0.00  0.00    +0.000 HD
ATOM     21  H   UNL     1      46.791  -1.258   7.153  0.00  0.00    +0.000 HD
ENDBRANCH  18  19
ENDBRANCH  12  18
ENDBRANCH   1  16
TORSDOF 4
ENDMDL
MODEL 4
REMARK VINA RESULT:    -6.694      2.868      5.974
REMARK INTER + INTRA:          -8.424
REMARK INTER:                  -8.048
REMARK INTRA:                  -0.376
REMARK UNBOUND:                -0.361
REMARK  Name = 
REMARK  4 active torsions:
REMARK  status: ('A' for Active; 'I' for Inactive)
REMARK    1  A    between atoms: N_1  and  C_2
REMARK    2  A    between atoms: C_2  and  C_3
REMARK    3  A    between atoms: C_7  and  C_8
REMARK    4  A    between atoms: C_8  and  N_9
REMARK                            x       y       z     vdW  Elec       q    Type
REMARK                         _______ _______ _______ _____ _____    ______ ____
ROOT
ATOM      1  C   UNL     1      44.607   6.280  11.435  0.00  0.00    +0.000 C 
ENDROOT
BRANCH   1   2
ATOM      2  N   UNL     1      44.305   4.877  11.165  0.00  0.00    +0.000 N 
ATOM      3  C   UNL     1      43.473   4.108  11.942  0.00  0.00    +0.000 A 
ATOM      4  C   UNL     1      43.373   2.866  11.361  0.00  0.00    +0.000 A 
ATOM      5  C   UNL     1      44.160   2.877  10.179  0.00  0.00    +0.000 A 
ATOM      6  C   UNL     1      44.425   1.914   9.183  0.00  0.00    +0.000 A 
ATOM      7  C   UNL     1      45.260   2.245   8.109  0.00  0.00    +0.000 A 
ATOM      8  C   UNL     1      45.828   3.511   8.028  0.00  0.00    +0.000 A 
ATOM      9 CL   UNL     1      46.851   3.896   6.696  0.00  0.00    +0.000 Cl
ATOM     10  C   UNL     1      45.583   4.485   9.001  0.00  0.00    +0.000 A 
ATOM     11  C   UNL     1      44.738   4.146  10.074  0.00  0.00    +0.000 A 
ENDBRANCH   1   2
BRANCH   1  16
ATOM     12  C   UNL     1      47.214   5.650  14.149  0.00  0.00    +0.000 A 
ATOM     13  C   UNL     1      47.944   6.822  13.998  0.00  0.00    +0.000 A 
ATOM     14  N   UNL     1      47.667   7.779  13.083  0.00  0.00    +0.000 NA
ATOM     15  C   UNL     1      46.597   7.565  12.286  0.00  0.00    +0.000 A 
ATOM     16  C   UNL     1      45.796   6.428  12.338  0.00  0.00    +0.000 A 
ATOM     17  C   UNL     1      46.129   5.456  13.287  0.00  0.00    +0.000 A 
BRANCH  12  18
ATOM     18  C   UNL     1      47.549   4.654  15.221  0.00  0.00    +0.000 C 
BRANCH  18  19
ATOM     19  N   UNL     1      47.516   3.284  14.722  0.00  0.00    +0.000 NA
ATOM     20  H   UNL     1      47.987   3.247  13.820  0.00  0.00    +0.000 HD
ATOM     21  H   UNL     1      46.548   3.016  14.549  0.00  0.00    +0.000 HD
ENDBRANCH  18  19
ENDBRANCH  12  18
ENDBRANCH   1  16
TORSDOF 4
ENDMDL
MODEL 5
REMARK VINA RESULT:    -6.686      2.210      2.644
REMARK INTER + INTRA:          -8.415
REMARK INTER:                  -7.864
REMARK INTRA:                  -0.550
REMARK UNBOUND:                -0.361
REMARK  Name = 
REMARK  4 active torsions:
REMARK  status: ('A' for Active; 'I' for Inactive)
REMARK    1  A    between atoms: N_1  and  C_2
REMARK    2  A    between atoms: C_2  and  C_3
REMARK    3  A    between atoms: C_7  and  C_8
REMARK    4  A    between atoms: C_8  and  N_9
REMARK                            x       y       z     vdW  Elec       q    Type
REMARK                         _______ _______ _______ _____ _____    ______ ____
ROOT
ATOM      1  C   UNL     1      43.650   4.939  10.642  0.00  0.00    +0.000 C 
ENDROOT
BRANCH   1   2
ATOM      2  N   UNL     1      44.512   5.578  11.632  0.00  0.00    +0.000 N 
ATOM      3  C   UNL     1      45.283   4.890  12.537  0.00  0.00    +0.000 A 
ATOM      4  C   UNL     1      46.005   5.805  13.267  0.00  0.00    +0.000 A 
ATOM      5  C   UNL     1      45.677   7.099  12.784  0.00  0.00    +0.000 A 
ATOM      6  C   UNL     1      46.105   8.399  13.127  0.00  0.00    +0.000 A 
ATOM      7  C   UNL     1      45.585   9.500  12.438  0.00  0.00    +0.000 A 
ATOM      8  C   UNL     1      44.648   9.315  11.427  0.00  0.00    +0.000 A 
ATOM      9 CL   UNL     1      44.023  10.687  10.592  0.00  0.00    +0.000 Cl
ATOM     10  C   UNL     1      44.205   8.039  11.066  0.00  0.00    +0.000 A 
ATOM     11  C   UNL     1      44.738   6.937  11.759  0.00  0.00    +0.000 A 
ENDBRANCH   1   2
BRANCH   1  16
ATOM     12  C   UNL     1      45.962   3.460   7.992  0.00  0.00    +0.000 A 
ATOM     13  C   UNL     1      45.696   2.116   8.225  0.00  0.00    +0.000 A 
ATOM     14  N   UNL     1      44.848   1.662   9.176  0.00  0.00    +0.000 NA
ATOM     15  C   UNL     1      44.219   2.595   9.924  0.00  0.00    +0.000 A 
ATOM     16  C   UNL     1      44.410   3.967   9.789  0.00  0.00    +0.000 A 
ATOM     17  C   UNL     1      45.309   4.392   8.805  0.00  0.00    +0.000 A 
BRANCH  12  18
ATOM     18  C   UNL     1      46.878   3.893   6.885  0.00  0.00    +0.000 C 
BRANCH  18  19
ATOM     19  N   UNL     1      47.959   2.940   6.667  0.00  0.00    +0.000 NA
ATOM     20  H   UNL     1      47.563   2.012   6.532  0.00  0.00    +0.000 HD
ATOM     21  H   UNL     1      48.531   2.886   7.509  0.00  0.00    +0.000 HD
ENDBRANCH  18  19
ENDBRANCH  12  18
ENDBRANCH   1  16
TORSDOF 4
ENDMDL
MODEL 6
REMARK VINA RESULT:    -6.628      2.940      5.529
REMARK INTER + INTRA:          -8.345
REMARK INTER:                  -7.849
REMARK INTRA:                  -0.496
REMARK UNBOUND:                -0.361
REMARK  Name = 
REMARK  4 active torsions:
REMARK  status: ('A' for Active; 'I' for Inactive)
REMARK    1  A    between atoms: N_1  and  C_2
REMARK    2  A    between atoms: C_2  and  C_3
REMARK    3  A    between atoms: C_7  and  C_8
REMARK    4  A    between atoms: C_8  and  N_9
REMARK                            x       y       z     vdW  Elec       q    Type
REMARK                         _______ _______ _______ _____ _____    ______ ____
ROOT
ATOM      1  C   UNL     1      44.886   6.524  11.660  0.00  0.00    +0.000 C 
ENDROOT
BRANCH   1   2
ATOM      2  N   UNL     1      44.475   5.145  11.414  0.00  0.00    +0.000 N 
ATOM      3  C   UNL     1      43.629   4.437  12.234  0.00  0.00    +0.000 A 
ATOM      4  C   UNL     1      43.416   3.204  11.666  0.00  0.00    +0.000 A 
ATOM      5  C   UNL     1      44.143   3.157  10.447  0.00  0.00    +0.000 A 
ATOM      6  C   UNL     1      44.292   2.175   9.445  0.00  0.00    +0.000 A 
ATOM      7  C   UNL     1      45.095   2.445   8.331  0.00  0.00    +0.000 A 
ATOM      8  C   UNL     1      45.744   3.669   8.215  0.00  0.00    +0.000 A 
ATOM      9 CL   UNL     1      46.726   3.978   6.833  0.00  0.00    +0.000 Cl
ATOM     10  C   UNL     1      45.616   4.660   9.193  0.00  0.00    +0.000 A 
ATOM     11  C   UNL     1      44.802   4.383  10.307  0.00  0.00    +0.000 A 
ENDBRANCH   1   2
BRANCH   1  16
ATOM     12  C   UNL     1      48.560   7.399  12.206  0.00  0.00    +0.000 A 
ATOM     13  C   UNL     1      48.788   6.605  13.323  0.00  0.00    +0.000 A 
ATOM     14  N   UNL     1      47.847   5.833  13.913  0.00  0.00    +0.000 NA
ATOM     15  C   UNL     1      46.618   5.838  13.353  0.00  0.00    +0.000 A 
ATOM     16  C   UNL     1      46.268   6.596  12.240  0.00  0.00    +0.000 A 
ATOM     17  C   UNL     1      47.267   7.394  11.671  0.00  0.00    +0.000 A 
BRANCH  12  18
ATOM     18  C   UNL     1      49.665   8.192  11.573  0.00  0.00    +0.000 C 
BRANCH  18  19
ATOM     19  N   UNL     1      50.865   7.390  11.368  0.00  0.00    +0.000 NA
ATOM     20  H   UNL     1      51.262   7.147  12.274  0.00  0.00    +0.000 HD
ATOM     21  H   UNL     1      51.567   7.955  10.892  0.00  0.00    +0.000 HD
ENDBRANCH  18  19
ENDBRANCH  12  18
ENDBRANCH   1  16
TORSDOF 4
ENDMDL
MODEL 7
REMARK VINA RESULT:    -6.579      2.165      3.314
REMARK INTER + INTRA:          -8.286
REMARK INTER:                  -7.790
REMARK INTRA:                  -0.496
REMARK UNBOUND:                -0.361
REMARK  Name = 
REMARK  4 active torsions:
REMARK  status: ('A' for Active; 'I' for Inactive)
REMARK    1  A    between atoms: N_1  and  C_2
REMARK    2  A    between atoms: C_2  and  C_3
REMARK    3  A    between atoms: C_7  and  C_8
REMARK    4  A    between atoms: C_8  and  N_9
REMARK                            x       y       z     vdW  Elec       q    Type
REMARK                         _______ _______ _______ _____ _____    ______ ____
ROOT
ATOM      1  C   UNL     1      43.422   5.807  11.411  0.00  0.00    +0.000 C 
ENDROOT
BRANCH   1   2
ATOM      2  N   UNL     1      44.556   6.648  11.782  0.00  0.00    +0.000 N 
ATOM      3  C   UNL     1      44.710   7.953  11.380  0.00  0.00    +0.000 A 
ATOM      4  C   UNL     1      45.852   8.448  11.962  0.00  0.00    +0.000 A 
ATOM      5  C   UNL     1      46.413   7.417  12.762  0.00  0.00    +0.000 A 
ATOM      6  C   UNL     1      47.552   7.345  13.590  0.00  0.00    +0.000 A 
ATOM      7  C   UNL     1      47.835   6.154  14.270  0.00  0.00    +0.000 A 
ATOM      8  C   UNL     1      47.003   5.050  14.125  0.00  0.00    +0.000 A 
ATOM      9 CL   UNL     1      47.372   3.595  14.972  0.00  0.00    +0.000 Cl
ATOM     10  C   UNL     1      45.868   5.093  13.310  0.00  0.00    +0.000 A 
ATOM     11  C   UNL     1      45.587   6.295  12.635  0.00  0.00    +0.000 A 
ENDBRANCH   1   2
BRANCH   1  16
ATOM     12  C   UNL     1      44.956   3.497   8.791  0.00  0.00    +0.000 A 
ATOM     13  C   UNL     1      44.548   2.285   9.333  0.00  0.00    +0.000 A 
ATOM     14  N   UNL     1      43.837   2.163  10.477  0.00  0.00    +0.000 NA
ATOM     15  C   UNL     1      43.502   3.310  11.108  0.00  0.00    +0.000 A 
ATOM     16  C   UNL     1      43.859   4.580  10.667  0.00  0.00    +0.000 A 
ATOM     17  C   UNL     1      44.609   4.659   9.488  0.00  0.00    +0.000 A 
BRANCH  12  18
ATOM     18  C   UNL     1      45.700   3.560   7.489  0.00  0.00    +0.000 C 
BRANCH  18  19
ATOM     19  N   UNL     1      46.718   4.603   7.492  0.00  0.00    +0.000 NA
ATOM     20  H   UNL     1      47.261   4.541   6.632  0.00  0.00    +0.000 HD
ATOM     21  H   UNL     1      47.372   4.428   8.254  0.00  0.00    +0.000 HD
ENDBRANCH  18  19
ENDBRANCH  12  18
ENDBRANCH   1  16
TORSDOF 4
ENDMDL
MODEL 8
REMARK VINA RESULT:    -6.350      1.567      2.426
REMARK INTER + INTRA:          -8.010
REMARK INTER:                  -7.564
REMARK INTRA:                  -0.446
REMARK UNBOUND:                -0.361
REMARK  Name = 
REMARK  4 active torsions:
REMARK  status: ('A' for Active; 'I' for Inactive)
REMARK    1  A    between atoms: N_1  and  C_2
REMARK    2  A    between atoms: C_2  and  C_3
REMARK    3  A    between atoms: C_7  and  C_8
REMARK    4  A    between atoms: C_8  and  N_9
REMARK                            x       y       z     vdW  Elec       q    Type
REMARK                         _______ _______ _______ _____ _____    ______ ____
ROOT
ATOM      1  C   UNL     1      44.591   5.624  11.112  0.00  0.00    +0.000 C 
ENDROOT
BRANCH   1   2
ATOM      2  N   UNL     1      45.489   5.519  12.258  0.00  0.00    +0.000 N 
ATOM      3  C   UNL     1      45.362   4.576  13.250  0.00  0.00    +0.000 A 
ATOM      4  C   UNL     1      46.408   4.734  14.127  0.00  0.00    +0.000 A 
ATOM      5  C   UNL     1      47.215   5.802  13.650  0.00  0.00    +0.000 A 
ATOM      6  C   UNL     1      48.406   6.398  14.115  0.00  0.00    +0.000 A 
ATOM      7  C   UNL     1      48.973   7.456  13.395  0.00  0.00    +0.000 A 
ATOM      8  C   UNL     1      48.363   7.920  12.235  0.00  0.00    +0.000 A 
ATOM      9 CL   UNL     1      49.080   9.224  11.366  0.00  0.00    +0.000 Cl
ATOM     10  C   UNL     1      47.181   7.349  11.752  0.00  0.00    +0.000 A 
ATOM     11  C   UNL     1      46.622   6.282  12.478  0.00  0.00    +0.000 A 
ENDBRANCH   1   2
BRANCH   1  16
ATOM     12  C   UNL     1      45.709   3.523   8.130  0.00  0.00    +0.000 A 
ATOM     13  C   UNL     1      44.989   2.371   8.419  0.00  0.00    +0.000 A 
ATOM     14  N   UNL     1      44.194   2.222   9.502  0.00  0.00    +0.000 NA
ATOM     15  C   UNL     1      44.097   3.282  10.334  0.00  0.00    +0.000 A 
ATOM     16  C   UNL     1      44.775   4.484  10.155  0.00  0.00    +0.000 A 
ATOM     17  C   UNL     1      45.601   4.589   9.030  0.00  0.00    +0.000 A 
BRANCH  12  18
ATOM     18  C   UNL     1      46.534   3.636   6.881  0.00  0.00    +0.000 C 
BRANCH  18  19
ATOM     19  N   UNL     1      47.183   2.376   6.540  0.00  0.00    +0.000 NA
ATOM     20  H   UNL     1      47.605   1.981   7.378  0.00  0.00    +0.000 HD
ATOM     21  H   UNL     1      47.950   2.559   5.894  0.00  0.00    +0.000 HD
ENDBRANCH  18  19
ENDBRANCH  12  18
ENDBRANCH   1  16
TORSDOF 4
ENDMDL
MODEL 9
REMARK VINA RESULT:    -6.336      2.415      3.480
REMARK INTER + INTRA:          -7.994
REMARK INTER:                  -7.572
REMARK INTRA:                  -0.422
REMARK UNBOUND:                -0.361
REMARK  Name = 
REMARK  4 active torsions:
REMARK  status: ('A' for Active; 'I' for Inactive)
REMARK    1  A    between atoms: N_1  and  C_2
REMARK    2  A    between atoms: C_2  and  C_3
REMARK    3  A    between atoms: C_7  and  C_8
REMARK    4  A    between atoms: C_8  and  N_9
REMARK                            x       y       z     vdW  Elec       q    Type
REMARK                         _______ _______ _______ _____ _____    ______ ____
ROOT
ATOM      1  C   UNL     1      44.028   5.780  11.462  0.00  0.00    +0.000 C 
ENDROOT
BRANCH   1   2
ATOM      2  N   UNL     1      45.282   6.321  11.979  0.00  0.00    +0.000 N 
ATOM      3  C   UNL     1      46.318   5.548  12.445  0.00  0.00    +0.000 A 
ATOM      4  C   UNL     1      47.353   6.383  12.792  0.00  0.00    +0.000 A 
ATOM      5  C   UNL     1      46.944   7.715  12.516  0.00  0.00    +0.000 A 
ATOM      6  C   UNL     1      47.576   8.970  12.650  0.00  0.00    +0.000 A 
ATOM      7  C   UNL     1      46.890  10.130  12.273  0.00  0.00    +0.000 A 
ATOM      8  C   UNL     1      45.595  10.047  11.775  0.00  0.00    +0.000 A 
ATOM      9 CL   UNL     1      44.771  11.490  11.316  0.00  0.00    +0.000 Cl
ATOM     10  C   UNL     1      44.944   8.818  11.633  0.00  0.00    +0.000 A 
ATOM     11  C   UNL     1      45.642   7.656  12.008  0.00  0.00    +0.000 A 
ENDBRANCH   1   2
BRANCH   1  16
ATOM     12  C   UNL     1      45.090   3.438   8.643  0.00  0.00    +0.000 A 
ATOM     13  C   UNL     1      44.549   2.262   9.149  0.00  0.00    +0.000 A 
ATOM     14  N   UNL     1      43.892   2.172  10.328  0.00  0.00    +0.000 NA
ATOM     15  C   UNL     1      43.750   3.316  11.033  0.00  0.00    +0.000 A 
ATOM     16  C   UNL     1      44.253   4.550  10.634  0.00  0.00    +0.000 A 
ATOM     17  C   UNL     1      44.942   4.595   9.417  0.00  0.00    +0.000 A 
BRANCH  12  18
ATOM     18  C   UNL     1      45.764   3.474   7.303  0.00  0.00    +0.000 C 
BRANCH  18  19
ATOM     19  N   UNL     1      46.907   4.379   7.292  0.00  0.00    +0.000 NA
ATOM     20  H   UNL     1      47.764   3.832   7.225  0.00  0.00    +0.000 HD
ATOM     21  H   UNL     1      46.952   4.870   8.184  0.00  0.00    +0.000 HD
ENDBRANCH  18  19
ENDBRANCH  12  18
ENDBRANCH   1  16
TORSDOF 4
ENDMDL
