MODEL 1
REMARK VINA RESULT:    -8.572      0.000      0.000
REMARK INTER + INTRA:         -11.067
REMARK INTER:                 -10.576
REMARK INTRA:                  -0.490
REMARK UNBOUND:                -0.490
REMARK  Name = 
REMARK  4 active torsions:
REMARK  status: ('A' for Active; 'I' for Inactive)
REMARK    1  A    between atoms: C_2  and  C_4
REMARK    2  A    between atoms: N_8  and  C_9
REMARK    3  A    between atoms: C_9  and  C_10
REMARK    4  A    between atoms: C_14  and  C_15
REMARK                            x       y       z     vdW  Elec       q    Type
REMARK                         _______ _______ _______ _____ _____    ______ ____
ROOT
ATOM      1  C   UNL     1      43.570   3.786  11.097  0.00  0.00    +0.000 C 
ENDROOT
BRANCH   1   6
ATOM      2  C   UNL     1      46.694   2.509   7.202  0.00  0.00    +0.000 A 
ATOM      3  C   UNL     1      46.298   3.753   7.679  0.00  0.00    +0.000 A 
ATOM      4  C   UNL     1      45.456   3.819   8.787  0.00  0.00    +0.000 A 
ATOM      5  C   UNL     1      45.025   2.648   9.407  0.00  0.00    +0.000 A 
ATOM      6  N   UNL     1      44.177   2.629  10.475  0.00  0.00    +0.000 N 
ATOM      7  N   UNL     1      45.406   1.437   8.953  0.00  0.00    +0.000 NA
ATOM      8  C   UNL     1      46.212   1.386   7.859  0.00  0.00    +0.000 A 
ATOM      9  H   UNL     1      44.032   1.706  10.868  0.00  0.00    +0.000 HD
BRANCH   2  11
ATOM     10  N   UNL     1      47.463   3.294   5.041  0.00  0.00    +0.000 N 
ATOM     11  C   UNL     1      47.573   2.352   6.029  0.00  0.00    +0.000 C 
ATOM     12  O   UNL     1      48.386   1.441   5.950  0.00  0.00    +0.000 OA
ATOM     13  H   UNL     1      48.132   3.238   4.284  0.00  0.00    +0.000 HD
ATOM     14  H   UNL     1      46.989   4.176   5.182  0.00  0.00    +0.000 HD
ENDBRANCH   2  11
ENDBRANCH   1   6
BRANCH   1  15
ATOM     15  C   UNL     1      44.569   4.612  11.877  0.00  0.00    +0.000 A 
ATOM     16  C   UNL     1      45.458   3.993  12.753  0.00  0.00    +0.000 A 
ATOM     17  C   UNL     1      46.344   4.780  13.474  0.00  0.00    +0.000 A 
ATOM     18  C   UNL     1      46.323   6.160  13.302  0.00  0.00    +0.000 A 
ATOM     19  C   UNL     1      45.407   6.719  12.415  0.00  0.00    +0.000 A 
ATOM     20  N   UNL     1      44.533   5.961  11.708  0.00  0.00    +0.000 NA
BRANCH  19  21
ATOM     21  C   UNL     1      45.345   8.178  12.191  0.00  0.00    +0.000 C 
ATOM     22  C   UNL     1      44.374   8.740  11.444  0.00  0.00    +0.000 C 
ATOM     23  C   UNL     1      44.267  10.216  11.196  0.00  0.00    +0.000 C 
ATOM     24  N   UNL     1      45.166  11.036  12.012  0.00  0.00    +0.000 NA
ATOM     25  C   UNL     1      46.492  10.417  12.102  0.00  0.00    +0.000 C 
ATOM     26  C   UNL     1      46.424   9.045  12.788  0.00  0.00    +0.000 C 
ATOM     27  H   UNL     1      44.770  11.101  12.949  0.00  0.00    +0.000 HD
ENDBRANCH  19  21
ENDBRANCH   1  15
TORSDOF 4
ENDMDL
MODEL 2
REMARK VINA RESULT:    -8.320      1.959      3.627
REMARK INTER + INTRA:         -10.756
REMARK INTER:                 -10.181
REMARK INTRA:                  -0.575
REMARK UNBOUND:                -0.490
REMARK  Name = 
REMARK  4 active torsions:
REMARK  status: ('A' for Active; 'I' for Inactive)
REMARK    1  A    between atoms: C_2  and  C_4
REMARK    2  A    between atoms: N_8  and  C_9
REMARK    3  A    between atoms: C_9  and  C_10
REMARK    4  A    between atoms: C_14  and  C_15
REMARK                            x       y       z     vdW  Elec       q    Type
REMARK                         _______ _______ _______ _____ _____    ______ ____
ROOT
ATOM      1  C   UNL     1      43.518   4.911  11.058  0.00  0.00    +0.000 C 
ENDROOT
BRANCH   1   6
ATOM      2  C   UNL     1      46.559   2.772   7.488  0.00  0.00    +0.000 A 
ATOM      3  C   UNL     1      46.216   4.100   7.711  0.00  0.00    +0.000 A 
ATOM      4  C   UNL     1      45.385   4.416   8.785  0.00  0.00    +0.000 A 
ATOM      5  C   UNL     1      44.914   3.407   9.623  0.00  0.00    +0.000 A 
ATOM      6  N   UNL     1      44.075   3.632  10.675  0.00  0.00    +0.000 N 
ATOM      7  N   UNL     1      45.244   2.116   9.416  0.00  0.00    +0.000 NA
ATOM      8  C   UNL     1      46.039   1.820   8.353  0.00  0.00    +0.000 A 
ATOM      9  H   UNL     1      43.897   2.810  11.241  0.00  0.00    +0.000 HD
BRANCH   2  11
ATOM     10  N   UNL     1      47.261   3.016   5.181  0.00  0.00    +0.000 N 
ATOM     11  C   UNL     1      47.422   2.353   6.368  0.00  0.00    +0.000 C 
ATOM     12  O   UNL     1      48.264   1.475   6.497  0.00  0.00    +0.000 OA
ATOM     13  H   UNL     1      47.918   2.792   4.444  0.00  0.00    +0.000 HD
ATOM     14  H   UNL     1      46.760   3.891   5.110  0.00  0.00    +0.000 HD
ENDBRANCH   2  11
ENDBRANCH   1   6
BRANCH   1  15
ATOM     15  C   UNL     1      44.547   5.821  11.693  0.00  0.00    +0.000 A 
ATOM     16  C   UNL     1      44.710   7.124  11.229  0.00  0.00    +0.000 A 
ATOM     17  C   UNL     1      45.681   7.925  11.814  0.00  0.00    +0.000 A 
ATOM     18  C   UNL     1      46.459   7.408  12.844  0.00  0.00    +0.000 A 
ATOM     19  C   UNL     1      46.250   6.096  13.259  0.00  0.00    +0.000 A 
ATOM     20  N   UNL     1      45.308   5.302  12.693  0.00  0.00    +0.000 NA
BRANCH  19  21
ATOM     21  C   UNL     1      47.045   5.499  14.352  0.00  0.00    +0.000 C 
ATOM     22  C   UNL     1      46.749   4.288  14.864  0.00  0.00    +0.000 C 
ATOM     23  C   UNL     1      47.532   3.639  15.968  0.00  0.00    +0.000 C 
ATOM     24  N   UNL     1      48.788   4.317  16.301  0.00  0.00    +0.000 NA
ATOM     25  C   UNL     1      48.604   5.771  16.309  0.00  0.00    +0.000 C 
ATOM     26  C   UNL     1      48.193   6.292  14.925  0.00  0.00    +0.000 C 
ATOM     27  H   UNL     1      49.474   4.077  15.587  0.00  0.00    +0.000 HD
ENDBRANCH  19  21
ENDBRANCH   1  15
TORSDOF 4
ENDMDL
MODEL 3
REMARK VINA RESULT:    -7.787      2.403      3.031
REMARK INTER + INTRA:         -10.098
REMARK INTER:                  -9.469
REMARK INTRA:                  -0.629
REMARK UNBOUND:                -0.490
REMARK  Name = 
REMARK  4 active torsions:
REMARK  status: ('A' for Active; 'I' for Inactive)
REMARK    1  A    between atoms: C_2  and  C_4
REMARK    2  A    between atoms: N_8  and  C_9
REMARK    3  A    between atoms: C_9  and  C_10
REMARK    4  A    between atoms: C_14  and  C_15
REMARK                            x       y       z     vdW  Elec       q    Type
REMARK                         _______ _______ _______ _____ _____    ______ ____
ROOT
ATOM      1  C   UNL     1      44.315   5.337  11.096  0.00  0.00    +0.000 C 
ENDROOT
BRANCH   1   6
ATOM      2  C   UNL     1      46.582   2.376   7.538  0.00  0.00    +0.000 A 
ATOM      3  C   UNL     1      46.018   2.050   8.765  0.00  0.00    +0.000 A 
ATOM      4  C   UNL     1      45.432   3.056   9.532  0.00  0.00    +0.000 A 
ATOM      5  C   UNL     1      45.411   4.368   9.064  0.00  0.00    +0.000 A 
ATOM      6  N   UNL     1      44.885   5.411   9.768  0.00  0.00    +0.000 N 
ATOM      7  N   UNL     1      45.954   4.693   7.873  0.00  0.00    +0.000 NA
ATOM      8  C   UNL     1      46.539   3.705   7.143  0.00  0.00    +0.000 A 
ATOM      9  H   UNL     1      44.863   6.283   9.254  0.00  0.00    +0.000 HD
BRANCH   2  11
ATOM     10  N   UNL     1      48.258   1.812   5.880  0.00  0.00    +0.000 N 
ATOM     11  C   UNL     1      47.231   1.374   6.672  0.00  0.00    +0.000 C 
ATOM     12  O   UNL     1      46.891   0.199   6.679  0.00  0.00    +0.000 OA
ATOM     13  H   UNL     1      48.762   1.106   5.359  0.00  0.00    +0.000 HD
ATOM     14  H   UNL     1      48.716   2.701   6.026  0.00  0.00    +0.000 HD
ENDBRANCH   2  11
ENDBRANCH   1   6
BRANCH   1  15
ATOM     15  C   UNL     1      45.375   5.324  12.177  0.00  0.00    +0.000 A 
ATOM     16  C   UNL     1      45.234   4.492  13.285  0.00  0.00    +0.000 A 
ATOM     17  C   UNL     1      46.208   4.523  14.273  0.00  0.00    +0.000 A 
ATOM     18  C   UNL     1      47.295   5.379  14.129  0.00  0.00    +0.000 A 
ATOM     19  C   UNL     1      47.375   6.190  13.001  0.00  0.00    +0.000 A 
ATOM     20  N   UNL     1      46.428   6.172  12.031  0.00  0.00    +0.000 NA
BRANCH  19  21
ATOM     21  C   UNL     1      48.510   7.113  12.796  0.00  0.00    +0.000 C 
ATOM     22  C   UNL     1      49.443   7.312  13.747  0.00  0.00    +0.000 C 
ATOM     23  C   UNL     1      50.616   8.233  13.580  0.00  0.00    +0.000 C 
ATOM     24  N   UNL     1      50.805   8.735  12.215  0.00  0.00    +0.000 NA
ATOM     25  C   UNL     1      49.518   9.095  11.614  0.00  0.00    +0.000 C 
ATOM     26  C   UNL     1      48.594   7.874  11.496  0.00  0.00    +0.000 C 
ATOM     27  H   UNL     1      51.229   7.991  11.663  0.00  0.00    +0.000 HD
ENDBRANCH  19  21
ENDBRANCH   1  15
TORSDOF 4
ENDMDL
MODEL 4
REMARK VINA RESULT:    -7.222      6.101      8.540
REMARK INTER + INTRA:          -9.401
REMARK INTER:                  -8.814
REMARK INTRA:                  -0.586
REMARK UNBOUND:                -0.490
REMARK  Name = 
REMARK  4 active torsions:
REMARK  status: ('A' for Active; 'I' for Inactive)
REMARK    1  A    between atoms: C_2  and  C_4
REMARK    2  A    between atoms: N_8  and  C_9
REMARK    3  A    between atoms: C_9  and  C_10
REMARK    4  A    between atoms: C_14  and  C_15
REMARK                            x       y       z     vdW  Elec       q    Type
REMARK                         _______ _______ _______ _____ _____    ______ ____
ROOT
ATOM      1  C   UNL     1      47.484   3.989  16.937  0.00  0.00    +0.000 C 
ENDROOT
BRANCH   1   6
ATOM      2  C   UNL     1      52.291   2.425  17.941  0.00  0.00    +0.000 A 
ATOM      3  C   UNL     1      51.651   3.628  18.215  0.00  0.00    +0.000 A 
ATOM      4  C   UNL     1      50.313   3.782  17.858  0.00  0.00    +0.000 A 
ATOM      5  C   UNL     1      49.630   2.737  17.240  0.00  0.00    +0.000 A 
ATOM      6  N   UNL     1      48.330   2.821  16.834  0.00  0.00    +0.000 N 
ATOM      7  N   UNL     1      50.241   1.565  16.973  0.00  0.00    +0.000 NA
ATOM      8  C   UNL     1      51.553   1.434  17.309  0.00  0.00    +0.000 A 
ATOM      9  H   UNL     1      47.952   1.948  16.486  0.00  0.00    +0.000 HD
BRANCH   2  11
ATOM     10  N   UNL     1      54.642   2.816  17.500  0.00  0.00    +0.000 N 
ATOM     11  C   UNL     1      53.706   2.185  18.275  0.00  0.00    +0.000 C 
ATOM     12  O   UNL     1      54.035   1.479  19.219  0.00  0.00    +0.000 OA
ATOM     13  H   UNL     1      55.607   2.726  17.790  0.00  0.00    +0.000 HD
ATOM     14  H   UNL     1      54.409   3.582  16.883  0.00  0.00    +0.000 HD
ENDBRANCH   2  11
ENDBRANCH   1   6
BRANCH   1  15
ATOM     15  C   UNL     1      47.328   4.706  15.613  0.00  0.00    +0.000 A 
ATOM     16  C   UNL     1      48.200   5.736  15.268  0.00  0.00    +0.000 A 
ATOM     17  C   UNL     1      48.014   6.392  14.059  0.00  0.00    +0.000 A 
ATOM     18  C   UNL     1      46.970   6.004  13.228  0.00  0.00    +0.000 A 
ATOM     19  C   UNL     1      46.129   4.971  13.633  0.00  0.00    +0.000 A 
ATOM     20  N   UNL     1      46.297   4.325  14.813  0.00  0.00    +0.000 NA
BRANCH  19  21
ATOM     21  C   UNL     1      45.006   4.516  12.787  0.00  0.00    +0.000 C 
ATOM     22  C   UNL     1      45.153   3.522  11.889  0.00  0.00    +0.000 C 
ATOM     23  C   UNL     1      44.041   3.021  11.015  0.00  0.00    +0.000 C 
ATOM     24  N   UNL     1      42.714   3.537  11.365  0.00  0.00    +0.000 NA
ATOM     25  C   UNL     1      42.784   4.964  11.692  0.00  0.00    +0.000 C 
ATOM     26  C   UNL     1      43.676   5.216  12.916  0.00  0.00    +0.000 C 
ATOM     27  H   UNL     1      42.385   3.028  12.184  0.00  0.00    +0.000 HD
ENDBRANCH  19  21
ENDBRANCH   1  15
TORSDOF 4
ENDMDL
MODEL 5
REMARK VINA RESULT:    -7.001      2.855      7.019
REMARK INTER + INTRA:          -9.129
REMARK INTER:                  -8.772
REMARK INTRA:                  -0.357
REMARK UNBOUND:                -0.490
REMARK  Name = 
REMARK  4 active torsions:
REMARK  status: ('A' for Active; 'I' for Inactive)
REMARK    1  A    between atoms: C_2  and  C_4
REMARK    2  A    between atoms: N_8  and  C_9
REMARK    3  A    between atoms: C_9  and  C_10
REMARK    4  A    between atoms: C_14  and  C_15
REMARK                            x       y       z     vdW  Elec       q    Type
REMARK                         _______ _______ _______ _____ _____    ______ ____
ROOT
ATOM      1  C   UNL     1      43.162   6.240  11.160  0.00  0.00    +0.000 C 
ENDROOT
BRANCH   1   6
ATOM      2  C   UNL     1      47.741   7.015  13.397  0.00  0.00    +0.000 A 
ATOM      3  C   UNL     1      46.760   6.061  13.641  0.00  0.00    +0.000 A 
ATOM      4  C   UNL     1      45.608   6.054  12.856  0.00  0.00    +0.000 A 
ATOM      5  C   UNL     1      45.453   6.991  11.837  0.00  0.00    +0.000 A 
ATOM      6  N   UNL     1      44.344   7.067  11.046  0.00  0.00    +0.000 N 
ATOM      7  N   UNL     1      46.400   7.918  11.590  0.00  0.00    +0.000 NA
ATOM      8  C   UNL     1      47.510   7.926  12.376  0.00  0.00    +0.000 A 
ATOM      9  H   UNL     1      44.422   7.741  10.293  0.00  0.00    +0.000 HD
BRANCH   2  11
ATOM     10  N   UNL     1      49.805   8.163  13.939  0.00  0.00    +0.000 N 
ATOM     11  C   UNL     1      48.981   7.098  14.189  0.00  0.00    +0.000 C 
ATOM     12  O   UNL     1      49.252   6.273  15.051  0.00  0.00    +0.000 OA
ATOM     13  H   UNL     1      50.607   8.268  14.548  0.00  0.00    +0.000 HD
ATOM     14  H   UNL     1      49.502   8.975  13.421  0.00  0.00    +0.000 HD
ENDBRANCH   2  11
ENDBRANCH   1   6
BRANCH   1  15
ATOM     15  C   UNL     1      43.470   4.769  10.980  0.00  0.00    +0.000 A 
ATOM     16  C   UNL     1      42.980   3.835  11.891  0.00  0.00    +0.000 A 
ATOM     17  C   UNL     1      43.302   2.497  11.714  0.00  0.00    +0.000 A 
ATOM     18  C   UNL     1      44.098   2.125  10.637  0.00  0.00    +0.000 A 
ATOM     19  C   UNL     1      44.560   3.107   9.765  0.00  0.00    +0.000 A 
ATOM     20  N   UNL     1      44.257   4.418   9.928  0.00  0.00    +0.000 NA
BRANCH  19  21
ATOM     21  C   UNL     1      45.405   2.767   8.601  0.00  0.00    +0.000 C 
ATOM     22  C   UNL     1      45.929   1.536   8.440  0.00  0.00    +0.000 C 
ATOM     23  C   UNL     1      46.785   1.143   7.272  0.00  0.00    +0.000 C 
ATOM     24  N   UNL     1      46.827   2.132   6.191  0.00  0.00    +0.000 NA
ATOM     25  C   UNL     1      46.932   3.489   6.734  0.00  0.00    +0.000 C 
ATOM     26  C   UNL     1      45.709   3.846   7.592  0.00  0.00    +0.000 C 
ATOM     27  H   UNL     1      45.959   2.057   5.662  0.00  0.00    +0.000 HD
ENDBRANCH  19  21
ENDBRANCH   1  15
TORSDOF 4
ENDMDL
MODEL 6
REMARK VINA RESULT:    -6.973      3.517      7.067
REMARK INTER + INTRA:          -9.093
REMARK INTER:                  -8.492
REMARK INTRA:                  -0.601
REMARK UNBOUND:                -0.490
REMARK  Name = 
REMARK  4 active torsions:
REMARK  status: ('A' for Active; 'I' for Inactive)
REMARK    1  A    between atoms: C_2  and  C_4
REMARK    2  A    between atoms: N_8  and  C_9
REMARK    3  A    between atoms: C_9  and  C_10
REMARK    4  A    between atoms: C_14  and  C_15
REMARK                            x       y       z     vdW  Elec       q    Type
REMARK                         _______ _______ _______ _____ _____    ______ ____
ROOT
ATOM      1  C   UNL     1      44.887   6.529  12.374  0.00  0.00    +0.000 C 
ENDROOT
BRANCH   1   6
ATOM      2  C   UNL     1      49.798   8.057  12.711  0.00  0.00    +0.000 A 
ATOM      3  C   UNL     1      48.827   8.325  11.754  0.00  0.00    +0.000 A 
ATOM      4  C   UNL     1      47.545   7.804  11.922  0.00  0.00    +0.000 A 
ATOM      5  C   UNL     1      47.249   7.029  13.041  0.00  0.00    +0.000 A 
ATOM      6  N   UNL     1      46.028   6.459  13.261  0.00  0.00    +0.000 N 
ATOM      7  N   UNL     1      48.184   6.765  13.976  0.00  0.00    +0.000 NA
ATOM      8  C   UNL     1      49.435   7.264  13.790  0.00  0.00    +0.000 A 
ATOM      9  H   UNL     1      45.945   6.004  14.162  0.00  0.00    +0.000 HD
BRANCH   2  11
ATOM     10  N   UNL     1      52.096   7.732  12.012  0.00  0.00    +0.000 N 
ATOM     11  C   UNL     1      51.180   8.560  12.602  0.00  0.00    +0.000 C 
ATOM     12  O   UNL     1      51.491   9.677  12.992  0.00  0.00    +0.000 OA
ATOM     13  H   UNL     1      53.019   8.116  11.853  0.00  0.00    +0.000 HD
ATOM     14  H   UNL     1      51.828   6.922  11.470  0.00  0.00    +0.000 HD
ENDBRANCH   2  11
ENDBRANCH   1   6
BRANCH   1  15
ATOM     15  C   UNL     1      44.508   5.174  11.817  0.00  0.00    +0.000 A 
ATOM     16  C   UNL     1      43.570   4.383  12.477  0.00  0.00    +0.000 A 
ATOM     17  C   UNL     1      43.263   3.134  11.956  0.00  0.00    +0.000 A 
ATOM     18  C   UNL     1      43.895   2.708  10.793  0.00  0.00    +0.000 A 
ATOM     19  C   UNL     1      44.827   3.543  10.183  0.00  0.00    +0.000 A 
ATOM     20  N   UNL     1      45.139   4.764  10.684  0.00  0.00    +0.000 NA
BRANCH  19  21
ATOM     21  C   UNL     1      45.523   3.143   8.943  0.00  0.00    +0.000 C 
ATOM     22  C   UNL     1      45.868   1.862   8.705  0.00  0.00    +0.000 C 
ATOM     23  C   UNL     1      46.568   1.408   7.458  0.00  0.00    +0.000 C 
ATOM     24  N   UNL     1      46.652   2.425   6.405  0.00  0.00    +0.000 NA
ATOM     25  C   UNL     1      46.977   3.735   6.975  0.00  0.00    +0.000 C 
ATOM     26  C   UNL     1      45.885   4.212   7.942  0.00  0.00    +0.000 C 
ATOM     27  H   UNL     1      45.742   2.482   5.949  0.00  0.00    +0.000 HD
ENDBRANCH  19  21
ENDBRANCH   1  15
TORSDOF 4
ENDMDL
MODEL 7
REMARK VINA RESULT:    -6.700      5.523      7.879
REMARK INTER + INTRA:          -8.756
REMARK INTER:                  -8.297
REMARK INTRA:                  -0.460
REMARK UNBOUND:                -0.490
REMARK  Name = 
REMARK  4 active torsions:
REMARK  status: ('A' for Active; 'I' for Inactive)
REMARK    1  A    between atoms: C_2  and  C_4
REMARK    2  A    between atoms: N_8  and  C_9
REMARK    3  A    between atoms: C_9  and  C_10
REMARK    4  A    between atoms: C_14  and  C_15
REMARK                            x       y       z     vdW  Elec       q    Type
REMARK                         _______ _______ _______ _____ _____    ______ ____
ROOT
ATOM      1  C   UNL     1      47.139   4.311  15.749  0.00  0.00    +0.000 C 
ENDROOT
BRANCH   1   6
ATOM      2  C   UNL     1      45.100   3.993  11.025  0.00  0.00    +0.000 A 
ATOM      3  C   UNL     1      45.244   3.033  12.019  0.00  0.00    +0.000 A 
ATOM      4  C   UNL     1      45.811   3.397  13.239  0.00  0.00    +0.000 A 
ATOM      5  C   UNL     1      46.221   4.711  13.453  0.00  0.00    +0.000 A 
ATOM      6  N   UNL     1      46.812   5.137  14.607  0.00  0.00    +0.000 N 
ATOM      7  N   UNL     1      46.083   5.651  12.496  0.00  0.00    +0.000 NA
ATOM      8  C   UNL     1      45.545   5.277  11.304  0.00  0.00    +0.000 A 
ATOM      9  H   UNL     1      46.967   6.138  14.642  0.00  0.00    +0.000 HD
BRANCH   2  11
ATOM     10  N   UNL     1      43.885   4.711   9.055  0.00  0.00    +0.000 N 
ATOM     11  C   UNL     1      44.521   3.688   9.705  0.00  0.00    +0.000 C 
ATOM     12  O   UNL     1      44.627   2.580   9.195  0.00  0.00    +0.000 OA
ATOM     13  H   UNL     1      43.573   4.524   8.110  0.00  0.00    +0.000 HD
ATOM     14  H   UNL     1      43.990   5.678   9.329  0.00  0.00    +0.000 HD
ENDBRANCH   2  11
ENDBRANCH   1   6
BRANCH   1  15
ATOM     15  C   UNL     1      48.385   4.785  16.464  0.00  0.00    +0.000 A 
ATOM     16  C   UNL     1      48.569   6.140  16.728  0.00  0.00    +0.000 A 
ATOM     17  C   UNL     1      49.735   6.546  17.361  0.00  0.00    +0.000 A 
ATOM     18  C   UNL     1      50.683   5.594  17.716  0.00  0.00    +0.000 A 
ATOM     19  C   UNL     1      50.443   4.255  17.420  0.00  0.00    +0.000 A 
ATOM     20  N   UNL     1      49.310   3.846  16.798  0.00  0.00    +0.000 NA
BRANCH  19  21
ATOM     21  C   UNL     1      51.414   3.201  17.780  0.00  0.00    +0.000 C 
ATOM     22  C   UNL     1      52.576   3.488  18.399  0.00  0.00    +0.000 C 
ATOM     23  C   UNL     1      53.588   2.451  18.790  0.00  0.00    +0.000 C 
ATOM     24  N   UNL     1      53.122   1.068  18.655  0.00  0.00    +0.000 NA
ATOM     25  C   UNL     1      52.360   0.896  17.415  0.00  0.00    +0.000 C 
ATOM     26  C   UNL     1      51.100   1.774  17.406  0.00  0.00    +0.000 C 
ATOM     27  H   UNL     1      52.513   0.863  19.446  0.00  0.00    +0.000 HD
ENDBRANCH  19  21
ENDBRANCH   1  15
TORSDOF 4
ENDMDL
MODEL 8
REMARK VINA RESULT:    -6.368      5.078      8.682
REMARK INTER + INTRA:          -8.348
REMARK INTER:                  -7.752
REMARK INTRA:                  -0.596
REMARK UNBOUND:                -0.490
REMARK  Name = 
REMARK  4 active torsions:
REMARK  status: ('A' for Active; 'I' for Inactive)
REMARK    1  A    between atoms: C_2  and  C_4
REMARK    2  A    between atoms: N_8  and  C_9
REMARK    3  A    between atoms: C_9  and  C_10
REMARK    4  A    between atoms: C_14  and  C_15
REMARK                            x       y       z     vdW  Elec       q    Type
REMARK                         _______ _______ _______ _____ _____    ______ ____
ROOT
ATOM      1  C   UNL     1      48.863   6.965  13.570  0.00  0.00    +0.000 C 
ENDROOT
BRANCH   1   6
ATOM      2  C   UNL     1      48.556   5.537  18.513  0.00  0.00    +0.000 A 
ATOM      3  C   UNL     1      48.429   4.797  17.344  0.00  0.00    +0.000 A 
ATOM      4  C   UNL     1      48.592   5.434  16.115  0.00  0.00    +0.000 A 
ATOM      5  C   UNL     1      48.883   6.795  16.068  0.00  0.00    +0.000 A 
ATOM      6  N   UNL     1      49.027   7.496  14.906  0.00  0.00    +0.000 N 
ATOM      7  N   UNL     1      49.011   7.522  17.197  0.00  0.00    +0.000 NA
ATOM      8  C   UNL     1      48.831   6.892  18.389  0.00  0.00    +0.000 A 
ATOM      9  H   UNL     1      49.327   8.454  15.039  0.00  0.00    +0.000 HD
BRANCH   2  11
ATOM     10  N   UNL     1      48.525   3.584  19.947  0.00  0.00    +0.000 N 
ATOM     11  C   UNL     1      48.388   4.942  19.851  0.00  0.00    +0.000 C 
ATOM     12  O   UNL     1      48.165   5.630  20.839  0.00  0.00    +0.000 OA
ATOM     13  H   UNL     1      48.503   3.190  20.879  0.00  0.00    +0.000 HD
ATOM     14  H   UNL     1      48.942   3.027  19.214  0.00  0.00    +0.000 HD
ENDBRANCH   2  11
ENDBRANCH   1   6
BRANCH   1  15
ATOM     15  C   UNL     1      47.448   7.123  13.057  0.00  0.00    +0.000 A 
ATOM     16  C   UNL     1      46.791   8.346  13.179  0.00  0.00    +0.000 A 
ATOM     17  C   UNL     1      45.485   8.451  12.725  0.00  0.00    +0.000 A 
ATOM     18  C   UNL     1      44.870   7.340  12.158  0.00  0.00    +0.000 A 
ATOM     19  C   UNL     1      45.578   6.145  12.069  0.00  0.00    +0.000 A 
ATOM     20  N   UNL     1      46.853   6.028  12.514  0.00  0.00    +0.000 NA
BRANCH  19  21
ATOM     21  C   UNL     1      44.975   4.936  11.472  0.00  0.00    +0.000 C 
ATOM     22  C   UNL     1      44.954   4.737  10.139  0.00  0.00    +0.000 C 
ATOM     23  C   UNL     1      44.361   3.522   9.490  0.00  0.00    +0.000 C 
ATOM     24  N   UNL     1      44.002   2.449  10.422  0.00  0.00    +0.000 NA
ATOM     25  C   UNL     1      43.374   2.998  11.626  0.00  0.00    +0.000 C 
ATOM     26  C   UNL     1      44.336   3.922  12.388  0.00  0.00    +0.000 C 
ATOM     27  H   UNL     1      44.859   1.966  10.689  0.00  0.00    +0.000 HD
ENDBRANCH  19  21
ENDBRANCH   1  15
TORSDOF 4
ENDMDL
MODEL 9
REMARK VINA RESULT:    -6.126      5.953      7.700
REMARK INTER + INTRA:          -8.048
REMARK INTER:                  -7.543
REMARK INTRA:                  -0.505
REMARK UNBOUND:                -0.490
REMARK  Name = 
REMARK  4 active torsions:
REMARK  status: ('A' for Active; 'I' for Inactive)
REMARK    1  A    between atoms: C_2  and  C_4
REMARK    2  A    between atoms: N_8  and  C_9
REMARK    3  A    between atoms: C_9  and  C_10
REMARK    4  A    between atoms: C_14  and  C_15
REMARK                            x       y       z     vdW  Elec       q    Type
REMARK                         _______ _______ _______ _____ _____    ______ ____
ROOT
ATOM      1  C   UNL     1      47.768   4.637  16.391  0.00  0.00    +0.000 C 
ENDROOT
BRANCH   1   6
ATOM      2  C   UNL     1      45.748   5.012  11.664  0.00  0.00    +0.000 A 
ATOM      3  C   UNL     1      46.484   5.923  12.412  0.00  0.00    +0.000 A 
ATOM      4  C   UNL     1      46.946   5.551  13.673  0.00  0.00    +0.000 A 
ATOM      5  C   UNL     1      46.673   4.277  14.168  0.00  0.00    +0.000 A 
ATOM      6  N   UNL     1      47.064   3.849  15.403  0.00  0.00    +0.000 N 
ATOM      7  N   UNL     1      45.962   3.385  13.448  0.00  0.00    +0.000 NA
ATOM      8  C   UNL     1      45.501   3.769  12.227  0.00  0.00    +0.000 A 
ATOM      9  H   UNL     1      46.869   2.870  15.578  0.00  0.00    +0.000 HD
BRANCH   2  11
ATOM     10  N   UNL     1      43.854   5.446  10.215  0.00  0.00    +0.000 N 
ATOM     11  C   UNL     1      45.214   5.331  10.328  0.00  0.00    +0.000 C 
ATOM     12  O   UNL     1      45.949   5.515   9.367  0.00  0.00    +0.000 OA
ATOM     13  H   UNL     1      43.498   5.757   9.320  0.00  0.00    +0.000 HD
ATOM     14  H   UNL     1      43.248   5.541  11.018  0.00  0.00    +0.000 HD
ENDBRANCH   2  11
ENDBRANCH   1   6
BRANCH   1  15
ATOM     15  C   UNL     1      49.070   3.995  16.819  0.00  0.00    +0.000 A 
ATOM     16  C   UNL     1      49.145   2.615  16.992  0.00  0.00    +0.000 A 
ATOM     17  C   UNL     1      50.345   2.058  17.412  0.00  0.00    +0.000 A 
ATOM     18  C   UNL     1      51.435   2.889  17.645  0.00  0.00    +0.000 A 
ATOM     19  C   UNL     1      51.294   4.261  17.459  0.00  0.00    +0.000 A 
ATOM     20  N   UNL     1      50.126   4.818  17.054  0.00  0.00    +0.000 NA
BRANCH  19  21
ATOM     21  C   UNL     1      52.421   5.189  17.687  0.00  0.00    +0.000 C 
ATOM     22  C   UNL     1      53.679   4.745  17.877  0.00  0.00    +0.000 C 
ATOM     23  C   UNL     1      54.855   5.649  18.104  0.00  0.00    +0.000 C 
ATOM     24  N   UNL     1      54.579   7.071  17.879  0.00  0.00    +0.000 NA
ATOM     25  C   UNL     1      53.272   7.438  18.432  0.00  0.00    +0.000 C 
ATOM     26  C   UNL     1      52.136   6.669  17.744  0.00  0.00    +0.000 C 
ATOM     27  H   UNL     1      54.567   7.234  16.873  0.00  0.00    +0.000 HD
ENDBRANCH  19  21
ENDBRANCH   1  15
TORSDOF 4
ENDMDL
