MODEL 1
REMARK VINA RESULT:    -7.370      0.000      0.000
REMARK INTER + INTRA:         -11.530
REMARK INTER:                 -10.386
REMARK INTRA:                  -1.145
REMARK UNBOUND:                -1.145
REMARK  Name = 
REMARK  8 active torsions:
REMARK  status: ('A' for Active; 'I' for Inactive)
REMARK    1  A    between atoms: C_1  and  N_2
REMARK    2  A    between atoms: N_2  and  C_3
REMARK    3  A    between atoms: C_3  and  C_4
REMARK    4  A    between atoms: C_7  and  C_8
REMARK    5  A    between atoms: C_8  and  N_9
REMARK    6  A    between atoms: N_9  and  C_10
REMARK    7  A    between atoms: C_10  and  C_11
REMARK    8  A    between atoms: C_18  and  C_20
REMARK                            x       y       z     vdW  Elec       q    Type
REMARK                         _______ _______ _______ _____ _____    ______ ____
ROOT
ATOM      1  C   UNL     1      46.976   6.263  12.247  0.00  0.00    +0.000 C 
ENDROOT
BRANCH   1   2
ATOM      2  C   UNL     1      47.371   5.821  13.632  0.00  0.00    +0.000 A 
ATOM      3  C   UNL     1      48.265   6.594  14.382  0.00  0.00    +0.000 A 
ATOM      4  C   UNL     1      48.590   6.227  15.685  0.00  0.00    +0.000 A 
ATOM      5  C   UNL     1      48.008   5.098  16.279  0.00  0.00    +0.000 A 
ATOM      6  C   UNL     1      47.147   4.302  15.510  0.00  0.00    +0.000 A 
ATOM      7  C   UNL     1      46.832   4.660  14.196  0.00  0.00    +0.000 A 
BRANCH   5   8
ATOM      8  C   UNL     1      48.329   4.716  17.709  0.00  0.00    +0.000 C 
BRANCH   8   9
ATOM      9  N   UNL     1      49.354   3.676  17.751  0.00  0.00    +0.000 NA
ATOM     10  H   UNL     1      49.487   3.311  16.806  0.00  0.00    +0.000 HD
BRANCH   9  11
ATOM     11  C   UNL     1      50.646   4.170  18.230  0.00  0.00    +0.000 C 
BRANCH  11  12
ATOM     12  C   UNL     1      51.742   3.192  17.775  0.00  0.00    +0.000 C 
ATOM     13  C   UNL     1      51.212   1.821  17.392  0.00  0.00    +0.000 C 
ATOM     14  C   UNL     1      52.476   0.980  17.390  0.00  0.00    +0.000 C 
ATOM     15  C   UNL     1      53.384   1.638  18.421  0.00  0.00    +0.000 C 
ATOM     16  N   UNL     1      52.708   2.869  18.840  0.00  0.00    +0.000 NA
ATOM     17  H   UNL     1      53.380   3.631  18.933  0.00  0.00    +0.000 HD
ENDBRANCH  11  12
ENDBRANCH   9  11
ENDBRANCH   8   9
ENDBRANCH   5   8
ENDBRANCH   1   2
BRANCH   1  19
ATOM     18  C   UNL     1      45.932   8.564  12.247  0.00  0.00    +0.000 C 
ATOM     19  N   UNL     1      45.796   7.118  12.111  0.00  0.00    +0.000 N 
ATOM     20  C   UNL     1      44.572   6.650  11.601  0.00  0.00    +0.000 C 
ATOM     21  O   UNL     1      43.667   7.423  11.299  0.00  0.00    +0.000 OA
BRANCH  20  22
ATOM     22  C   UNL     1      44.357   5.201  11.467  0.00  0.00    +0.000 A 
ATOM     23  C   UNL     1      43.617   4.432  12.350  0.00  0.00    +0.000 A 
ATOM     24  S   UNL     1      43.483   2.794  11.886  0.00  0.00    +0.000 S 
ATOM     25  C   UNL     1      44.285   3.093  10.415  0.00  0.00    +0.000 A 
ATOM     26  N   UNL     1      44.416   2.119   9.477  0.00  0.00    +0.000 NA
ATOM     27  C   UNL     1      44.981   2.507   8.385  0.00  0.00    +0.000 A 
ATOM     28  N   UNL     1      45.467   3.772   8.164  0.00  0.00    +0.000 N 
ATOM     29  C   UNL     1      45.482   4.749   9.134  0.00  0.00    +0.000 A 
ATOM     30  O   UNL     1      46.136   5.774   8.990  0.00  0.00    +0.000 OA
ATOM     31  C   UNL     1      44.737   4.398  10.330  0.00  0.00    +0.000 A 
ATOM     32  H   UNL     1      45.964   3.991   7.315  0.00  0.00    +0.000 HD
ENDBRANCH  20  22
ENDBRANCH   1  19
TORSDOF 7
ENDMDL
MODEL 2
REMARK VINA RESULT:    -7.317      3.860      8.494
REMARK INTER + INTRA:         -11.456
REMARK INTER:                 -10.385
REMARK INTRA:                  -1.071
REMARK UNBOUND:                -1.145
REMARK  Name = 
REMARK  8 active torsions:
REMARK  status: ('A' for Active; 'I' for Inactive)
REMARK    1  A    between atoms: C_1  and  N_2
REMARK    2  A    between atoms: N_2  and  C_3
REMARK    3  A    between atoms: C_3  and  C_4
REMARK    4  A    between atoms: C_7  and  C_8
REMARK    5  A    between atoms: C_8  and  N_9
REMARK    6  A    between atoms: N_9  and  C_10
REMARK    7  A    between atoms: C_10  and  C_11
REMARK    8  A    between atoms: C_18  and  C_20
REMARK                            x       y       z     vdW  Elec       q    Type
REMARK                         _______ _______ _______ _____ _____    ______ ____
ROOT
ATOM      1  C   UNL     1      47.469   7.632  13.603  0.00  0.00    +0.000 C 
ENDROOT
BRANCH   1   2
ATOM      2  C   UNL     1      46.607   6.603  12.920  0.00  0.00    +0.000 A 
ATOM      3  C   UNL     1      46.392   5.360  13.527  0.00  0.00    +0.000 A 
ATOM      4  C   UNL     1      45.549   4.424  12.934  0.00  0.00    +0.000 A 
ATOM      5  C   UNL     1      44.878   4.719  11.738  0.00  0.00    +0.000 A 
ATOM      6  C   UNL     1      45.130   5.948  11.110  0.00  0.00    +0.000 A 
ATOM      7  C   UNL     1      45.989   6.883  11.696  0.00  0.00    +0.000 A 
BRANCH   5   8
ATOM      8  C   UNL     1      43.930   3.720  11.108  0.00  0.00    +0.000 C 
BRANCH   8   9
ATOM      9  N   UNL     1      44.640   2.501  10.724  0.00  0.00    +0.000 NA
ATOM     10  H   UNL     1      44.251   1.718  11.253  0.00  0.00    +0.000 HD
BRANCH   9  11
ATOM     11  C   UNL     1      44.510   2.192   9.299  0.00  0.00    +0.000 C 
BRANCH  11  12
ATOM     12  C   UNL     1      45.901   2.281   8.651  0.00  0.00    +0.000 C 
ATOM     13  C   UNL     1      45.959   3.223   7.462  0.00  0.00    +0.000 C 
ATOM     14  C   UNL     1      47.261   2.818   6.796  0.00  0.00    +0.000 C 
ATOM     15  C   UNL     1      47.425   1.340   7.128  0.00  0.00    +0.000 C 
ATOM     16  N   UNL     1      46.348   1.006   8.063  0.00  0.00    +0.000 NA
ATOM     17  H   UNL     1      46.693   0.393   8.801  0.00  0.00    +0.000 HD
ENDBRANCH  11  12
ENDBRANCH   9  11
ENDBRANCH   8   9
ENDBRANCH   5   8
ENDBRANCH   1   2
BRANCH   1  19
ATOM     18  C   UNL     1      49.576   7.060  12.332  0.00  0.00    +0.000 C 
ATOM     19  N   UNL     1      48.919   7.437  13.579  0.00  0.00    +0.000 N 
ATOM     20  C   UNL     1      49.759   7.841  14.632  0.00  0.00    +0.000 C 
ATOM     21  O   UNL     1      50.981   7.863  14.504  0.00  0.00    +0.000 OA
BRANCH  20  22
ATOM     22  C   UNL     1      49.163   8.205  15.926  0.00  0.00    +0.000 A 
ATOM     23  C   UNL     1      48.784   9.488  16.284  0.00  0.00    +0.000 A 
ATOM     24  S   UNL     1      48.050   9.582  17.823  0.00  0.00    +0.000 S 
ATOM     25  C   UNL     1      48.081   7.890  17.997  0.00  0.00    +0.000 A 
ATOM     26  N   UNL     1      47.501   7.284  19.065  0.00  0.00    +0.000 NA
ATOM     27  C   UNL     1      47.540   5.996  19.030  0.00  0.00    +0.000 A 
ATOM     28  N   UNL     1      48.147   5.260  18.042  0.00  0.00    +0.000 N 
ATOM     29  C   UNL     1      48.867   5.831  17.017  0.00  0.00    +0.000 A 
ATOM     30  O   UNL     1      49.594   5.154  16.301  0.00  0.00    +0.000 OA
ATOM     31  C   UNL     1      48.736   7.275  16.944  0.00  0.00    +0.000 A 
ATOM     32  H   UNL     1      48.205   4.255  18.111  0.00  0.00    +0.000 HD
ENDBRANCH  20  22
ENDBRANCH   1  19
TORSDOF 7
ENDMDL
MODEL 3
REMARK VINA RESULT:    -7.167      3.351      8.525
REMARK INTER + INTRA:         -11.245
REMARK INTER:                 -10.233
REMARK INTRA:                  -1.012
REMARK UNBOUND:                -1.145
REMARK  Name = 
REMARK  8 active torsions:
REMARK  status: ('A' for Active; 'I' for Inactive)
REMARK    1  A    between atoms: C_1  and  N_2
REMARK    2  A    between atoms: N_2  and  C_3
REMARK    3  A    between atoms: C_3  and  C_4
REMARK    4  A    between atoms: C_7  and  C_8
REMARK    5  A    between atoms: C_8  and  N_9
REMARK    6  A    between atoms: N_9  and  C_10
REMARK    7  A    between atoms: C_10  and  C_11
REMARK    8  A    between atoms: C_18  and  C_20
REMARK                            x       y       z     vdW  Elec       q    Type
REMARK                         _______ _______ _______ _____ _____    ______ ____
ROOT
ATOM      1  C   UNL     1      48.578   6.817  13.495  0.00  0.00    +0.000 C 
ENDROOT
BRANCH   1   2
ATOM      2  C   UNL     1      47.398   6.120  12.869  0.00  0.00    +0.000 A 
ATOM      3  C   UNL     1      46.925   6.536  11.619  0.00  0.00    +0.000 A 
ATOM      4  C   UNL     1      45.874   5.860  11.005  0.00  0.00    +0.000 A 
ATOM      5  C   UNL     1      45.291   4.737  11.610  0.00  0.00    +0.000 A 
ATOM      6  C   UNL     1      45.739   4.350  12.882  0.00  0.00    +0.000 A 
ATOM      7  C   UNL     1      46.783   5.037  13.507  0.00  0.00    +0.000 A 
BRANCH   5   8
ATOM      8  C   UNL     1      44.173   3.976  10.928  0.00  0.00    +0.000 C 
BRANCH   8   9
ATOM      9  N   UNL     1      44.574   2.596  10.659  0.00  0.00    +0.000 NA
ATOM     10  H   UNL     1      43.962   1.971  11.187  0.00  0.00    +0.000 HD
BRANCH   9  11
ATOM     11  C   UNL     1      44.468   2.240   9.243  0.00  0.00    +0.000 C 
BRANCH  11  12
ATOM     12  C   UNL     1      45.869   2.311   8.616  0.00  0.00    +0.000 C 
ATOM     13  C   UNL     1      45.940   3.195   7.383  0.00  0.00    +0.000 C 
ATOM     14  C   UNL     1      47.258   2.772   6.760  0.00  0.00    +0.000 C 
ATOM     15  C   UNL     1      47.429   1.312   7.166  0.00  0.00    +0.000 C 
ATOM     16  N   UNL     1      46.338   1.013   8.097  0.00  0.00    +0.000 NA
ATOM     17  H   UNL     1      46.675   0.440   8.870  0.00  0.00    +0.000 HD
ENDBRANCH  11  12
ENDBRANCH   9  11
ENDBRANCH   8   9
ENDBRANCH   5   8
ENDBRANCH   1   2
BRANCH   1  19
ATOM     18  C   UNL     1      47.157   8.823  14.076  0.00  0.00    +0.000 C 
ATOM     19  N   UNL     1      48.316   7.979  14.345  0.00  0.00    +0.000 N 
ATOM     20  C   UNL     1      48.974   8.191  15.569  0.00  0.00    +0.000 C 
ATOM     21  O   UNL     1      48.592   9.049  16.361  0.00  0.00    +0.000 OA
BRANCH  20  22
ATOM     22  C   UNL     1      50.169   7.394  15.889  0.00  0.00    +0.000 A 
ATOM     23  C   UNL     1      51.471   7.811  15.671  0.00  0.00    +0.000 A 
ATOM     24  S   UNL     1      52.646   6.699  16.218  0.00  0.00    +0.000 S 
ATOM     25  C   UNL     1      51.453   5.693  16.896  0.00  0.00    +0.000 A 
ATOM     26  N   UNL     1      51.790   4.597  17.624  0.00  0.00    +0.000 NA
ATOM     27  C   UNL     1      50.785   3.970  18.135  0.00  0.00    +0.000 A 
ATOM     28  N   UNL     1      49.470   4.318  17.947  0.00  0.00    +0.000 N 
ATOM     29  C   UNL     1      49.076   5.335  17.106  0.00  0.00    +0.000 A 
ATOM     30  O   UNL     1      47.906   5.461  16.770  0.00  0.00    +0.000 OA
ATOM     31  C   UNL     1      50.176   6.148  16.617  0.00  0.00    +0.000 A 
ATOM     32  H   UNL     1      48.728   3.743  18.315  0.00  0.00    +0.000 HD
ENDBRANCH  20  22
ENDBRANCH   1  19
TORSDOF 7
ENDMDL
MODEL 4
REMARK VINA RESULT:    -7.022      3.178      8.376
REMARK INTER + INTRA:         -11.040
REMARK INTER:                 -10.024
REMARK INTRA:                  -1.016
REMARK UNBOUND:                -1.145
REMARK  Name = 
REMARK  8 active torsions:
REMARK  status: ('A' for Active; 'I' for Inactive)
REMARK    1  A    between atoms: C_1  and  N_2
REMARK    2  A    between atoms: N_2  and  C_3
REMARK    3  A    between atoms: C_3  and  C_4
REMARK    4  A    between atoms: C_7  and  C_8
REMARK    5  A    between atoms: C_8  and  N_9
REMARK    6  A    between atoms: N_9  and  C_10
REMARK    7  A    between atoms: C_10  and  C_11
REMARK    8  A    between atoms: C_18  and  C_20
REMARK                            x       y       z     vdW  Elec       q    Type
REMARK                         _______ _______ _______ _____ _____    ______ ____
ROOT
ATOM      1  C   UNL     1      49.121   6.667  14.778  0.00  0.00    +0.000 C 
ENDROOT
BRANCH   1   2
ATOM      2  C   UNL     1      47.857   6.508  13.973  0.00  0.00    +0.000 A 
ATOM      3  C   UNL     1      47.217   5.264  13.919  0.00  0.00    +0.000 A 
ATOM      4  C   UNL     1      46.017   5.121  13.229  0.00  0.00    +0.000 A 
ATOM      5  C   UNL     1      45.414   6.220  12.602  0.00  0.00    +0.000 A 
ATOM      6  C   UNL     1      46.080   7.455  12.621  0.00  0.00    +0.000 A 
ATOM      7  C   UNL     1      47.293   7.597  13.300  0.00  0.00    +0.000 A 
BRANCH   5   8
ATOM      8  C   UNL     1      44.089   6.078  11.881  0.00  0.00    +0.000 C 
BRANCH   8   9
ATOM      9  N   UNL     1      44.296   5.713  10.481  0.00  0.00    +0.000 NA
ATOM     10  H   UNL     1      45.300   5.692  10.295  0.00  0.00    +0.000 HD
BRANCH   9  11
ATOM     11  C   UNL     1      43.749   4.396  10.151  0.00  0.00    +0.000 C 
BRANCH  11  12
ATOM     12  C   UNL     1      44.473   3.866   8.903  0.00  0.00    +0.000 C 
ATOM     13  C   UNL     1      45.204   2.555   9.134  0.00  0.00    +0.000 C 
ATOM     14  C   UNL     1      46.124   2.485   7.928  0.00  0.00    +0.000 C 
ATOM     15  C   UNL     1      46.411   3.939   7.572  0.00  0.00    +0.000 C 
ATOM     16  N   UNL     1      45.557   4.752   8.441  0.00  0.00    +0.000 NA
ATOM     17  H   UNL     1      45.159   5.534   7.921  0.00  0.00    +0.000 HD
ENDBRANCH  11  12
ENDBRANCH   9  11
ENDBRANCH   8   9
ENDBRANCH   5   8
ENDBRANCH   1   2
BRANCH   1  19
ATOM     18  C   UNL     1      49.185   8.913  15.934  0.00  0.00    +0.000 C 
ATOM     19  N   UNL     1      49.056   7.463  16.005  0.00  0.00    +0.000 N 
ATOM     20  C   UNL     1      48.619   6.933  17.233  0.00  0.00    +0.000 C 
ATOM     21  O   UNL     1      48.372   7.660  18.192  0.00  0.00    +0.000 OA
BRANCH  20  22
ATOM     22  C   UNL     1      48.497   5.474  17.382  0.00  0.00    +0.000 A 
ATOM     23  C   UNL     1      47.305   4.774  17.304  0.00  0.00    +0.000 A 
ATOM     24  S   UNL     1      47.494   3.082  17.441  0.00  0.00    +0.000 S 
ATOM     25  C   UNL     1      49.190   3.223  17.461  0.00  0.00    +0.000 A 
ATOM     26  N   UNL     1      49.985   2.121  17.458  0.00  0.00    +0.000 NA
ATOM     27  C   UNL     1      51.247   2.379  17.403  0.00  0.00    +0.000 A 
ATOM     28  N   UNL     1      51.787   3.641  17.395  0.00  0.00    +0.000 N 
ATOM     29  C   UNL     1      51.029   4.782  17.538  0.00  0.00    +0.000 A 
ATOM     30  O   UNL     1      51.552   5.863  17.773  0.00  0.00    +0.000 OA
ATOM     31  C   UNL     1      49.598   4.545  17.469  0.00  0.00    +0.000 A 
ATOM     32  H   UNL     1      52.786   3.774  17.424  0.00  0.00    +0.000 HD
ENDBRANCH  20  22
ENDBRANCH   1  19
TORSDOF 7
ENDMDL
MODEL 5
REMARK VINA RESULT:    -6.676      3.443      8.701
REMARK INTER + INTRA:         -10.553
REMARK INTER:                  -9.579
REMARK INTRA:                  -0.974
REMARK UNBOUND:                -1.145
REMARK  Name = 
REMARK  8 active torsions:
REMARK  status: ('A' for Active; 'I' for Inactive)
REMARK    1  A    between atoms: C_1  and  N_2
REMARK    2  A    between atoms: N_2  and  C_3
REMARK    3  A    between atoms: C_3  and  C_4
REMARK    4  A    between atoms: C_7  and  C_8
REMARK    5  A    between atoms: C_8  and  N_9
REMARK    6  A    between atoms: N_9  and  C_10
REMARK    7  A    between atoms: C_10  and  C_11
REMARK    8  A    between atoms: C_18  and  C_20
REMARK                            x       y       z     vdW  Elec       q    Type
REMARK                         _______ _______ _______ _____ _____    ______ ____
ROOT
ATOM      1  C   UNL     1      49.386   7.207  14.435  0.00  0.00    +0.000 C 
ENDROOT
BRANCH   1   2
ATOM      2  C   UNL     1      48.222   6.806  13.567  0.00  0.00    +0.000 A 
ATOM      3  C   UNL     1      47.405   5.735  13.948  0.00  0.00    +0.000 A 
ATOM      4  C   UNL     1      46.291   5.395  13.185  0.00  0.00    +0.000 A 
ATOM      5  C   UNL     1      45.952   6.133  12.041  0.00  0.00    +0.000 A 
ATOM      6  C   UNL     1      46.798   7.176  11.638  0.00  0.00    +0.000 A 
ATOM      7  C   UNL     1      47.926   7.510  12.395  0.00  0.00    +0.000 A 
BRANCH   5   8
ATOM      8  C   UNL     1      44.721   5.790  11.228  0.00  0.00    +0.000 C 
BRANCH   8   9
ATOM      9  N   UNL     1      45.092   5.327   9.893  0.00  0.00    +0.000 NA
ATOM     10  H   UNL     1      46.078   5.058   9.904  0.00  0.00    +0.000 HD
BRANCH   9  11
ATOM     11  C   UNL     1      44.313   4.166   9.457  0.00  0.00    +0.000 C 
BRANCH  11  12
ATOM     12  C   UNL     1      45.036   3.512   8.269  0.00  0.00    +0.000 C 
ATOM     13  C   UNL     1      45.666   2.171   8.604  0.00  0.00    +0.000 C 
ATOM     14  C   UNL     1      46.616   1.964   7.438  0.00  0.00    +0.000 C 
ATOM     15  C   UNL     1      47.015   3.370   7.006  0.00  0.00    +0.000 C 
ATOM     16  N   UNL     1      46.193   4.292   7.794  0.00  0.00    +0.000 NA
ATOM     17  H   UNL     1      45.868   5.065   7.214  0.00  0.00    +0.000 HD
ENDBRANCH  11  12
ENDBRANCH   9  11
ENDBRANCH   8   9
ENDBRANCH   5   8
ENDBRANCH   1   2
BRANCH   1  19
ATOM     18  C   UNL     1      48.103   9.033  15.619  0.00  0.00    +0.000 C 
ATOM     19  N   UNL     1      49.103   7.972  15.651  0.00  0.00    +0.000 N 
ATOM     20  C   UNL     1      49.556   7.576  16.922  0.00  0.00    +0.000 C 
ATOM     21  O   UNL     1      49.135   8.108  17.946  0.00  0.00    +0.000 OA
BRANCH  20  22
ATOM     22  C   UNL     1      50.588   6.533  17.023  0.00  0.00    +0.000 A 
ATOM     23  C   UNL     1      51.948   6.778  17.102  0.00  0.00    +0.000 A 
ATOM     24  S   UNL     1      52.889   5.366  17.290  0.00  0.00    +0.000 S 
ATOM     25  C   UNL     1      51.498   4.395  17.421  0.00  0.00    +0.000 A 
ATOM     26  N   UNL     1      51.591   3.069  17.703  0.00  0.00    +0.000 NA
ATOM     27  C   UNL     1      50.455   2.476  17.842  0.00  0.00    +0.000 A 
ATOM     28  N   UNL     1      49.233   3.080  17.680  0.00  0.00    +0.000 N 
ATOM     29  C   UNL     1      49.091   4.383  17.257  0.00  0.00    +0.000 A 
ATOM     30  O   UNL     1      48.007   4.814  16.888  0.00  0.00    +0.000 OA
ATOM     31  C   UNL     1      50.339   5.124  17.218  0.00  0.00    +0.000 A 
ATOM     32  H   UNL     1      48.382   2.542  17.731  0.00  0.00    +0.000 HD
ENDBRANCH  20  22
ENDBRANCH   1  19
TORSDOF 7
ENDMDL
MODEL 6
REMARK VINA RESULT:    -6.398      3.336      8.363
REMARK INTER + INTRA:         -10.161
REMARK INTER:                  -8.953
REMARK INTRA:                  -1.208
REMARK UNBOUND:                -1.145
REMARK  Name = 
REMARK  8 active torsions:
REMARK  status: ('A' for Active; 'I' for Inactive)
REMARK    1  A    between atoms: C_1  and  N_2
REMARK    2  A    between atoms: N_2  and  C_3
REMARK    3  A    between atoms: C_3  and  C_4
REMARK    4  A    between atoms: C_7  and  C_8
REMARK    5  A    between atoms: C_8  and  N_9
REMARK    6  A    between atoms: N_9  and  C_10
REMARK    7  A    between atoms: C_10  and  C_11
REMARK    8  A    between atoms: C_18  and  C_20
REMARK                            x       y       z     vdW  Elec       q    Type
REMARK                         _______ _______ _______ _____ _____    ______ ____
ROOT
ATOM      1  C   UNL     1      49.759   6.977  15.631  0.00  0.00    +0.000 C 
ENDROOT
BRANCH   1   2
ATOM      2  C   UNL     1      48.556   7.094  14.732  0.00  0.00    +0.000 A 
ATOM      3  C   UNL     1      48.012   8.354  14.455  0.00  0.00    +0.000 A 
ATOM      4  C   UNL     1      46.939   8.478  13.578  0.00  0.00    +0.000 A 
ATOM      5  C   UNL     1      46.402   7.353  12.935  0.00  0.00    +0.000 A 
ATOM      6  C   UNL     1      46.921   6.088  13.249  0.00  0.00    +0.000 A 
ATOM      7  C   UNL     1      47.989   5.959  14.142  0.00  0.00    +0.000 A 
BRANCH   5   8
ATOM      8  C   UNL     1      45.259   7.488  11.951  0.00  0.00    +0.000 C 
BRANCH   8   9
ATOM      9  N   UNL     1      44.079   6.767  12.424  0.00  0.00    +0.000 NA
ATOM     10  H   UNL     1      43.652   7.302  13.182  0.00  0.00    +0.000 HD
BRANCH   9  11
ATOM     11  C   UNL     1      43.070   6.581  11.380  0.00  0.00    +0.000 C 
BRANCH  11  12
ATOM     12  C   UNL     1      43.045   5.097  10.983  0.00  0.00    +0.000 C 
ATOM     13  C   UNL     1      43.437   4.159  12.111  0.00  0.00    +0.000 C 
ATOM     14  C   UNL     1      43.722   2.866  11.369  0.00  0.00    +0.000 C 
ATOM     15  C   UNL     1      44.203   3.306   9.991  0.00  0.00    +0.000 C 
ATOM     16  N   UNL     1      44.030   4.759   9.939  0.00  0.00    +0.000 NA
ATOM     17  H   UNL     1      43.672   5.044   9.028  0.00  0.00    +0.000 HD
ENDBRANCH  11  12
ENDBRANCH   9  11
ENDBRANCH   8   9
ENDBRANCH   5   8
ENDBRANCH   1   2
BRANCH   1  19
ATOM     18  C   UNL     1      49.930   8.840  17.329  0.00  0.00    +0.000 C 
ATOM     19  N   UNL     1      49.632   7.449  17.011  0.00  0.00    +0.000 N 
ATOM     20  C   UNL     1      48.990   6.701  18.014  0.00  0.00    +0.000 C 
ATOM     21  O   UNL     1      48.709   7.198  19.102  0.00  0.00    +0.000 OA
BRANCH  20  22
ATOM     22  C   UNL     1      48.689   5.282  17.771  0.00  0.00    +0.000 A 
ATOM     23  C   UNL     1      47.442   4.793  17.417  0.00  0.00    +0.000 A 
ATOM     24  S   UNL     1      47.423   3.111  17.126  0.00  0.00    +0.000 S 
ATOM     25  C   UNL     1      49.111   3.007  17.318  0.00  0.00    +0.000 A 
ATOM     26  N   UNL     1      49.773   1.842  17.093  0.00  0.00    +0.000 NA
ATOM     27  C   UNL     1      51.054   1.929  17.208  0.00  0.00    +0.000 A 
ATOM     28  N   UNL     1      51.729   3.068  17.571  0.00  0.00    +0.000 N 
ATOM     29  C   UNL     1      51.093   4.231  17.944  0.00  0.00    +0.000 A 
ATOM     30  O   UNL     1      51.704   5.138  18.493  0.00  0.00    +0.000 OA
ATOM     31  C   UNL     1      49.661   4.218  17.701  0.00  0.00    +0.000 A 
ATOM     32  H   UNL     1      52.728   3.051  17.714  0.00  0.00    +0.000 HD
ENDBRANCH  20  22
ENDBRANCH   1  19
TORSDOF 7
ENDMDL
MODEL 7
REMARK VINA RESULT:    -6.081      3.335      4.593
REMARK INTER + INTRA:          -9.714
REMARK INTER:                  -8.091
REMARK INTRA:                  -1.623
REMARK UNBOUND:                -1.145
REMARK  Name = 
REMARK  8 active torsions:
REMARK  status: ('A' for Active; 'I' for Inactive)
REMARK    1  A    between atoms: C_1  and  N_2
REMARK    2  A    between atoms: N_2  and  C_3
REMARK    3  A    between atoms: C_3  and  C_4
REMARK    4  A    between atoms: C_7  and  C_8
REMARK    5  A    between atoms: C_8  and  N_9
REMARK    6  A    between atoms: N_9  and  C_10
REMARK    7  A    between atoms: C_10  and  C_11
REMARK    8  A    between atoms: C_18  and  C_20
REMARK                            x       y       z     vdW  Elec       q    Type
REMARK                         _______ _______ _______ _____ _____    ______ ____
ROOT
ATOM      1  C   UNL     1      48.427   9.395  14.865  0.00  0.00    +0.000 C 
ENDROOT
BRANCH   1   2
ATOM      2  C   UNL     1      48.498   8.790  16.243  0.00  0.00    +0.000 A 
ATOM      3  C   UNL     1      47.865   9.426  17.317  0.00  0.00    +0.000 A 
ATOM      4  C   UNL     1      47.872   8.844  18.582  0.00  0.00    +0.000 A 
ATOM      5  C   UNL     1      48.487   7.602  18.797  0.00  0.00    +0.000 A 
ATOM      6  C   UNL     1      49.158   6.989  17.728  0.00  0.00    +0.000 A 
ATOM      7  C   UNL     1      49.165   7.580  16.461  0.00  0.00    +0.000 A 
BRANCH   5   8
ATOM      8  C   UNL     1      48.466   6.946  20.162  0.00  0.00    +0.000 C 
BRANCH   8   9
ATOM      9  N   UNL     1      47.712   5.695  20.126  0.00  0.00    +0.000 NA
ATOM     10  H   UNL     1      47.225   5.635  19.230  0.00  0.00    +0.000 HD
BRANCH   9  11
ATOM     11  C   UNL     1      48.565   4.513  20.256  0.00  0.00    +0.000 C 
BRANCH  11  12
ATOM     12  C   UNL     1      48.233   3.543  19.111  0.00  0.00    +0.000 C 
ATOM     13  C   UNL     1      49.341   3.418  18.080  0.00  0.00    +0.000 C 
ATOM     14  C   UNL     1      48.620   2.765  16.914  0.00  0.00    +0.000 C 
ATOM     15  C   UNL     1      47.178   3.242  17.031  0.00  0.00    +0.000 C 
ATOM     16  N   UNL     1      47.090   3.984  18.291  0.00  0.00    +0.000 NA
ATOM     17  H   UNL     1      46.220   3.765  18.775  0.00  0.00    +0.000 HD
ENDBRANCH  11  12
ENDBRANCH   9  11
ENDBRANCH   8   9
ENDBRANCH   5   8
ENDBRANCH   1   2
BRANCH   1  19
ATOM     18  C   UNL     1      50.723   8.941  13.914  0.00  0.00    +0.000 C 
ATOM     19  N   UNL     1      49.273   8.819  13.819  0.00  0.00    +0.000 N 
ATOM     20  C   UNL     1      48.782   7.926  12.849  0.00  0.00    +0.000 C 
ATOM     21  O   UNL     1      49.540   7.294  12.118  0.00  0.00    +0.000 OA
BRANCH  20  22
ATOM     22  C   UNL     1      47.328   7.779  12.680  0.00  0.00    +0.000 A 
ATOM     23  C   UNL     1      46.520   8.681  12.008  0.00  0.00    +0.000 A 
ATOM     24  S   UNL     1      44.886   8.197  11.912  0.00  0.00    +0.000 S 
ATOM     25  C   UNL     1      45.234   6.696  12.635  0.00  0.00    +0.000 A 
ATOM     26  N   UNL     1      44.279   5.738  12.759  0.00  0.00    +0.000 NA
ATOM     27  C   UNL     1      44.703   4.629  13.262  0.00  0.00    +0.000 A 
ATOM     28  N   UNL     1      45.988   4.408  13.692  0.00  0.00    +0.000 N 
ATOM     29  C   UNL     1      46.951   5.391  13.716  0.00  0.00    +0.000 A 
ATOM     30  O   UNL     1      48.001   5.235  14.326  0.00  0.00    +0.000 OA
ATOM     31  C   UNL     1      46.556   6.613  13.038  0.00  0.00    +0.000 A 
ATOM     32  H   UNL     1      46.238   3.540  14.143  0.00  0.00    +0.000 HD
ENDBRANCH  20  22
ENDBRANCH   1  19
TORSDOF 7
ENDMDL
MODEL 8
REMARK VINA RESULT:    -5.919      3.616      8.285
REMARK INTER + INTRA:          -9.486
REMARK INTER:                  -8.206
REMARK INTRA:                  -1.280
REMARK UNBOUND:                -1.145
REMARK  Name = 
REMARK  8 active torsions:
REMARK  status: ('A' for Active; 'I' for Inactive)
REMARK    1  A    between atoms: C_1  and  N_2
REMARK    2  A    between atoms: N_2  and  C_3
REMARK    3  A    between atoms: C_3  and  C_4
REMARK    4  A    between atoms: C_7  and  C_8
REMARK    5  A    between atoms: C_8  and  N_9
REMARK    6  A    between atoms: N_9  and  C_10
REMARK    7  A    between atoms: C_10  and  C_11
REMARK    8  A    between atoms: C_18  and  C_20
REMARK                            x       y       z     vdW  Elec       q    Type
REMARK                         _______ _______ _______ _____ _____    ______ ____
ROOT
ATOM      1  C   UNL     1      49.558   8.353  17.739  0.00  0.00    +0.000 C 
ENDROOT
BRANCH   1   2
ATOM      2  C   UNL     1      49.133   8.201  16.302  0.00  0.00    +0.000 A 
ATOM      3  C   UNL     1      49.656   7.159  15.526  0.00  0.00    +0.000 A 
ATOM      4  C   UNL     1      49.224   6.973  14.216  0.00  0.00    +0.000 A 
ATOM      5  C   UNL     1      48.241   7.803  13.659  0.00  0.00    +0.000 A 
ATOM      6  C   UNL     1      47.751   8.872  14.424  0.00  0.00    +0.000 A 
ATOM      7  C   UNL     1      48.195   9.070  15.735  0.00  0.00    +0.000 A 
BRANCH   5   8
ATOM      8  C   UNL     1      47.741   7.581  12.247  0.00  0.00    +0.000 C 
BRANCH   8   9
ATOM      9  N   UNL     1      46.379   7.050  12.255  0.00  0.00    +0.000 NA
ATOM     10  H   UNL     1      46.092   6.875  11.291  0.00  0.00    +0.000 HD
BRANCH   9  11
ATOM     11  C   UNL     1      46.264   5.793  12.995  0.00  0.00    +0.000 C 
BRANCH  11  12
ATOM     12  C   UNL     1      44.934   5.123  12.617  0.00  0.00    +0.000 C 
ATOM     13  C   UNL     1      44.694   5.051  11.119  0.00  0.00    +0.000 C 
ATOM     14  C   UNL     1      43.208   4.747  11.046  0.00  0.00    +0.000 C 
ATOM     15  C   UNL     1      42.619   5.388  12.297  0.00  0.00    +0.000 C 
ATOM     16  N   UNL     1      43.754   5.872  13.087  0.00  0.00    +0.000 NA
ATOM     17  H   UNL     1      43.605   5.685  14.078  0.00  0.00    +0.000 HD
ENDBRANCH  11  12
ENDBRANCH   9  11
ENDBRANCH   8   9
ENDBRANCH   5   8
ENDBRANCH   1   2
BRANCH   1  19
ATOM     18  C   UNL     1      47.596   8.827  19.259  0.00  0.00    +0.000 C 
ATOM     19  N   UNL     1      48.626   7.913  18.779  0.00  0.00    +0.000 N 
ATOM     20  C   UNL     1      48.500   6.568  19.168  0.00  0.00    +0.000 C 
ATOM     21  O   UNL     1      47.574   6.192  19.883  0.00  0.00    +0.000 OA
BRANCH  20  22
ATOM     22  C   UNL     1      49.523   5.599  18.744  0.00  0.00    +0.000 A 
ATOM     23  C   UNL     1      50.810   5.542  19.252  0.00  0.00    +0.000 A 
ATOM     24  S   UNL     1      51.740   4.258  18.618  0.00  0.00    +0.000 S 
ATOM     25  C   UNL     1      50.406   3.650  17.755  0.00  0.00    +0.000 A 
ATOM     26  N   UNL     1      50.489   2.481  17.069  0.00  0.00    +0.000 NA
ATOM     27  C   UNL     1      49.382   2.107  16.522  0.00  0.00    +0.000 A 
ATOM     28  N   UNL     1      48.211   2.822  16.564  0.00  0.00    +0.000 N 
ATOM     29  C   UNL     1      48.116   4.075  17.127  0.00  0.00    +0.000 A 
ATOM     30  O   UNL     1      47.137   4.783  16.934  0.00  0.00    +0.000 OA
ATOM     31  C   UNL     1      49.300   4.474  17.868  0.00  0.00    +0.000 A 
ATOM     32  H   UNL     1      47.399   2.510  16.053  0.00  0.00    +0.000 HD
ENDBRANCH  20  22
ENDBRANCH   1  19
TORSDOF 7
ENDMDL
MODEL 9
REMARK VINA RESULT:    -5.906      3.916      8.820
REMARK INTER + INTRA:          -9.468
REMARK INTER:                  -8.247
REMARK INTRA:                  -1.221
REMARK UNBOUND:                -1.145
REMARK  Name = 
REMARK  8 active torsions:
REMARK  status: ('A' for Active; 'I' for Inactive)
REMARK    1  A    between atoms: C_1  and  N_2
REMARK    2  A    between atoms: N_2  and  C_3
REMARK    3  A    between atoms: C_3  and  C_4
REMARK    4  A    between atoms: C_7  and  C_8
REMARK    5  A    between atoms: C_8  and  N_9
REMARK    6  A    between atoms: N_9  and  C_10
REMARK    7  A    between atoms: C_10  and  C_11
REMARK    8  A    between atoms: C_18  and  C_20
REMARK                            x       y       z     vdW  Elec       q    Type
REMARK                         _______ _______ _______ _____ _____    ______ ____
ROOT
ATOM      1  C   UNL     1      48.618   5.186  16.001  0.00  0.00    +0.000 C 
ENDROOT
BRANCH   1   2
ATOM      2  C   UNL     1      47.671   5.454  14.861  0.00  0.00    +0.000 A 
ATOM      3  C   UNL     1      46.683   4.515  14.539  0.00  0.00    +0.000 A 
ATOM      4  C   UNL     1      45.764   4.780  13.528  0.00  0.00    +0.000 A 
ATOM      5  C   UNL     1      45.792   5.999  12.834  0.00  0.00    +0.000 A 
ATOM      6  C   UNL     1      46.809   6.918  13.129  0.00  0.00    +0.000 A 
ATOM      7  C   UNL     1      47.742   6.648  14.134  0.00  0.00    +0.000 A 
BRANCH   5   8
ATOM      8  C   UNL     1      44.771   6.307  11.758  0.00  0.00    +0.000 C 
BRANCH   8   9
ATOM      9  N   UNL     1      45.100   5.612  10.516  0.00  0.00    +0.000 NA
ATOM     10  H   UNL     1      45.927   5.034  10.675  0.00  0.00    +0.000 HD
BRANCH   9  11
ATOM     11  C   UNL     1      44.021   4.738  10.051  0.00  0.00    +0.000 C 
BRANCH  11  12
ATOM     12  C   UNL     1      44.547   3.896   8.877  0.00  0.00    +0.000 C 
ATOM     13  C   UNL     1      45.261   2.628   9.310  0.00  0.00    +0.000 C 
ATOM     14  C   UNL     1      46.002   2.231   8.045  0.00  0.00    +0.000 C 
ATOM     15  C   UNL     1      46.282   3.546   7.329  0.00  0.00    +0.000 C 
ATOM     16  N   UNL     1      45.584   4.586   8.088  0.00  0.00    +0.000 NA
ATOM     17  H   UNL     1      45.143   5.254   7.456  0.00  0.00    +0.000 HD
ENDBRANCH  11  12
ENDBRANCH   9  11
ENDBRANCH   8   9
ENDBRANCH   5   8
ENDBRANCH   1   2
BRANCH   1  19
ATOM     18  C   UNL     1      47.295   5.091  18.152  0.00  0.00    +0.000 C 
ATOM     19  N   UNL     1      48.290   5.749  17.312  0.00  0.00    +0.000 N 
ATOM     20  C   UNL     1      49.063   6.751  17.925  0.00  0.00    +0.000 C 
ATOM     21  O   UNL     1      48.897   7.057  19.103  0.00  0.00    +0.000 OA
BRANCH  20  22
ATOM     22  C   UNL     1      50.063   7.476  17.125  0.00  0.00    +0.000 A 
ATOM     23  C   UNL     1      51.337   7.010  16.851  0.00  0.00    +0.000 A 
ATOM     24  S   UNL     1      52.239   8.041  15.832  0.00  0.00    +0.000 S 
ATOM     25  C   UNL     1      50.903   9.071  15.606  0.00  0.00    +0.000 A 
ATOM     26  N   UNL     1      50.963  10.118  14.743  0.00  0.00    +0.000 NA
ATOM     27  C   UNL     1      49.855  10.768  14.621  0.00  0.00    +0.000 A 
ATOM     28  N   UNL     1      48.706  10.489  15.319  0.00  0.00    +0.000 N 
ATOM     29  C   UNL     1      48.640   9.530  16.304  0.00  0.00    +0.000 A 
ATOM     30  O   UNL     1      47.687   9.473  17.069  0.00  0.00    +0.000 OA
ATOM     31  C   UNL     1      49.822   8.688  16.380  0.00  0.00    +0.000 A 
ATOM     32  H   UNL     1      47.895  11.082  15.231  0.00  0.00    +0.000 HD
ENDBRANCH  20  22
ENDBRANCH   1  19
TORSDOF 7
ENDMDL
