MODEL 1
REMARK VINA RESULT:    -7.693      0.000      0.000
REMARK INTER + INTRA:         -13.708
REMARK INTER:                 -12.416
REMARK INTRA:                  -1.292
REMARK UNBOUND:                -1.292
REMARK  Name = 
REMARK  11 active torsions:
REMARK  status: ('A' for Active; 'I' for Inactive)
REMARK    1  A    between atoms: N_1  and  C_2
REMARK    2  A    between atoms: C_2  and  C_3
REMARK    3  A    between atoms: C_3  and  C_4
REMARK    4  A    between atoms: C_4  and  C_5
REMARK    5  A    between atoms: C_5  and  C_6
REMARK    6  A    between atoms: C_6  and  O_7
REMARK    7  A    between atoms: O_7  and  C_8
REMARK    8  A    between atoms: C_11  and  C_12
REMARK    9  A    between atoms: C_12  and  O_13
REMARK   10  A    between atoms: O_13  and  C_14
REMARK   11  A    between atoms: C_17  and  C_18
REMARK                            x       y       z     vdW  Elec       q    Type
REMARK                         _______ _______ _______ _____ _____    ______ ____
ROOT
ATOM      1  C   UNL     1      47.163   5.359  13.532  0.00  0.00    +0.000 A 
ATOM      2  C   UNL     1      46.555   6.340  12.751  0.00  0.00    +0.000 A 
ATOM      3  C   UNL     1      45.396   6.057  12.025  0.00  0.00    +0.000 A 
ATOM      4  C   UNL     1      44.822   4.778  12.074  0.00  0.00    +0.000 A 
ATOM      5  C   UNL     1      45.448   3.790  12.839  0.00  0.00    +0.000 A 
ATOM      6  C   UNL     1      46.602   4.082  13.574  0.00  0.00    +0.000 A 
ENDROOT
BRANCH   1   7
ATOM      7  O   UNL     1      48.303   5.531  14.273  0.00  0.00    +0.000 OA
BRANCH   7   8
ATOM      8  C   UNL     1      48.137   6.212  15.517  0.00  0.00    +0.000 C 
BRANCH   8   9
ATOM      9  C   UNL     1      48.564   5.278  16.641  0.00  0.00    +0.000 C 
BRANCH   9  10
ATOM     10  C   UNL     1      47.366   4.524  17.212  0.00  0.00    +0.000 C 
BRANCH  10  11
ATOM     11  C   UNL     1      47.596   3.012  17.192  0.00  0.00    +0.000 C 
BRANCH  11  12
ATOM     12  C   UNL     1      49.089   2.687  17.189  0.00  0.00    +0.000 C 
BRANCH  12  13
ATOM     13  N   UNL     1      49.412   1.807  16.073  0.00  0.00    +0.000 NA
ATOM     14  H   UNL     1      48.862   0.952  16.145  0.00  0.00    +0.000 HD
ATOM     15  H   UNL     1      50.389   1.525  16.129  0.00  0.00    +0.000 HD
ENDBRANCH  12  13
ENDBRANCH  11  12
ENDBRANCH  10  11
ENDBRANCH   9  10
ENDBRANCH   8   9
ENDBRANCH   7   8
ENDBRANCH   1   7
BRANCH   4  16
ATOM     16  C   UNL     1      43.544   4.470  11.329  0.00  0.00    +0.000 C 
BRANCH  16  17
ATOM     17  O   UNL     1      43.730   4.697   9.935  0.00  0.00    +0.000 OA
BRANCH  17  18
ATOM     18  C   UNL     1      44.567   3.839   9.270  0.00  0.00    +0.000 A 
ATOM     19  C   UNL     1      44.567   2.446   9.361  0.00  0.00    +0.000 A 
ATOM     20  C   UNL     1      45.481   1.693   8.608  0.00  0.00    +0.000 A 
ATOM     21  C   UNL     1      46.392   2.319   7.747  0.00  0.00    +0.000 A 
ATOM     22  C   UNL     1      46.378   3.712   7.640  0.00  0.00    +0.000 A 
ATOM     23  C   UNL     1      45.479   4.462   8.410  0.00  0.00    +0.000 A 
BRANCH  21  24
ATOM     24  C   UNL     1      47.365   1.464   7.013  0.00  0.00    +0.000 C 
ATOM     25  N   UNL     1      48.350   2.087   6.288  0.00  0.00    +0.000 N 
ATOM     26  O   UNL     1      47.289   0.249   7.037  0.00  0.00    +0.000 OA
ATOM     27  H   UNL     1      48.468   3.083   6.208  0.00  0.00    +0.000 HD
ATOM     28  H   UNL     1      49.004   1.482   5.805  0.00  0.00    +0.000 HD
ENDBRANCH  21  24
ENDBRANCH  17  18
ENDBRANCH  16  17
ENDBRANCH   4  16
TORSDOF 11
ENDMDL
MODEL 2
REMARK VINA RESULT:    -7.437      0.620      1.499
REMARK INTER + INTRA:         -13.295
REMARK INTER:                 -12.025
REMARK INTRA:                  -1.270
REMARK UNBOUND:                -1.292
REMARK  Name = 
REMARK  11 active torsions:
REMARK  status: ('A' for Active; 'I' for Inactive)
REMARK    1  A    between atoms: N_1  and  C_2
REMARK    2  A    between atoms: C_2  and  C_3
REMARK    3  A    between atoms: C_3  and  C_4
REMARK    4  A    between atoms: C_4  and  C_5
REMARK    5  A    between atoms: C_5  and  C_6
REMARK    6  A    between atoms: C_6  and  O_7
REMARK    7  A    between atoms: O_7  and  C_8
REMARK    8  A    between atoms: C_11  and  C_12
REMARK    9  A    between atoms: C_12  and  O_13
REMARK   10  A    between atoms: O_13  and  C_14
REMARK   11  A    between atoms: C_17  and  C_18
REMARK                            x       y       z     vdW  Elec       q    Type
REMARK                         _______ _______ _______ _____ _____    ______ ____
ROOT
ATOM      1  C   UNL     1      47.120   5.153  13.432  0.00  0.00    +0.000 A 
ATOM      2  C   UNL     1      46.954   3.769  13.443  0.00  0.00    +0.000 A 
ATOM      3  C   UNL     1      45.828   3.182  12.860  0.00  0.00    +0.000 A 
ATOM      4  C   UNL     1      44.848   3.977  12.250  0.00  0.00    +0.000 A 
ATOM      5  C   UNL     1      45.006   5.366  12.262  0.00  0.00    +0.000 A 
ATOM      6  C   UNL     1      46.141   5.949  12.836  0.00  0.00    +0.000 A 
ENDROOT
BRANCH   1   7
ATOM      7  O   UNL     1      48.180   5.826  13.981  0.00  0.00    +0.000 OA
BRANCH   7   8
ATOM      8  C   UNL     1      47.970   6.349  15.294  0.00  0.00    +0.000 C 
BRANCH   8   9
ATOM      9  C   UNL     1      48.648   5.426  16.296  0.00  0.00    +0.000 C 
BRANCH   9  10
ATOM     10  C   UNL     1      47.619   4.722  17.177  0.00  0.00    +0.000 C 
BRANCH  10  11
ATOM     11  C   UNL     1      47.634   3.209  16.952  0.00  0.00    +0.000 C 
BRANCH  11  12
ATOM     12  C   UNL     1      49.035   2.638  17.166  0.00  0.00    +0.000 C 
BRANCH  12  13
ATOM     13  N   UNL     1      49.414   1.795  16.039  0.00  0.00    +0.000 NA
ATOM     14  H   UNL     1      49.184   2.270  15.167  0.00  0.00    +0.000 HD
ATOM     15  H   UNL     1      48.863   0.938  16.052  0.00  0.00    +0.000 HD
ENDBRANCH  12  13
ENDBRANCH  11  12
ENDBRANCH  10  11
ENDBRANCH   9  10
ENDBRANCH   8   9
ENDBRANCH   7   8
ENDBRANCH   1   7
BRANCH   4  16
ATOM     16  C   UNL     1      43.647   3.353  11.577  0.00  0.00    +0.000 C 
BRANCH  16  17
ATOM     17  O   UNL     1      43.517   3.859  10.252  0.00  0.00    +0.000 OA
BRANCH  17  18
ATOM     18  C   UNL     1      44.509   3.535   9.362  0.00  0.00    +0.000 A 
ATOM     19  C   UNL     1      45.259   4.428   8.596  0.00  0.00    +0.000 A 
ATOM     20  C   UNL     1      46.254   3.948   7.731  0.00  0.00    +0.000 A 
ATOM     21  C   UNL     1      46.522   2.577   7.633  0.00  0.00    +0.000 A 
ATOM     22  C   UNL     1      45.786   1.683   8.416  0.00  0.00    +0.000 A 
ATOM     23  C   UNL     1      44.777   2.164   9.261  0.00  0.00    +0.000 A 
BRANCH  21  24
ATOM     24  C   UNL     1      47.559   2.132   6.662  0.00  0.00    +0.000 C 
ATOM     25  N   UNL     1      47.834   2.949   5.595  0.00  0.00    +0.000 N 
ATOM     26  O   UNL     1      48.141   1.070   6.794  0.00  0.00    +0.000 OA
ATOM     27  H   UNL     1      47.386   3.832   5.411  0.00  0.00    +0.000 HD
ATOM     28  H   UNL     1      48.550   2.627   4.954  0.00  0.00    +0.000 HD
ENDBRANCH  21  24
ENDBRANCH  17  18
ENDBRANCH  16  17
ENDBRANCH   4  16
TORSDOF 11
ENDMDL
MODEL 3
REMARK VINA RESULT:    -7.120      2.777      4.000
REMARK INTER + INTRA:         -12.783
REMARK INTER:                 -11.211
REMARK INTRA:                  -1.572
REMARK UNBOUND:                -1.292
REMARK  Name = 
REMARK  11 active torsions:
REMARK  status: ('A' for Active; 'I' for Inactive)
REMARK    1  A    between atoms: N_1  and  C_2
REMARK    2  A    between atoms: C_2  and  C_3
REMARK    3  A    between atoms: C_3  and  C_4
REMARK    4  A    between atoms: C_4  and  C_5
REMARK    5  A    between atoms: C_5  and  C_6
REMARK    6  A    between atoms: C_6  and  O_7
REMARK    7  A    between atoms: O_7  and  C_8
REMARK    8  A    between atoms: C_11  and  C_12
REMARK    9  A    between atoms: C_12  and  O_13
REMARK   10  A    between atoms: O_13  and  C_14
REMARK   11  A    between atoms: C_17  and  C_18
REMARK                            x       y       z     vdW  Elec       q    Type
REMARK                         _______ _______ _______ _____ _____    ______ ____
ROOT
ATOM      1  C   UNL     1      46.455   6.359  13.207  0.00  0.00    +0.000 A 
ATOM      2  C   UNL     1      45.256   6.717  12.594  0.00  0.00    +0.000 A 
ATOM      3  C   UNL     1      44.388   5.739  12.101  0.00  0.00    +0.000 A 
ATOM      4  C   UNL     1      44.709   4.379  12.220  0.00  0.00    +0.000 A 
ATOM      5  C   UNL     1      45.924   4.025  12.814  0.00  0.00    +0.000 A 
ATOM      6  C   UNL     1      46.784   5.007  13.318  0.00  0.00    +0.000 A 
ENDROOT
BRANCH   1   7
ATOM      7  O   UNL     1      47.377   7.237  13.715  0.00  0.00    +0.000 OA
BRANCH   7   8
ATOM      8  C   UNL     1      48.730   7.019  13.312  0.00  0.00    +0.000 C 
BRANCH   8   9
ATOM      9  C   UNL     1      48.898   7.525  11.887  0.00  0.00    +0.000 C 
BRANCH   9  10
ATOM     10  C   UNL     1      49.618   8.871  11.864  0.00  0.00    +0.000 C 
BRANCH  10  11
ATOM     11  C   UNL     1      48.681   9.998  11.429  0.00  0.00    +0.000 C 
BRANCH  11  12
ATOM     12  C   UNL     1      48.022  10.658  12.639  0.00  0.00    +0.000 C 
BRANCH  12  13
ATOM     13  N   UNL     1      46.681  10.122  12.838  0.00  0.00    +0.000 NA
ATOM     14  H   UNL     1      46.020  10.638  12.258  0.00  0.00    +0.000 HD
ATOM     15  H   UNL     1      46.392  10.271  13.804  0.00  0.00    +0.000 HD
ENDBRANCH  12  13
ENDBRANCH  11  12
ENDBRANCH  10  11
ENDBRANCH   9  10
ENDBRANCH   8   9
ENDBRANCH   7   8
ENDBRANCH   1   7
BRANCH   4  16
ATOM     16  C   UNL     1      43.760   3.310  11.730  0.00  0.00    +0.000 C 
BRANCH  16  17
ATOM     17  O   UNL     1      43.432   3.542  10.364  0.00  0.00    +0.000 OA
BRANCH  17  18
ATOM     18  C   UNL     1      44.426   3.339   9.442  0.00  0.00    +0.000 A 
ATOM     19  C   UNL     1      45.081   4.324   8.700  0.00  0.00    +0.000 A 
ATOM     20  C   UNL     1      46.093   3.965   7.795  0.00  0.00    +0.000 A 
ATOM     21  C   UNL     1      46.472   2.626   7.634  0.00  0.00    +0.000 A 
ATOM     22  C   UNL     1      45.831   1.642   8.392  0.00  0.00    +0.000 A 
ATOM     23  C   UNL     1      44.806   2.002   9.277  0.00  0.00    +0.000 A 
BRANCH  21  24
ATOM     24  C   UNL     1      47.520   2.310   6.625  0.00  0.00    +0.000 C 
ATOM     25  N   UNL     1      47.533   3.038   5.462  0.00  0.00    +0.000 N 
ATOM     26  O   UNL     1      48.336   1.425   6.810  0.00  0.00    +0.000 OA
ATOM     27  H   UNL     1      46.885   3.773   5.232  0.00  0.00    +0.000 HD
ATOM     28  H   UNL     1      48.262   2.810   4.796  0.00  0.00    +0.000 HD
ENDBRANCH  21  24
ENDBRANCH  17  18
ENDBRANCH  16  17
ENDBRANCH   4  16
TORSDOF 11
ENDMDL
MODEL 4
REMARK VINA RESULT:    -7.020      1.494      2.182
REMARK INTER + INTRA:         -12.621
REMARK INTER:                 -11.323
REMARK INTRA:                  -1.299
REMARK UNBOUND:                -1.292
REMARK  Name = 
REMARK  11 active torsions:
REMARK  status: ('A' for Active; 'I' for Inactive)
REMARK    1  A    between atoms: N_1  and  C_2
REMARK    2  A    between atoms: C_2  and  C_3
REMARK    3  A    between atoms: C_3  and  C_4
REMARK    4  A    between atoms: C_4  and  C_5
REMARK    5  A    between atoms: C_5  and  C_6
REMARK    6  A    between atoms: C_6  and  O_7
REMARK    7  A    between atoms: O_7  and  C_8
REMARK    8  A    between atoms: C_11  and  C_12
REMARK    9  A    between atoms: C_12  and  O_13
REMARK   10  A    between atoms: O_13  and  C_14
REMARK   11  A    between atoms: C_17  and  C_18
REMARK                            x       y       z     vdW  Elec       q    Type
REMARK                         _______ _______ _______ _____ _____    ______ ____
ROOT
ATOM      1  C   UNL     1      46.779   5.171  13.781  0.00  0.00    +0.000 A 
ATOM      2  C   UNL     1      45.590   4.447  13.844  0.00  0.00    +0.000 A 
ATOM      3  C   UNL     1      44.625   4.573  12.841  0.00  0.00    +0.000 A 
ATOM      4  C   UNL     1      44.841   5.428  11.751  0.00  0.00    +0.000 A 
ATOM      5  C   UNL     1      46.024   6.170  11.703  0.00  0.00    +0.000 A 
ATOM      6  C   UNL     1      46.993   6.032  12.703  0.00  0.00    +0.000 A 
ENDROOT
BRANCH   1   7
ATOM      7  O   UNL     1      47.783   5.127  14.713  0.00  0.00    +0.000 OA
BRANCH   7   8
ATOM      8  C   UNL     1      47.473   4.439  15.926  0.00  0.00    +0.000 C 
BRANCH   8   9
ATOM      9  C   UNL     1      48.553   4.754  16.950  0.00  0.00    +0.000 C 
BRANCH   9  10
ATOM     10  C   UNL     1      48.891   6.242  16.952  0.00  0.00    +0.000 C 
BRANCH  10  11
ATOM     11  C   UNL     1      50.372   6.480  16.654  0.00  0.00    +0.000 C 
BRANCH  11  12
ATOM     12  C   UNL     1      50.547   7.534  15.562  0.00  0.00    +0.000 C 
BRANCH  12  13
ATOM     13  N   UNL     1      50.068   7.022  14.285  0.00  0.00    +0.000 NA
ATOM     14  H   UNL     1      50.651   7.388  13.533  0.00  0.00    +0.000 HD
ATOM     15  H   UNL     1      49.125   7.364  14.109  0.00  0.00    +0.000 HD
ENDBRANCH  12  13
ENDBRANCH  11  12
ENDBRANCH  10  11
ENDBRANCH   9  10
ENDBRANCH   8   9
ENDBRANCH   7   8
ENDBRANCH   1   7
BRANCH   4  16
ATOM     16  C   UNL     1      43.825   5.540  10.637  0.00  0.00    +0.000 C 
BRANCH  16  17
ATOM     17  O   UNL     1      43.460   4.241  10.182  0.00  0.00    +0.000 OA
BRANCH  17  18
ATOM     18  C   UNL     1      44.390   3.555   9.444  0.00  0.00    +0.000 A 
ATOM     19  C   UNL     1      44.646   2.184   9.502  0.00  0.00    +0.000 A 
ATOM     20  C   UNL     1      45.627   1.617   8.673  0.00  0.00    +0.000 A 
ATOM     21  C   UNL     1      46.350   2.407   7.770  0.00  0.00    +0.000 A 
ATOM     22  C   UNL     1      46.079   3.776   7.697  0.00  0.00    +0.000 A 
ATOM     23  C   UNL     1      45.115   4.343   8.542  0.00  0.00    +0.000 A 
BRANCH  21  24
ATOM     24  C   UNL     1      47.408   1.750   6.954  0.00  0.00    +0.000 C 
ATOM     25  N   UNL     1      48.463   2.518   6.531  0.00  0.00    +0.000 N 
ATOM     26  O   UNL     1      47.340   0.572   6.654  0.00  0.00    +0.000 OA
ATOM     27  H   UNL     1      48.581   3.498   6.725  0.00  0.00    +0.000 HD
ATOM     28  H   UNL     1      49.173   2.044   5.985  0.00  0.00    +0.000 HD
ENDBRANCH  21  24
ENDBRANCH  17  18
ENDBRANCH  16  17
ENDBRANCH   4  16
TORSDOF 11
ENDMDL
MODEL 5
REMARK VINA RESULT:    -6.949      2.485      3.510
REMARK INTER + INTRA:         -12.507
REMARK INTER:                 -11.243
REMARK INTRA:                  -1.264
REMARK UNBOUND:                -1.292
REMARK  Name = 
REMARK  11 active torsions:
REMARK  status: ('A' for Active; 'I' for Inactive)
REMARK    1  A    between atoms: N_1  and  C_2
REMARK    2  A    between atoms: C_2  and  C_3
REMARK    3  A    between atoms: C_3  and  C_4
REMARK    4  A    between atoms: C_4  and  C_5
REMARK    5  A    between atoms: C_5  and  C_6
REMARK    6  A    between atoms: C_6  and  O_7
REMARK    7  A    between atoms: O_7  and  C_8
REMARK    8  A    between atoms: C_11  and  C_12
REMARK    9  A    between atoms: C_12  and  O_13
REMARK   10  A    between atoms: O_13  and  C_14
REMARK   11  A    between atoms: C_17  and  C_18
REMARK                            x       y       z     vdW  Elec       q    Type
REMARK                         _______ _______ _______ _____ _____    ______ ____
ROOT
ATOM      1  C   UNL     1      46.409   5.908  13.287  0.00  0.00    +0.000 A 
ATOM      2  C   UNL     1      46.624   4.538  13.426  0.00  0.00    +0.000 A 
ATOM      3  C   UNL     1      45.724   3.617  12.884  0.00  0.00    +0.000 A 
ATOM      4  C   UNL     1      44.590   4.058  12.186  0.00  0.00    +0.000 A 
ATOM      5  C   UNL     1      44.365   5.433  12.069  0.00  0.00    +0.000 A 
ATOM      6  C   UNL     1      45.276   6.352  12.602  0.00  0.00    +0.000 A 
ENDROOT
BRANCH   1   7
ATOM      7  O   UNL     1      47.223   6.891  13.785  0.00  0.00    +0.000 OA
BRANCH   7   8
ATOM      8  C   UNL     1      46.966   8.212  13.306  0.00  0.00    +0.000 C 
BRANCH   8   9
ATOM      9  C   UNL     1      48.242   8.756  12.680  0.00  0.00    +0.000 C 
BRANCH   9  10
ATOM     10  C   UNL     1      48.702   7.877  11.520  0.00  0.00    +0.000 C 
BRANCH  10  11
ATOM     11  C   UNL     1      50.208   7.616  11.581  0.00  0.00    +0.000 C 
BRANCH  11  12
ATOM     12  C   UNL     1      50.907   8.651  12.461  0.00  0.00    +0.000 C 
BRANCH  12  13
ATOM     13  N   UNL     1      51.731   7.988  13.463  0.00  0.00    +0.000 NA
ATOM     14  H   UNL     1      51.151   7.356  14.015  0.00  0.00    +0.000 HD
ATOM     15  H   UNL     1      52.101   8.678  14.115  0.00  0.00    +0.000 HD
ENDBRANCH  12  13
ENDBRANCH  11  12
ENDBRANCH  10  11
ENDBRANCH   9  10
ENDBRANCH   8   9
ENDBRANCH   7   8
ENDBRANCH   1   7
BRANCH   4  16
ATOM     16  C   UNL     1      43.631   3.073  11.558  0.00  0.00    +0.000 C 
BRANCH  16  17
ATOM     17  O   UNL     1      43.450   3.387  10.180  0.00  0.00    +0.000 OA
BRANCH  17  18
ATOM     18  C   UNL     1      44.469   3.053   9.326  0.00  0.00    +0.000 A 
ATOM     19  C   UNL     1      45.032   1.786   9.164  0.00  0.00    +0.000 A 
ATOM     20  C   UNL     1      46.069   1.591   8.238  0.00  0.00    +0.000 A 
ATOM     21  C   UNL     1      46.542   2.652   7.454  0.00  0.00    +0.000 A 
ATOM     22  C   UNL     1      45.963   3.916   7.601  0.00  0.00    +0.000 A 
ATOM     23  C   UNL     1      44.945   4.112   8.543  0.00  0.00    +0.000 A 
BRANCH  21  24
ATOM     24  C   UNL     1      47.674   2.387   6.525  0.00  0.00    +0.000 C 
ATOM     25  N   UNL     1      47.710   3.078   5.340  0.00  0.00    +0.000 N 
ATOM     26  O   UNL     1      48.540   1.573   6.792  0.00  0.00    +0.000 OA
ATOM     27  H   UNL     1      47.025   3.754   5.043  0.00  0.00    +0.000 HD
ATOM     28  H   UNL     1      48.495   2.886   4.730  0.00  0.00    +0.000 HD
ENDBRANCH  21  24
ENDBRANCH  17  18
ENDBRANCH  16  17
ENDBRANCH   4  16
TORSDOF 11
ENDMDL
MODEL 6
REMARK VINA RESULT:    -6.470      2.000      8.549
REMARK INTER + INTRA:         -11.733
REMARK INTER:                 -10.938
REMARK INTRA:                  -0.795
REMARK UNBOUND:                -1.292
REMARK  Name = 
REMARK  11 active torsions:
REMARK  status: ('A' for Active; 'I' for Inactive)
REMARK    1  A    between atoms: N_1  and  C_2
REMARK    2  A    between atoms: C_2  and  C_3
REMARK    3  A    between atoms: C_3  and  C_4
REMARK    4  A    between atoms: C_4  and  C_5
REMARK    5  A    between atoms: C_5  and  C_6
REMARK    6  A    between atoms: C_6  and  O_7
REMARK    7  A    between atoms: O_7  and  C_8
REMARK    8  A    between atoms: C_11  and  C_12
REMARK    9  A    between atoms: C_12  and  O_13
REMARK   10  A    between atoms: O_13  and  C_14
REMARK   11  A    between atoms: C_17  and  C_18
REMARK                            x       y       z     vdW  Elec       q    Type
REMARK                         _______ _______ _______ _____ _____    ______ ____
ROOT
ATOM      1  C   UNL     1      44.855   4.042  10.664  0.00  0.00    +0.000 A 
ATOM      2  C   UNL     1      45.306   5.355  10.790  0.00  0.00    +0.000 A 
ATOM      3  C   UNL     1      45.928   5.785  11.965  0.00  0.00    +0.000 A 
ATOM      4  C   UNL     1      46.111   4.900  13.037  0.00  0.00    +0.000 A 
ATOM      5  C   UNL     1      45.636   3.590  12.916  0.00  0.00    +0.000 A 
ATOM      6  C   UNL     1      45.026   3.160  11.732  0.00  0.00    +0.000 A 
ENDROOT
BRANCH   1   7
ATOM      7  O   UNL     1      44.228   3.523   9.561  0.00  0.00    +0.000 OA
BRANCH   7   8
ATOM      8  C   UNL     1      44.495   2.147   9.285  0.00  0.00    +0.000 C 
BRANCH   8   9
ATOM      9  C   UNL     1      45.697   2.064   8.357  0.00  0.00    +0.000 C 
BRANCH   9  10
ATOM     10  C   UNL     1      45.752   3.269   7.421  0.00  0.00    +0.000 C 
BRANCH  10  11
ATOM     11  C   UNL     1      47.136   3.422   6.789  0.00  0.00    +0.000 C 
BRANCH  11  12
ATOM     12  C   UNL     1      47.923   2.115   6.873  0.00  0.00    +0.000 C 
BRANCH  12  13
ATOM     13  N   UNL     1      48.487   1.781   5.572  0.00  0.00    +0.000 NA
ATOM     14  H   UNL     1      49.329   1.220   5.701  0.00  0.00    +0.000 HD
ATOM     15  H   UNL     1      48.781   2.633   5.096  0.00  0.00    +0.000 HD
ENDBRANCH  12  13
ENDBRANCH  11  12
ENDBRANCH  10  11
ENDBRANCH   9  10
ENDBRANCH   8   9
ENDBRANCH   7   8
ENDBRANCH   1   7
BRANCH   4  16
ATOM     16  C   UNL     1      46.821   5.339  14.297  0.00  0.00    +0.000 C 
BRANCH  16  17
ATOM     17  O   UNL     1      46.718   4.323  15.289  0.00  0.00    +0.000 OA
BRANCH  17  18
ATOM     18  C   UNL     1      47.797   4.150  16.117  0.00  0.00    +0.000 A 
ATOM     19  C   UNL     1      48.244   2.941  16.653  0.00  0.00    +0.000 A 
ATOM     20  C   UNL     1      49.376   2.915  17.482  0.00  0.00    +0.000 A 
ATOM     21  C   UNL     1      50.082   4.091  17.770  0.00  0.00    +0.000 A 
ATOM     22  C   UNL     1      49.648   5.298  17.217  0.00  0.00    +0.000 A 
ATOM     23  C   UNL     1      48.503   5.322  16.409  0.00  0.00    +0.000 A 
BRANCH  21  24
ATOM     24  C   UNL     1      51.247   4.000  18.693  0.00  0.00    +0.000 C 
ATOM     25  N   UNL     1      51.078   4.427  19.986  0.00  0.00    +0.000 N 
ATOM     26  O   UNL     1      52.325   3.576  18.318  0.00  0.00    +0.000 OA
ATOM     27  H   UNL     1      50.224   4.802  20.365  0.00  0.00    +0.000 HD
ATOM     28  H   UNL     1      51.884   4.346  20.596  0.00  0.00    +0.000 HD
ENDBRANCH  21  24
ENDBRANCH  17  18
ENDBRANCH  16  17
ENDBRANCH   4  16
TORSDOF 11
ENDMDL
MODEL 7
REMARK VINA RESULT:    -6.467      1.645      2.247
REMARK INTER + INTRA:         -11.729
REMARK INTER:                 -10.623
REMARK INTRA:                  -1.105
REMARK UNBOUND:                -1.292
REMARK  Name = 
REMARK  11 active torsions:
REMARK  status: ('A' for Active; 'I' for Inactive)
REMARK    1  A    between atoms: N_1  and  C_2
REMARK    2  A    between atoms: C_2  and  C_3
REMARK    3  A    between atoms: C_3  and  C_4
REMARK    4  A    between atoms: C_4  and  C_5
REMARK    5  A    between atoms: C_5  and  C_6
REMARK    6  A    between atoms: C_6  and  O_7
REMARK    7  A    between atoms: O_7  and  C_8
REMARK    8  A    between atoms: C_11  and  C_12
REMARK    9  A    between atoms: C_12  and  O_13
REMARK   10  A    between atoms: O_13  and  C_14
REMARK   11  A    between atoms: C_17  and  C_18
REMARK                            x       y       z     vdW  Elec       q    Type
REMARK                         _______ _______ _______ _____ _____    ______ ____
ROOT
ATOM      1  C   UNL     1      46.949   7.027  12.723  0.00  0.00    +0.000 A 
ATOM      2  C   UNL     1      46.031   7.671  11.894  0.00  0.00    +0.000 A 
ATOM      3  C   UNL     1      44.946   6.974  11.357  0.00  0.00    +0.000 A 
ATOM      4  C   UNL     1      44.759   5.615  11.647  0.00  0.00    +0.000 A 
ATOM      5  C   UNL     1      45.695   4.967  12.459  0.00  0.00    +0.000 A 
ATOM      6  C   UNL     1      46.773   5.672  13.005  0.00  0.00    +0.000 A 
ENDROOT
BRANCH   1   7
ATOM      7  O   UNL     1      48.048   7.615  13.292  0.00  0.00    +0.000 OA
BRANCH   7   8
ATOM      8  C   UNL     1      47.784   8.503  14.379  0.00  0.00    +0.000 C 
BRANCH   8   9
ATOM      9  C   UNL     1      48.831   8.272  15.459  0.00  0.00    +0.000 C 
BRANCH   9  10
ATOM     10  C   UNL     1      49.370   6.845  15.403  0.00  0.00    +0.000 C 
BRANCH  10  11
ATOM     11  C   UNL     1      50.383   6.587  16.519  0.00  0.00    +0.000 C 
BRANCH  11  12
ATOM     12  C   UNL     1      49.902   5.472  17.447  0.00  0.00    +0.000 C 
BRANCH  12  13
ATOM     13  N   UNL     1      49.204   4.446  16.683  0.00  0.00    +0.000 NA
ATOM     14  H   UNL     1      48.337   4.199  17.158  0.00  0.00    +0.000 HD
ATOM     15  H   UNL     1      49.767   3.597  16.655  0.00  0.00    +0.000 HD
ENDBRANCH  12  13
ENDBRANCH  11  12
ENDBRANCH  10  11
ENDBRANCH   9  10
ENDBRANCH   8   9
ENDBRANCH   7   8
ENDBRANCH   1   7
BRANCH   4  16
ATOM     16  C   UNL     1      43.566   4.861  11.109  0.00  0.00    +0.000 C 
BRANCH  16  17
ATOM     17  O   UNL     1      43.601   4.852   9.684  0.00  0.00    +0.000 OA
BRANCH  17  18
ATOM     18  C   UNL     1      44.488   3.994   9.089  0.00  0.00    +0.000 A 
ATOM     19  C   UNL     1      45.484   4.337   8.172  0.00  0.00    +0.000 A 
ATOM     20  C   UNL     1      46.331   3.346   7.651  0.00  0.00    +0.000 A 
ATOM     21  C   UNL     1      46.203   2.009   8.050  0.00  0.00    +0.000 A 
ATOM     22  C   UNL     1      45.221   1.669   8.984  0.00  0.00    +0.000 A 
ATOM     23  C   UNL     1      44.362   2.657   9.484  0.00  0.00    +0.000 A 
BRANCH  21  24
ATOM     24  C   UNL     1      47.103   1.001   7.424  0.00  0.00    +0.000 C 
ATOM     25  N   UNL     1      46.772  -0.324   7.551  0.00  0.00    +0.000 N 
ATOM     26  O   UNL     1      48.112   1.333   6.828  0.00  0.00    +0.000 OA
ATOM     27  H   UNL     1      45.965  -0.675   8.040  0.00  0.00    +0.000 HD
ATOM     28  H   UNL     1      47.396  -0.988   7.108  0.00  0.00    +0.000 HD
ENDBRANCH  21  24
ENDBRANCH  17  18
ENDBRANCH  16  17
ENDBRANCH   4  16
TORSDOF 11
ENDMDL
MODEL 8
REMARK VINA RESULT:    -6.273      1.969      8.710
REMARK INTER + INTRA:         -11.415
REMARK INTER:                 -10.893
REMARK INTRA:                  -0.522
REMARK UNBOUND:                -1.292
REMARK  Name = 
REMARK  11 active torsions:
REMARK  status: ('A' for Active; 'I' for Inactive)
REMARK    1  A    between atoms: N_1  and  C_2
REMARK    2  A    between atoms: C_2  and  C_3
REMARK    3  A    between atoms: C_3  and  C_4
REMARK    4  A    between atoms: C_4  and  C_5
REMARK    5  A    between atoms: C_5  and  C_6
REMARK    6  A    between atoms: C_6  and  O_7
REMARK    7  A    between atoms: O_7  and  C_8
REMARK    8  A    between atoms: C_11  and  C_12
REMARK    9  A    between atoms: C_12  and  O_13
REMARK   10  A    between atoms: O_13  and  C_14
REMARK   11  A    between atoms: C_17  and  C_18
REMARK                            x       y       z     vdW  Elec       q    Type
REMARK                         _______ _______ _______ _____ _____    ______ ____
ROOT
ATOM      1  C   UNL     1      44.552   3.820  10.995  0.00  0.00    +0.000 A 
ATOM      2  C   UNL     1      44.707   5.188  10.779  0.00  0.00    +0.000 A 
ATOM      3  C   UNL     1      45.489   5.962  11.640  0.00  0.00    +0.000 A 
ATOM      4  C   UNL     1      46.136   5.372  12.735  0.00  0.00    +0.000 A 
ATOM      5  C   UNL     1      45.959   4.003  12.962  0.00  0.00    +0.000 A 
ATOM      6  C   UNL     1      45.185   3.230  12.090  0.00  0.00    +0.000 A 
ENDROOT
BRANCH   1   7
ATOM      7  O   UNL     1      43.803   2.977  10.217  0.00  0.00    +0.000 OA
BRANCH   7   8
ATOM      8  C   UNL     1      44.456   2.459   9.057  0.00  0.00    +0.000 C 
BRANCH   8   9
ATOM      9  C   UNL     1      44.741   3.612   8.107  0.00  0.00    +0.000 C 
BRANCH   9  10
ATOM     10  C   UNL     1      45.990   3.339   7.272  0.00  0.00    +0.000 C 
BRANCH  10  11
ATOM     11  C   UNL     1      46.665   2.032   7.689  0.00  0.00    +0.000 C 
BRANCH  11  12
ATOM     12  C   UNL     1      47.626   1.544   6.605  0.00  0.00    +0.000 C 
BRANCH  12  13
ATOM     13  N   UNL     1      48.652   2.546   6.352  0.00  0.00    +0.000 NA
ATOM     14  H   UNL     1      49.533   2.082   6.132  0.00  0.00    +0.000 HD
ATOM     15  H   UNL     1      48.819   3.089   7.199  0.00  0.00    +0.000 HD
ENDBRANCH  12  13
ENDBRANCH  11  12
ENDBRANCH  10  11
ENDBRANCH   9  10
ENDBRANCH   8   9
ENDBRANCH   7   8
ENDBRANCH   1   7
BRANCH   4  16
ATOM     16  C   UNL     1      47.020   6.187  13.650  0.00  0.00    +0.000 C 
BRANCH  16  17
ATOM     17  O   UNL     1      48.024   5.354  14.223  0.00  0.00    +0.000 OA
BRANCH  17  18
ATOM     18  C   UNL     1      48.020   5.222  15.587  0.00  0.00    +0.000 A 
ATOM     19  C   UNL     1      47.334   4.255  16.323  0.00  0.00    +0.000 A 
ATOM     20  C   UNL     1      47.433   4.236  17.723  0.00  0.00    +0.000 A 
ATOM     21  C   UNL     1      48.228   5.171  18.400  0.00  0.00    +0.000 A 
ATOM     22  C   UNL     1      48.931   6.127  17.662  0.00  0.00    +0.000 A 
ATOM     23  C   UNL     1      48.811   6.156  16.266  0.00  0.00    +0.000 A 
BRANCH  21  24
ATOM     24  C   UNL     1      48.252   5.125  19.888  0.00  0.00    +0.000 C 
ATOM     25  N   UNL     1      48.610   3.945  20.489  0.00  0.00    +0.000 N 
ATOM     26  O   UNL     1      47.950   6.094  20.560  0.00  0.00    +0.000 OA
ATOM     27  H   UNL     1      48.858   3.099  20.003  0.00  0.00    +0.000 HD
ATOM     28  H   UNL     1      48.627   3.942  21.502  0.00  0.00    +0.000 HD
ENDBRANCH  21  24
ENDBRANCH  17  18
ENDBRANCH  16  17
ENDBRANCH   4  16
TORSDOF 11
ENDMDL
MODEL 9
REMARK VINA RESULT:    -6.161      3.174      4.931
REMARK INTER + INTRA:         -11.235
REMARK INTER:                 -10.331
REMARK INTRA:                  -0.903
REMARK UNBOUND:                -1.292
REMARK  Name = 
REMARK  11 active torsions:
REMARK  status: ('A' for Active; 'I' for Inactive)
REMARK    1  A    between atoms: N_1  and  C_2
REMARK    2  A    between atoms: C_2  and  C_3
REMARK    3  A    between atoms: C_3  and  C_4
REMARK    4  A    between atoms: C_4  and  C_5
REMARK    5  A    between atoms: C_5  and  C_6
REMARK    6  A    between atoms: C_6  and  O_7
REMARK    7  A    between atoms: O_7  and  C_8
REMARK    8  A    between atoms: C_11  and  C_12
REMARK    9  A    between atoms: C_12  and  O_13
REMARK   10  A    between atoms: O_13  and  C_14
REMARK   11  A    between atoms: C_17  and  C_18
REMARK                            x       y       z     vdW  Elec       q    Type
REMARK                         _______ _______ _______ _____ _____    ______ ____
ROOT
ATOM      1  C   UNL     1      46.709   6.953  12.422  0.00  0.00    +0.000 A 
ATOM      2  C   UNL     1      45.555   7.198  11.681  0.00  0.00    +0.000 A 
ATOM      3  C   UNL     1      44.637   6.174  11.431  0.00  0.00    +0.000 A 
ATOM      4  C   UNL     1      44.863   4.882  11.927  0.00  0.00    +0.000 A 
ATOM      5  C   UNL     1      46.033   4.634  12.650  0.00  0.00    +0.000 A 
ATOM      6  C   UNL     1      46.943   5.665  12.908  0.00  0.00    +0.000 A 
ENDROOT
BRANCH   1   7
ATOM      7  O   UNL     1      47.673   7.882  12.716  0.00  0.00    +0.000 OA
BRANCH   7   8
ATOM      8  C   UNL     1      47.762   8.988  11.816  0.00  0.00    +0.000 C 
BRANCH   8   9
ATOM      9  C   UNL     1      47.059  10.182  12.446  0.00  0.00    +0.000 C 
BRANCH   9  10
ATOM     10  C   UNL     1      46.270  10.967  11.402  0.00  0.00    +0.000 C 
BRANCH  10  11
ATOM     11  C   UNL     1      44.762  10.813  11.610  0.00  0.00    +0.000 C 
BRANCH  11  12
ATOM     12  C   UNL     1      44.086  10.298  10.341  0.00  0.00    +0.000 C 
BRANCH  12  13
ATOM     13  N   UNL     1      44.307  11.226   9.239  0.00  0.00    +0.000 NA
ATOM     14  H   UNL     1      44.242  12.183   9.583  0.00  0.00    +0.000 HD
ATOM     15  H   UNL     1      43.567  11.120   8.547  0.00  0.00    +0.000 HD
ENDBRANCH  12  13
ENDBRANCH  11  12
ENDBRANCH  10  11
ENDBRANCH   9  10
ENDBRANCH   8   9
ENDBRANCH   7   8
ENDBRANCH   1   7
BRANCH   4  16
ATOM     16  C   UNL     1      43.858   3.775  11.702  0.00  0.00    +0.000 C 
BRANCH  16  17
ATOM     17  O   UNL     1      43.470   3.746  10.331  0.00  0.00    +0.000 OA
BRANCH  17  18
ATOM     18  C   UNL     1      44.449   3.466   9.413  0.00  0.00    +0.000 A 
ATOM     19  C   UNL     1      45.094   4.386   8.585  0.00  0.00    +0.000 A 
ATOM     20  C   UNL     1      46.090   3.954   7.696  0.00  0.00    +0.000 A 
ATOM     21  C   UNL     1      46.463   2.604   7.636  0.00  0.00    +0.000 A 
ATOM     22  C   UNL     1      45.832   1.686   8.480  0.00  0.00    +0.000 A 
ATOM     23  C   UNL     1      44.822   2.119   9.349  0.00  0.00    +0.000 A 
BRANCH  21  24
ATOM     24  C   UNL     1      47.494   2.205   6.638  0.00  0.00    +0.000 C 
ATOM     25  N   UNL     1      47.483   2.831   5.417  0.00  0.00    +0.000 N 
ATOM     26  O   UNL     1      48.317   1.342   6.884  0.00  0.00    +0.000 OA
ATOM     27  H   UNL     1      46.828   3.541   5.136  0.00  0.00    +0.000 HD
ATOM     28  H   UNL     1      48.201   2.547   4.760  0.00  0.00    +0.000 HD
ENDBRANCH  21  24
ENDBRANCH  17  18
ENDBRANCH  16  17
ENDBRANCH   4  16
TORSDOF 11
ENDMDL
