MODEL 1
REMARK VINA RESULT:    -6.792      0.000      0.000
REMARK INTER + INTRA:          -9.776
REMARK INTER:                  -8.777
REMARK INTRA:                  -1.000
REMARK UNBOUND:                -1.000
REMARK  Name = 
REMARK  5 active torsions:
REMARK  status: ('A' for Active; 'I' for Inactive)
REMARK    1  A    between atoms: C_2  and  C_4
REMARK    2  A    between atoms: C_9  and  N_10
REMARK    3  A    between atoms: N_10  and  C_11
REMARK    4  A    between atoms: C_11  and  C_12
REMARK    5  A    between atoms: C_16  and  C_17
REMARK                            x       y       z     vdW  Elec       q    Type
REMARK                         _______ _______ _______ _____ _____    ______ ____
ROOT
ATOM      1  C   UNL     1      47.758   4.748  16.118  0.00  0.00    +0.000 C 
ATOM      2  C   UNL     1      46.791   3.829  16.861  0.00  0.00    +0.000 C 
ATOM      3  C   UNL     1      47.997   3.253  16.201  0.00  0.00    +0.000 C 
ENDROOT
BRANCH   1   4
ATOM      4  C   UNL     1      47.333   5.279  14.753  0.00  0.00    +0.000 A 
ATOM      5  C   UNL     1      48.037   6.324  14.136  0.00  0.00    +0.000 A 
ATOM      6  C   UNL     1      47.760   6.699  12.822  0.00  0.00    +0.000 A 
ATOM      7  C   UNL     1      46.771   6.034  12.097  0.00  0.00    +0.000 A 
ATOM      8  C   UNL     1      45.999   5.021  12.684  0.00  0.00    +0.000 A 
ATOM      9  C   UNL     1      46.295   4.677  14.019  0.00  0.00    +0.000 A 
BRANCH   8  10
ATOM     10  C   UNL     1      44.949   4.187  11.939  0.00  0.00    +0.000 C 
ATOM     11  F   UNL     1      45.543   3.010  11.535  0.00  0.00    +0.000 F 
ATOM     12  C   UNL     1      44.382   4.820  10.661  0.00  0.00    +0.000 C 
ATOM     13  C   UNL     1      43.369   5.914  10.969  0.00  0.00    +0.000 C 
ATOM     14  O   UNL     1      42.330   5.422  11.812  0.00  0.00    +0.000 OA
ATOM     15  C   UNL     1      42.822   4.939  13.062  0.00  0.00    +0.000 C 
ATOM     16  C   UNL     1      43.770   3.776  12.837  0.00  0.00    +0.000 C 
ENDBRANCH   8  10
ENDBRANCH   1   4
BRANCH   1  17
ATOM     17  N   UNL     1      48.429   5.732  16.976  0.00  0.00    +0.000 N 
ATOM     18  H   UNL     1      48.236   6.715  16.774  0.00  0.00    +0.000 HD
BRANCH  17  24
ATOM     19  C   UNL     1      49.904   5.108  18.834  0.00  0.00    +0.000 A 
ATOM     20  C   UNL     1      51.201   4.853  19.305  0.00  0.00    +0.000 A 
ATOM     21  C   UNL     1      52.284   5.032  18.455  0.00  0.00    +0.000 A 
ATOM     22  C   UNL     1      52.030   5.474  17.171  0.00  0.00    +0.000 A 
ATOM     23  N   UNL     1      50.795   5.755  16.695  0.00  0.00    +0.000 NA
ATOM     24  C   UNL     1      49.725   5.553  17.506  0.00  0.00    +0.000 A 
BRANCH  19  26
ATOM     25  N   UNL     1      48.577   3.645  20.281  0.00  0.00    +0.000 N 
ATOM     26  C   UNL     1      48.734   4.886  19.728  0.00  0.00    +0.000 C 
ATOM     27  O   UNL     1      47.942   5.780  19.992  0.00  0.00    +0.000 OA
ATOM     28  H   UNL     1      47.815   3.543  20.944  0.00  0.00    +0.000 HD
ATOM     29  H   UNL     1      49.322   2.963  20.329  0.00  0.00    +0.000 HD
ENDBRANCH  19  26
ENDBRANCH  17  24
ENDBRANCH   1  17
TORSDOF 5
ENDMDL
MODEL 2
REMARK VINA RESULT:    -6.591      2.377      3.342
REMARK INTER + INTRA:          -9.518
REMARK INTER:                  -8.187
REMARK INTRA:                  -1.331
REMARK UNBOUND:                -1.000
REMARK  Name = 
REMARK  5 active torsions:
REMARK  status: ('A' for Active; 'I' for Inactive)
REMARK    1  A    between atoms: C_2  and  C_4
REMARK    2  A    between atoms: C_9  and  N_10
REMARK    3  A    between atoms: N_10  and  C_11
REMARK    4  A    between atoms: C_11  and  C_12
REMARK    5  A    between atoms: C_16  and  C_17
REMARK                            x       y       z     vdW  Elec       q    Type
REMARK                         _______ _______ _______ _____ _____    ______ ____
ROOT
ATOM      1  C   UNL     1      48.695   7.377  13.906  0.00  0.00    +0.000 C 
ATOM      2  C   UNL     1      49.903   7.618  13.004  0.00  0.00    +0.000 C 
ATOM      3  C   UNL     1      49.501   8.658  13.993  0.00  0.00    +0.000 C 
ENDROOT
BRANCH   1   4
ATOM      4  C   UNL     1      47.306   7.506  13.289  0.00  0.00    +0.000 A 
ATOM      5  C   UNL     1      46.616   8.727  13.318  0.00  0.00    +0.000 A 
ATOM      6  C   UNL     1      45.425   8.896  12.613  0.00  0.00    +0.000 A 
ATOM      7  C   UNL     1      44.901   7.844  11.862  0.00  0.00    +0.000 A 
ATOM      8  C   UNL     1      45.520   6.586  11.843  0.00  0.00    +0.000 A 
ATOM      9  C   UNL     1      46.714   6.446  12.580  0.00  0.00    +0.000 A 
BRANCH   8  10
ATOM     10  C   UNL     1      45.057   5.403  10.986  0.00  0.00    +0.000 C 
ATOM     11  F   UNL     1      45.766   5.426   9.803  0.00  0.00    +0.000 F 
ATOM     12  C   UNL     1      43.577   5.416  10.577  0.00  0.00    +0.000 C 
ATOM     13  C   UNL     1      42.666   5.006  11.726  0.00  0.00    +0.000 C 
ATOM     14  O   UNL     1      43.050   3.738  12.251  0.00  0.00    +0.000 OA
ATOM     15  C   UNL     1      44.386   3.734  12.751  0.00  0.00    +0.000 C 
ATOM     16  C   UNL     1      45.365   4.042  11.633  0.00  0.00    +0.000 C 
ENDBRANCH   8  10
ENDBRANCH   1   4
BRANCH   1  17
ATOM     17  N   UNL     1      48.852   6.248  14.831  0.00  0.00    +0.000 N 
ATOM     18  H   UNL     1      48.710   5.316  14.437  0.00  0.00    +0.000 HD
BRANCH  17  24
ATOM     19  C   UNL     1      47.920   5.172  16.829  0.00  0.00    +0.000 A 
ATOM     20  C   UNL     1      47.654   5.221  18.207  0.00  0.00    +0.000 A 
ATOM     21  C   UNL     1      47.966   6.369  18.922  0.00  0.00    +0.000 A 
ATOM     22  C   UNL     1      48.518   7.430  18.231  0.00  0.00    +0.000 A 
ATOM     23  N   UNL     1      48.762   7.425  16.900  0.00  0.00    +0.000 NA
ATOM     24  C   UNL     1      48.491   6.298  16.194  0.00  0.00    +0.000 A 
BRANCH  19  26
ATOM     25  N   UNL     1      48.211   2.769  16.465  0.00  0.00    +0.000 N 
ATOM     26  C   UNL     1      47.620   3.934  16.060  0.00  0.00    +0.000 C 
ATOM     27  O   UNL     1      46.851   3.932  15.108  0.00  0.00    +0.000 OA
ATOM     28  H   UNL     1      47.932   1.928  15.970  0.00  0.00    +0.000 HD
ATOM     29  H   UNL     1      48.622   2.648  17.380  0.00  0.00    +0.000 HD
ENDBRANCH  19  26
ENDBRANCH  17  24
ENDBRANCH   1  17
TORSDOF 5
ENDMDL
MODEL 3
REMARK VINA RESULT:    -6.591      4.799      8.114
REMARK INTER + INTRA:          -9.517
REMARK INTER:                  -9.315
REMARK INTRA:                  -0.202
REMARK UNBOUND:                -1.000
REMARK  Name = 
REMARK  5 active torsions:
REMARK  status: ('A' for Active; 'I' for Inactive)
REMARK    1  A    between atoms: C_2  and  C_4
REMARK    2  A    between atoms: C_9  and  N_10
REMARK    3  A    between atoms: N_10  and  C_11
REMARK    4  A    between atoms: C_11  and  C_12
REMARK    5  A    between atoms: C_16  and  C_17
REMARK                            x       y       z     vdW  Elec       q    Type
REMARK                         _______ _______ _______ _____ _____    ______ ____
ROOT
ATOM      1  C   UNL     1      45.451   6.263  11.829  0.00  0.00    +0.000 C 
ATOM      2  C   UNL     1      46.316   5.142  12.400  0.00  0.00    +0.000 C 
ATOM      3  C   UNL     1      45.181   5.680  13.202  0.00  0.00    +0.000 C 
ENDROOT
BRANCH   1   4
ATOM      4  C   UNL     1      46.031   7.673  11.807  0.00  0.00    +0.000 A 
ATOM      5  C   UNL     1      45.193   8.797  11.848  0.00  0.00    +0.000 A 
ATOM      6  C   UNL     1      45.718  10.080  11.998  0.00  0.00    +0.000 A 
ATOM      7  C   UNL     1      47.096  10.264  12.110  0.00  0.00    +0.000 A 
ATOM      8  C   UNL     1      47.983   9.181  12.019  0.00  0.00    +0.000 A 
ATOM      9  C   UNL     1      47.418   7.900  11.853  0.00  0.00    +0.000 A 
BRANCH   8  10
ATOM     10  C   UNL     1      49.500   9.282  12.210  0.00  0.00    +0.000 C 
ATOM     11  F   UNL     1      50.065   9.610  10.996  0.00  0.00    +0.000 F 
ATOM     12  C   UNL     1      50.202   7.991  12.654  0.00  0.00    +0.000 C 
ATOM     13  C   UNL     1      49.984   7.704  14.133  0.00  0.00    +0.000 C 
ATOM     14  O   UNL     1      50.384   8.816  14.931  0.00  0.00    +0.000 OA
ATOM     15  C   UNL     1      49.656  10.003  14.620  0.00  0.00    +0.000 C 
ATOM     16  C   UNL     1      49.904  10.407  13.179  0.00  0.00    +0.000 C 
ENDBRANCH   8  10
ENDBRANCH   1   4
BRANCH   1  17
ATOM     17  N   UNL     1      44.704   5.889  10.622  0.00  0.00    +0.000 N 
ATOM     18  H   UNL     1      43.692   6.026  10.653  0.00  0.00    +0.000 HD
BRANCH  17  24
ATOM     19  C   UNL     1      44.462   3.537   9.964  0.00  0.00    +0.000 A 
ATOM     20  C   UNL     1      44.766   2.504   9.064  0.00  0.00    +0.000 A 
ATOM     21  C   UNL     1      45.637   2.749   8.012  0.00  0.00    +0.000 A 
ATOM     22  C   UNL     1      46.183   4.014   7.907  0.00  0.00    +0.000 A 
ATOM     23  N   UNL     1      45.932   5.023   8.772  0.00  0.00    +0.000 NA
ATOM     24  C   UNL     1      45.058   4.806   9.788  0.00  0.00    +0.000 A 
BRANCH  19  26
ATOM     25  N   UNL     1      43.673   2.166  11.833  0.00  0.00    +0.000 N 
ATOM     26  C   UNL     1      43.504   3.294  11.077  0.00  0.00    +0.000 C 
ATOM     27  O   UNL     1      42.602   4.078  11.339  0.00  0.00    +0.000 OA
ATOM     28  H   UNL     1      43.052   2.063  12.629  0.00  0.00    +0.000 HD
ATOM     29  H   UNL     1      44.534   1.637  11.849  0.00  0.00    +0.000 HD
ENDBRANCH  19  26
ENDBRANCH  17  24
ENDBRANCH   1  17
TORSDOF 5
ENDMDL
MODEL 4
REMARK VINA RESULT:    -6.484      3.073      7.406
REMARK INTER + INTRA:          -9.379
REMARK INTER:                  -8.456
REMARK INTRA:                  -0.923
REMARK UNBOUND:                -1.000
REMARK  Name = 
REMARK  5 active torsions:
REMARK  status: ('A' for Active; 'I' for Inactive)
REMARK    1  A    between atoms: C_2  and  C_4
REMARK    2  A    between atoms: C_9  and  N_10
REMARK    3  A    between atoms: N_10  and  C_11
REMARK    4  A    between atoms: C_11  and  C_12
REMARK    5  A    between atoms: C_16  and  C_17
REMARK                            x       y       z     vdW  Elec       q    Type
REMARK                         _______ _______ _______ _____ _____    ______ ____
ROOT
ATOM      1  C   UNL     1      47.519   7.224  12.992  0.00  0.00    +0.000 C 
ATOM      2  C   UNL     1      47.588   8.573  12.280  0.00  0.00    +0.000 C 
ATOM      3  C   UNL     1      48.089   7.350  11.593  0.00  0.00    +0.000 C 
ENDROOT
BRANCH   1   4
ATOM      4  C   UNL     1      48.531   6.949  14.100  0.00  0.00    +0.000 A 
ATOM      5  C   UNL     1      49.803   7.540  14.076  0.00  0.00    +0.000 A 
ATOM      6  C   UNL     1      50.667   7.429  15.164  0.00  0.00    +0.000 A 
ATOM      7  C   UNL     1      50.274   6.723  16.302  0.00  0.00    +0.000 A 
ATOM      8  C   UNL     1      49.036   6.066  16.356  0.00  0.00    +0.000 A 
ATOM      9  C   UNL     1      48.194   6.187  15.232  0.00  0.00    +0.000 A 
BRANCH   8  10
ATOM     10  C   UNL     1      48.494   5.337  17.591  0.00  0.00    +0.000 C 
ATOM     11  F   UNL     1      47.824   6.255  18.372  0.00  0.00    +0.000 F 
ATOM     12  C   UNL     1      49.551   4.711  18.511  0.00  0.00    +0.000 C 
ATOM     13  C   UNL     1      50.114   3.420  17.934  0.00  0.00    +0.000 C 
ATOM     14  O   UNL     1      49.070   2.497  17.637  0.00  0.00    +0.000 OA
ATOM     15  C   UNL     1      48.138   3.012  16.687  0.00  0.00    +0.000 C 
ATOM     16  C   UNL     1      47.461   4.254  17.237  0.00  0.00    +0.000 C 
ENDBRANCH   8  10
ENDBRANCH   1   4
BRANCH   1  17
ATOM     17  N   UNL     1      46.155   6.767  13.281  0.00  0.00    +0.000 N 
ATOM     18  H   UNL     1      45.794   6.978  14.213  0.00  0.00    +0.000 HD
BRANCH  17  24
ATOM     19  C   UNL     1      44.553   5.612  11.825  0.00  0.00    +0.000 A 
ATOM     20  C   UNL     1      44.088   4.412  11.264  0.00  0.00    +0.000 A 
ATOM     21  C   UNL     1      44.676   3.211  11.635  0.00  0.00    +0.000 A 
ATOM     22  C   UNL     1      45.697   3.252  12.565  0.00  0.00    +0.000 A 
ATOM     23  N   UNL     1      46.150   4.388  13.144  0.00  0.00    +0.000 NA
ATOM     24  C   UNL     1      45.605   5.573  12.767  0.00  0.00    +0.000 A 
BRANCH  19  26
ATOM     25  N   UNL     1      42.591   6.971  11.280  0.00  0.00    +0.000 N 
ATOM     26  C   UNL     1      43.951   6.907  11.408  0.00  0.00    +0.000 C 
ATOM     27  O   UNL     1      44.632   7.904  11.206  0.00  0.00    +0.000 OA
ATOM     28  H   UNL     1      42.202   7.883  11.067  0.00  0.00    +0.000 HD
ATOM     29  H   UNL     1      41.966   6.289  11.688  0.00  0.00    +0.000 HD
ENDBRANCH  19  26
ENDBRANCH  17  24
ENDBRANCH   1  17
TORSDOF 5
ENDMDL
MODEL 5
REMARK VINA RESULT:    -6.446      2.477      3.808
REMARK INTER + INTRA:          -9.330
REMARK INTER:                  -8.168
REMARK INTRA:                  -1.162
REMARK UNBOUND:                -1.000
REMARK  Name = 
REMARK  5 active torsions:
REMARK  status: ('A' for Active; 'I' for Inactive)
REMARK    1  A    between atoms: C_2  and  C_4
REMARK    2  A    between atoms: C_9  and  N_10
REMARK    3  A    between atoms: N_10  and  C_11
REMARK    4  A    between atoms: C_11  and  C_12
REMARK    5  A    between atoms: C_16  and  C_17
REMARK                            x       y       z     vdW  Elec       q    Type
REMARK                         _______ _______ _______ _____ _____    ______ ____
ROOT
ATOM      1  C   UNL     1      48.976   7.878  12.898  0.00  0.00    +0.000 C 
ATOM      2  C   UNL     1      49.881   7.448  11.746  0.00  0.00    +0.000 C 
ATOM      3  C   UNL     1      49.653   8.898  12.004  0.00  0.00    +0.000 C 
ENDROOT
BRANCH   1   4
ATOM      4  C   UNL     1      47.469   7.730  12.715  0.00  0.00    +0.000 A 
ATOM      5  C   UNL     1      46.708   8.762  12.145  0.00  0.00    +0.000 A 
ATOM      6  C   UNL     1      45.366   8.570  11.821  0.00  0.00    +0.000 A 
ATOM      7  C   UNL     1      44.756   7.338  12.061  0.00  0.00    +0.000 A 
ATOM      8  C   UNL     1      45.455   6.291  12.680  0.00  0.00    +0.000 A 
ATOM      9  C   UNL     1      46.806   6.525  13.008  0.00  0.00    +0.000 A 
BRANCH   8  10
ATOM     10  C   UNL     1      44.888   4.885  12.908  0.00  0.00    +0.000 C 
ATOM     11  F   UNL     1      45.398   4.404  14.095  0.00  0.00    +0.000 F 
ATOM     12  C   UNL     1      45.260   3.839  11.848  0.00  0.00    +0.000 C 
ATOM     13  C   UNL     1      44.452   4.013  10.569  0.00  0.00    +0.000 C 
ATOM     14  O   UNL     1      43.054   4.000  10.846  0.00  0.00    +0.000 OA
ATOM     15  C   UNL     1      42.662   5.044  11.737  0.00  0.00    +0.000 C 
ATOM     16  C   UNL     1      43.359   4.879  13.075  0.00  0.00    +0.000 C 
ENDBRANCH   8  10
ENDBRANCH   1   4
BRANCH   1  17
ATOM     17  N   UNL     1      49.472   7.497  14.226  0.00  0.00    +0.000 N 
ATOM     18  H   UNL     1      49.701   6.511  14.358  0.00  0.00    +0.000 HD
BRANCH  17  24
ATOM     19  C   UNL     1      48.737   7.305  16.559  0.00  0.00    +0.000 A 
ATOM     20  C   UNL     1      48.388   7.934  17.764  0.00  0.00    +0.000 A 
ATOM     21  C   UNL     1      48.349   9.320  17.825  0.00  0.00    +0.000 A 
ATOM     22  C   UNL     1      48.644  10.026  16.675  0.00  0.00    +0.000 A 
ATOM     23  N   UNL     1      48.958   9.450  15.491  0.00  0.00    +0.000 NA
ATOM     24  C   UNL     1      49.031   8.096  15.426  0.00  0.00    +0.000 A 
BRANCH  19  26
ATOM     25  N   UNL     1      47.646   5.122  16.365  0.00  0.00    +0.000 N 
ATOM     26  C   UNL     1      48.815   5.820  16.493  0.00  0.00    +0.000 C 
ATOM     27  O   UNL     1      49.883   5.224  16.524  0.00  0.00    +0.000 OA
ATOM     28  H   UNL     1      47.732   4.118  16.248  0.00  0.00    +0.000 HD
ATOM     29  H   UNL     1      46.780   5.547  16.061  0.00  0.00    +0.000 HD
ENDBRANCH  19  26
ENDBRANCH  17  24
ENDBRANCH   1  17
TORSDOF 5
ENDMDL
MODEL 6
REMARK VINA RESULT:    -6.392      1.806      2.550
REMARK INTER + INTRA:          -9.259
REMARK INTER:                  -8.656
REMARK INTRA:                  -0.603
REMARK UNBOUND:                -1.000
REMARK  Name = 
REMARK  5 active torsions:
REMARK  status: ('A' for Active; 'I' for Inactive)
REMARK    1  A    between atoms: C_2  and  C_4
REMARK    2  A    between atoms: C_9  and  N_10
REMARK    3  A    between atoms: N_10  and  C_11
REMARK    4  A    between atoms: C_11  and  C_12
REMARK    5  A    between atoms: C_16  and  C_17
REMARK                            x       y       z     vdW  Elec       q    Type
REMARK                         _______ _______ _______ _____ _____    ______ ____
ROOT
ATOM      1  C   UNL     1      48.424   6.286  15.580  0.00  0.00    +0.000 C 
ATOM      2  C   UNL     1      49.898   6.683  15.592  0.00  0.00    +0.000 C 
ATOM      3  C   UNL     1      48.873   7.630  16.117  0.00  0.00    +0.000 C 
ENDROOT
BRANCH   1   4
ATOM      4  C   UNL     1      47.687   6.315  14.244  0.00  0.00    +0.000 A 
ATOM      5  C   UNL     1      48.013   7.264  13.263  0.00  0.00    +0.000 A 
ATOM      6  C   UNL     1      47.465   7.191  11.983  0.00  0.00    +0.000 A 
ATOM      7  C   UNL     1      46.578   6.165  11.658  0.00  0.00    +0.000 A 
ATOM      8  C   UNL     1      46.174   5.224  12.617  0.00  0.00    +0.000 A 
ATOM      9  C   UNL     1      46.737   5.336  13.905  0.00  0.00    +0.000 A 
BRANCH   8  10
ATOM     10  C   UNL     1      45.268   4.022  12.326  0.00  0.00    +0.000 C 
ATOM     11  F   UNL     1      45.973   2.873  12.618  0.00  0.00    +0.000 F 
ATOM     12  C   UNL     1      44.818   3.867  10.867  0.00  0.00    +0.000 C 
ATOM     13  C   UNL     1      43.714   4.851  10.505  0.00  0.00    +0.000 C 
ATOM     14  O   UNL     1      42.615   4.736  11.405  0.00  0.00    +0.000 OA
ATOM     15  C   UNL     1      42.985   4.997  12.758  0.00  0.00    +0.000 C 
ATOM     16  C   UNL     1      44.019   3.988  13.222  0.00  0.00    +0.000 C 
ENDBRANCH   8  10
ENDBRANCH   1   4
BRANCH   1  17
ATOM     17  N   UNL     1      48.106   5.131  16.428  0.00  0.00    +0.000 N 
ATOM     18  H   UNL     1      47.396   4.488  16.073  0.00  0.00    +0.000 HD
BRANCH  17  24
ATOM     19  C   UNL     1      49.100   4.479  18.575  0.00  0.00    +0.000 A 
ATOM     20  C   UNL     1      49.135   4.611  19.972  0.00  0.00    +0.000 A 
ATOM     21  C   UNL     1      48.208   5.428  20.604  0.00  0.00    +0.000 A 
ATOM     22  C   UNL     1      47.270   6.070  19.818  0.00  0.00    +0.000 A 
ATOM     23  N   UNL     1      47.193   5.942  18.473  0.00  0.00    +0.000 NA
ATOM     24  C   UNL     1      48.113   5.172  17.839  0.00  0.00    +0.000 A 
BRANCH  19  26
ATOM     25  N   UNL     1      51.362   3.553  18.432  0.00  0.00    +0.000 N 
ATOM     26  C   UNL     1      50.111   3.632  17.885  0.00  0.00    +0.000 C 
ATOM     27  O   UNL     1      49.844   2.999  16.872  0.00  0.00    +0.000 OA
ATOM     28  H   UNL     1      52.008   2.912  17.984  0.00  0.00    +0.000 HD
ATOM     29  H   UNL     1      51.564   3.816  19.387  0.00  0.00    +0.000 HD
ENDBRANCH  19  26
ENDBRANCH  17  24
ENDBRANCH   1  17
TORSDOF 5
ENDMDL
MODEL 7
REMARK VINA RESULT:    -6.246      3.465      7.365
REMARK INTER + INTRA:          -9.072
REMARK INTER:                  -7.751
REMARK INTRA:                  -1.321
REMARK UNBOUND:                -1.000
REMARK  Name = 
REMARK  5 active torsions:
REMARK  status: ('A' for Active; 'I' for Inactive)
REMARK    1  A    between atoms: C_2  and  C_4
REMARK    2  A    between atoms: C_9  and  N_10
REMARK    3  A    between atoms: N_10  and  C_11
REMARK    4  A    between atoms: C_11  and  C_12
REMARK    5  A    between atoms: C_16  and  C_17
REMARK                            x       y       z     vdW  Elec       q    Type
REMARK                         _______ _______ _______ _____ _____    ______ ____
ROOT
ATOM      1  C   UNL     1      45.710   7.961  12.554  0.00  0.00    +0.000 C 
ATOM      2  C   UNL     1      45.043   9.333  12.581  0.00  0.00    +0.000 C 
ATOM      3  C   UNL     1      45.225   8.627  11.281  0.00  0.00    +0.000 C 
ENDROOT
BRANCH   1   4
ATOM      4  C   UNL     1      47.223   7.898  12.737  0.00  0.00    +0.000 A 
ATOM      5  C   UNL     1      48.077   7.762  11.632  0.00  0.00    +0.000 A 
ATOM      6  C   UNL     1      49.459   7.874  11.774  0.00  0.00    +0.000 A 
ATOM      7  C   UNL     1      50.017   8.125  13.028  0.00  0.00    +0.000 A 
ATOM      8  C   UNL     1      49.213   8.213  14.175  0.00  0.00    +0.000 A 
ATOM      9  C   UNL     1      47.821   8.081  13.996  0.00  0.00    +0.000 A 
BRANCH   8  10
ATOM     10  C   UNL     1      49.733   8.564  15.574  0.00  0.00    +0.000 C 
ATOM     11  F   UNL     1      49.460   9.895  15.812  0.00  0.00    +0.000 F 
ATOM     12  C   UNL     1      51.246   8.412  15.778  0.00  0.00    +0.000 C 
ATOM     13  C   UNL     1      51.656   6.954  15.936  0.00  0.00    +0.000 C 
ATOM     14  O   UNL     1      50.923   6.331  16.988  0.00  0.00    +0.000 OA
ATOM     15  C   UNL     1      49.514   6.351  16.760  0.00  0.00    +0.000 C 
ATOM     16  C   UNL     1      49.016   7.782  16.688  0.00  0.00    +0.000 C 
ENDBRANCH   8  10
ENDBRANCH   1   4
BRANCH   1  17
ATOM     17  N   UNL     1      44.964   6.916  13.265  0.00  0.00    +0.000 N 
ATOM     18  H   UNL     1      45.172   6.807  14.259  0.00  0.00    +0.000 HD
BRANCH  17  24
ATOM     19  C   UNL     1      45.293   4.505  12.948  0.00  0.00    +0.000 A 
ATOM     20  C   UNL     1      44.833   3.289  12.421  0.00  0.00    +0.000 A 
ATOM     21  C   UNL     1      43.678   3.272  11.651  0.00  0.00    +0.000 A 
ATOM     22  C   UNL     1      43.035   4.473  11.425  0.00  0.00    +0.000 A 
ATOM     23  N   UNL     1      43.467   5.666  11.896  0.00  0.00    +0.000 NA
ATOM     24  C   UNL     1      44.578   5.693  12.676  0.00  0.00    +0.000 A 
BRANCH  19  26
ATOM     25  N   UNL     1      46.356   4.337  15.147  0.00  0.00    +0.000 N 
ATOM     26  C   UNL     1      46.512   4.529  13.802  0.00  0.00    +0.000 C 
ATOM     27  O   UNL     1      47.631   4.688  13.332  0.00  0.00    +0.000 OA
ATOM     28  H   UNL     1      47.209   4.283  15.695  0.00  0.00    +0.000 HD
ATOM     29  H   UNL     1      45.523   3.934  15.554  0.00  0.00    +0.000 HD
ENDBRANCH  19  26
ENDBRANCH  17  24
ENDBRANCH   1  17
TORSDOF 5
ENDMDL
MODEL 8
REMARK VINA RESULT:    -6.142      1.509      2.201
REMARK INTER + INTRA:          -8.936
REMARK INTER:                  -8.252
REMARK INTRA:                  -0.685
REMARK UNBOUND:                -1.000
REMARK  Name = 
REMARK  5 active torsions:
REMARK  status: ('A' for Active; 'I' for Inactive)
REMARK    1  A    between atoms: C_2  and  C_4
REMARK    2  A    between atoms: C_9  and  N_10
REMARK    3  A    between atoms: N_10  and  C_11
REMARK    4  A    between atoms: C_11  and  C_12
REMARK    5  A    between atoms: C_16  and  C_17
REMARK                            x       y       z     vdW  Elec       q    Type
REMARK                         _______ _______ _______ _____ _____    ______ ____
ROOT
ATOM      1  C   UNL     1      48.099   4.427  16.539  0.00  0.00    +0.000 C 
ATOM      2  C   UNL     1      47.107   3.699  17.443  0.00  0.00    +0.000 C 
ATOM      3  C   UNL     1      48.042   2.913  16.589  0.00  0.00    +0.000 C 
ENDROOT
BRANCH   1   4
ATOM      4  C   UNL     1      47.563   5.072  15.265  0.00  0.00    +0.000 A 
ATOM      5  C   UNL     1      48.120   6.261  14.771  0.00  0.00    +0.000 A 
ATOM      6  C   UNL     1      47.752   6.763  13.524  0.00  0.00    +0.000 A 
ATOM      7  C   UNL     1      46.817   6.083  12.743  0.00  0.00    +0.000 A 
ATOM      8  C   UNL     1      46.188   4.921  13.213  0.00  0.00    +0.000 A 
ATOM      9  C   UNL     1      46.573   4.450  14.484  0.00  0.00    +0.000 A 
BRANCH   8  10
ATOM     10  C   UNL     1      45.211   4.071  12.392  0.00  0.00    +0.000 C 
ATOM     11  F   UNL     1      45.741   2.803  12.273  0.00  0.00    +0.000 F 
ATOM     12  C   UNL     1      44.961   4.547  10.954  0.00  0.00    +0.000 C 
ATOM     13  C   UNL     1      44.030   5.751  10.908  0.00  0.00    +0.000 C 
ATOM     14  O   UNL     1      42.807   5.476  11.586  0.00  0.00    +0.000 OA
ATOM     15  C   UNL     1      43.005   5.148  12.961  0.00  0.00    +0.000 C 
ATOM     16  C   UNL     1      43.849   3.893  13.085  0.00  0.00    +0.000 C 
ENDBRANCH   8  10
ENDBRANCH   1   4
BRANCH   1  17
ATOM     17  N   UNL     1      49.090   5.232  17.263  0.00  0.00    +0.000 N 
ATOM     18  H   UNL     1      48.961   6.245  17.233  0.00  0.00    +0.000 HD
BRANCH  17  24
ATOM     19  C   UNL     1      51.461   5.788  16.962  0.00  0.00    +0.000 A 
ATOM     20  C   UNL     1      52.809   5.450  17.161  0.00  0.00    +0.000 A 
ATOM     21  C   UNL     1      53.129   4.240  17.760  0.00  0.00    +0.000 A 
ATOM     22  C   UNL     1      52.090   3.405  18.124  0.00  0.00    +0.000 A 
ATOM     23  N   UNL     1      50.782   3.689  17.923  0.00  0.00    +0.000 NA
ATOM     24  C   UNL     1      50.454   4.883  17.367  0.00  0.00    +0.000 A 
BRANCH  19  26
ATOM     25  N   UNL     1      51.544   7.351  15.080  0.00  0.00    +0.000 N 
ATOM     26  C   UNL     1      51.107   7.098  16.351  0.00  0.00    +0.000 C 
ATOM     27  O   UNL     1      50.427   7.927  16.941  0.00  0.00    +0.000 OA
ATOM     28  H   UNL     1      51.227   8.219  14.660  0.00  0.00    +0.000 HD
ATOM     29  H   UNL     1      51.861   6.626  14.451  0.00  0.00    +0.000 HD
ENDBRANCH  19  26
ENDBRANCH  17  24
ENDBRANCH   1  17
TORSDOF 5
ENDMDL
MODEL 9
REMARK VINA RESULT:    -5.998      3.978      7.839
REMARK INTER + INTRA:          -8.750
REMARK INTER:                  -7.790
REMARK INTRA:                  -0.960
REMARK UNBOUND:                -1.000
REMARK  Name = 
REMARK  5 active torsions:
REMARK  status: ('A' for Active; 'I' for Inactive)
REMARK    1  A    between atoms: C_2  and  C_4
REMARK    2  A    between atoms: C_9  and  N_10
REMARK    3  A    between atoms: N_10  and  C_11
REMARK    4  A    between atoms: C_11  and  C_12
REMARK    5  A    between atoms: C_16  and  C_17
REMARK                            x       y       z     vdW  Elec       q    Type
REMARK                         _______ _______ _______ _____ _____    ______ ____
ROOT
ATOM      1  C   UNL     1      46.082   7.407  12.267  0.00  0.00    +0.000 C 
ATOM      2  C   UNL     1      45.211   8.473  12.927  0.00  0.00    +0.000 C 
ATOM      3  C   UNL     1      45.535   8.579  11.476  0.00  0.00    +0.000 C 
ENDROOT
BRANCH   1   4
ATOM      4  C   UNL     1      47.581   7.434  12.547  0.00  0.00    +0.000 A 
ATOM      5  C   UNL     1      48.499   7.728  11.527  0.00  0.00    +0.000 A 
ATOM      6  C   UNL     1      49.850   7.921  11.810  0.00  0.00    +0.000 A 
ATOM      7  C   UNL     1      50.312   7.823  13.123  0.00  0.00    +0.000 A 
ATOM      8  C   UNL     1      49.448   7.476  14.172  0.00  0.00    +0.000 A 
ATOM      9  C   UNL     1      48.091   7.274  13.848  0.00  0.00    +0.000 A 
BRANCH   8  10
ATOM     10  C   UNL     1      49.853   7.423  15.649  0.00  0.00    +0.000 C 
ATOM     11  F   UNL     1      50.235   6.132  15.945  0.00  0.00    +0.000 F 
ATOM     12  C   UNL     1      48.745   7.763  16.655  0.00  0.00    +0.000 C 
ATOM     13  C   UNL     1      48.481   9.261  16.727  0.00  0.00    +0.000 C 
ATOM     14  O   UNL     1      49.681   9.975  17.014  0.00  0.00    +0.000 OA
ATOM     15  C   UNL     1      50.689   9.771  16.024  0.00  0.00    +0.000 C 
ATOM     16  C   UNL     1      51.074   8.305  15.963  0.00  0.00    +0.000 C 
ENDBRANCH   8  10
ENDBRANCH   1   4
BRANCH   1  17
ATOM     17  N   UNL     1      45.485   6.066  12.258  0.00  0.00    +0.000 N 
ATOM     18  H   UNL     1      45.676   5.479  13.073  0.00  0.00    +0.000 HD
BRANCH  17  24
ATOM     19  C   UNL     1      44.410   4.208  11.070  0.00  0.00    +0.000 A 
ATOM     20  C   UNL     1      44.193   3.516   9.868  0.00  0.00    +0.000 A 
ATOM     21  C   UNL     1      44.860   3.916   8.719  0.00  0.00    +0.000 A 
ATOM     22  C   UNL     1      45.731   4.984   8.817  0.00  0.00    +0.000 A 
ATOM     23  N   UNL     1      45.983   5.655   9.965  0.00  0.00    +0.000 NA
ATOM     24  C   UNL     1      45.313   5.294  11.089  0.00  0.00    +0.000 A 
BRANCH  19  26
ATOM     25  N   UNL     1      43.739   2.498  12.688  0.00  0.00    +0.000 N 
ATOM     26  C   UNL     1      43.673   3.808  12.300  0.00  0.00    +0.000 C 
ATOM     27  O   UNL     1      43.044   4.615  12.971  0.00  0.00    +0.000 OA
ATOM     28  H   UNL     1      43.290   2.267  13.569  0.00  0.00    +0.000 HD
ATOM     29  H   UNL     1      44.444   1.857  12.350  0.00  0.00    +0.000 HD
ENDBRANCH  19  26
ENDBRANCH  17  24
ENDBRANCH   1  17
TORSDOF 5
ENDMDL
