MODEL 1
REMARK VINA RESULT:    -8.514      0.000      0.000
REMARK INTER + INTRA:         -11.722
REMARK INTER:                 -11.002
REMARK INTRA:                  -0.720
REMARK UNBOUND:                -0.720
REMARK  Name = 
REMARK  5 active torsions:
REMARK  status: ('A' for Active; 'I' for Inactive)
REMARK    1  A    between atoms: C_2  and  C_4
REMARK    2  A    between atoms: C_7  and  N_8
REMARK    3  A    between atoms: N_8  and  C_9
REMARK    4  A    between atoms: C_9  and  C_10
REMARK    5  A    between atoms: C_12  and  N_13
REMARK                            x       y       z     vdW  Elec       q    Type
REMARK                         _______ _______ _______ _____ _____    ______ ____
ROOT
ATOM      1  N   UNL     1      43.648   3.666  10.474  0.00  0.00    +0.000 N 
ATOM      2  H   UNL     1      43.336   4.637  10.474  0.00  0.00    +0.000 HD
ENDROOT
BRANCH   1   6
ATOM      3  C   UNL     1      46.464   2.653   7.501  0.00  0.00    +0.000 A 
ATOM      4  C   UNL     1      46.063   3.977   7.642  0.00  0.00    +0.000 A 
ATOM      5  C   UNL     1      45.103   4.312   8.603  0.00  0.00    +0.000 A 
ATOM      6  C   UNL     1      44.506   3.346   9.427  0.00  0.00    +0.000 A 
ATOM      7  C   UNL     1      44.926   2.018   9.268  0.00  0.00    +0.000 A 
ATOM      8  C   UNL     1      45.881   1.669   8.301  0.00  0.00    +0.000 A 
BRANCH   3  10
ATOM      9  N   UNL     1      47.501   2.971   5.326  0.00  0.00    +0.000 N 
ATOM     10  C   UNL     1      47.481   2.264   6.494  0.00  0.00    +0.000 C 
ATOM     11  O   UNL     1      48.300   1.376   6.709  0.00  0.00    +0.000 OA
ATOM     12  H   UNL     1      48.256   2.765   4.682  0.00  0.00    +0.000 HD
ATOM     13  H   UNL     1      47.028   3.858   5.223  0.00  0.00    +0.000 HD
ENDBRANCH   3  10
ENDBRANCH   1   6
BRANCH   1  14
ATOM     14  C   UNL     1      43.925   3.197  11.836  0.00  0.00    +0.000 C 
BRANCH  14  15
ATOM     15  C   UNL     1      45.077   3.967  12.449  0.00  0.00    +0.000 A 
ATOM     16  C   UNL     1      45.174   5.343  12.239  0.00  0.00    +0.000 A 
ATOM     17  C   UNL     1      46.208   6.075  12.830  0.00  0.00    +0.000 A 
ATOM     18  C   UNL     1      47.102   5.375  13.636  0.00  0.00    +0.000 A 
ATOM     19  C   UNL     1      46.947   4.005  13.789  0.00  0.00    +0.000 A 
ATOM     20  N   UNL     1      45.956   3.287  13.221  0.00  0.00    +0.000 NA
BRANCH  17  21
ATOM     21  N   UNL     1      46.262   7.446  12.632  0.00  0.00    +0.000 N 
ATOM     22  C   UNL     1      47.549   8.111  12.389  0.00  0.00    +0.000 C 
ATOM     23  C   UNL     1      47.402   9.591  12.777  0.00  0.00    +0.000 C 
ATOM     24  O   UNL     1      46.338  10.228  12.046  0.00  0.00    +0.000 OA
ATOM     25  C   UNL     1      45.087   9.555  12.287  0.00  0.00    +0.000 C 
ATOM     26  C   UNL     1      45.156   8.073  11.879  0.00  0.00    +0.000 C 
ENDBRANCH  17  21
ENDBRANCH  14  15
ENDBRANCH   1  14
TORSDOF 5
ENDMDL
MODEL 2
REMARK VINA RESULT:    -8.325      1.102      1.506
REMARK INTER + INTRA:         -11.478
REMARK INTER:                 -10.738
REMARK INTRA:                  -0.740
REMARK UNBOUND:                -0.720
REMARK  Name = 
REMARK  5 active torsions:
REMARK  status: ('A' for Active; 'I' for Inactive)
REMARK    1  A    between atoms: C_2  and  C_4
REMARK    2  A    between atoms: C_7  and  N_8
REMARK    3  A    between atoms: N_8  and  C_9
REMARK    4  A    between atoms: C_9  and  C_10
REMARK    5  A    between atoms: C_12  and  N_13
REMARK                            x       y       z     vdW  Elec       q    Type
REMARK                         _______ _______ _______ _____ _____    ______ ____
ROOT
ATOM      1  N   UNL     1      43.740   4.779   9.985  0.00  0.00    +0.000 N 
ATOM      2  H   UNL     1      43.852   5.782   9.832  0.00  0.00    +0.000 HD
ENDROOT
BRANCH   1   6
ATOM      3  C   UNL     1      46.405   2.326   7.823  0.00  0.00    +0.000 A 
ATOM      4  C   UNL     1      46.460   3.706   7.662  0.00  0.00    +0.000 A 
ATOM      5  C   UNL     1      45.554   4.521   8.350  0.00  0.00    +0.000 A 
ATOM      6  C   UNL     1      44.566   3.990   9.191  0.00  0.00    +0.000 A 
ATOM      7  C   UNL     1      44.530   2.597   9.340  0.00  0.00    +0.000 A 
ATOM      8  C   UNL     1      45.427   1.769   8.648  0.00  0.00    +0.000 A 
BRANCH   3  10
ATOM      9  N   UNL     1      48.435   2.020   6.521  0.00  0.00    +0.000 N 
ATOM     10  C   UNL     1      47.352   1.433   7.111  0.00  0.00    +0.000 C 
ATOM     11  O   UNL     1      47.200   0.216   7.085  0.00  0.00    +0.000 OA
ATOM     12  H   UNL     1      49.126   1.399   6.119  0.00  0.00    +0.000 HD
ATOM     13  H   UNL     1      48.726   2.963   6.741  0.00  0.00    +0.000 HD
ENDBRANCH   3  10
ENDBRANCH   1   6
BRANCH   1  14
ATOM     14  C   UNL     1      43.559   4.475  11.408  0.00  0.00    +0.000 C 
BRANCH  14  15
ATOM     15  C   UNL     1      44.836   4.729  12.182  0.00  0.00    +0.000 A 
ATOM     16  C   UNL     1      45.379   6.014  12.209  0.00  0.00    +0.000 A 
ATOM     17  C   UNL     1      46.535   6.275  12.951  0.00  0.00    +0.000 A 
ATOM     18  C   UNL     1      47.089   5.212  13.659  0.00  0.00    +0.000 A 
ATOM     19  C   UNL     1      46.497   3.960  13.576  0.00  0.00    +0.000 A 
ATOM     20  N   UNL     1      45.385   3.694  12.860  0.00  0.00    +0.000 NA
BRANCH  17  21
ATOM     21  N   UNL     1      47.035   7.567  12.988  0.00  0.00    +0.000 N 
ATOM     22  C   UNL     1      46.137   8.717  12.818  0.00  0.00    +0.000 C 
ATOM     23  C   UNL     1      46.976   9.911  12.334  0.00  0.00    +0.000 C 
ATOM     24  O   UNL     1      48.045  10.213  13.249  0.00  0.00    +0.000 OA
ATOM     25  C   UNL     1      48.909   9.071  13.413  0.00  0.00    +0.000 C 
ATOM     26  C   UNL     1      48.134   7.849  13.936  0.00  0.00    +0.000 C 
ENDBRANCH  17  21
ENDBRANCH  14  15
ENDBRANCH   1  14
TORSDOF 5
ENDMDL
MODEL 3
REMARK VINA RESULT:    -8.053      1.823      2.675
REMARK INTER + INTRA:         -11.127
REMARK INTER:                 -10.528
REMARK INTRA:                  -0.599
REMARK UNBOUND:                -0.720
REMARK  Name = 
REMARK  5 active torsions:
REMARK  status: ('A' for Active; 'I' for Inactive)
REMARK    1  A    between atoms: C_2  and  C_4
REMARK    2  A    between atoms: C_7  and  N_8
REMARK    3  A    between atoms: N_8  and  C_9
REMARK    4  A    between atoms: C_9  and  C_10
REMARK    5  A    between atoms: C_12  and  N_13
REMARK                            x       y       z     vdW  Elec       q    Type
REMARK                         _______ _______ _______ _____ _____    ______ ____
ROOT
ATOM      1  N   UNL     1      43.732   3.403  10.498  0.00  0.00    +0.000 N 
ATOM      2  H   UNL     1      43.022   4.112  10.312  0.00  0.00    +0.000 HD
ENDROOT
BRANCH   1   6
ATOM      3  C   UNL     1      46.511   2.612   7.424  0.00  0.00    +0.000 A 
ATOM      4  C   UNL     1      45.997   3.896   7.569  0.00  0.00    +0.000 A 
ATOM      5  C   UNL     1      45.048   4.154   8.564  0.00  0.00    +0.000 A 
ATOM      6  C   UNL     1      44.574   3.149   9.420  0.00  0.00    +0.000 A 
ATOM      7  C   UNL     1      45.107   1.863   9.257  0.00  0.00    +0.000 A 
ATOM      8  C   UNL     1      46.053   1.590   8.256  0.00  0.00    +0.000 A 
BRANCH   3  10
ATOM      9  N   UNL     1      47.511   3.083   5.259  0.00  0.00    +0.000 N 
ATOM     10  C   UNL     1      47.521   2.304   6.381  0.00  0.00    +0.000 C 
ATOM     11  O   UNL     1      48.357   1.420   6.530  0.00  0.00    +0.000 OA
ATOM     12  H   UNL     1      48.260   2.931   4.594  0.00  0.00    +0.000 HD
ATOM     13  H   UNL     1      47.021   3.966   5.217  0.00  0.00    +0.000 HD
ENDBRANCH   3  10
ENDBRANCH   1   6
BRANCH   1  14
ATOM     14  C   UNL     1      44.275   3.537  11.853  0.00  0.00    +0.000 C 
BRANCH  14  15
ATOM     15  C   UNL     1      44.801   4.937  12.089  0.00  0.00    +0.000 A 
ATOM     16  C   UNL     1      45.950   5.120  12.860  0.00  0.00    +0.000 A 
ATOM     17  C   UNL     1      46.472   6.402  13.055  0.00  0.00    +0.000 A 
ATOM     18  C   UNL     1      45.809   7.459  12.436  0.00  0.00    +0.000 A 
ATOM     19  C   UNL     1      44.667   7.200  11.693  0.00  0.00    +0.000 A 
ATOM     20  N   UNL     1      44.151   5.969  11.501  0.00  0.00    +0.000 NA
BRANCH  17  21
ATOM     21  N   UNL     1      47.632   6.552  13.798  0.00  0.00    +0.000 N 
ATOM     22  C   UNL     1      47.874   5.709  14.977  0.00  0.00    +0.000 C 
ATOM     23  C   UNL     1      48.871   6.442  15.890  0.00  0.00    +0.000 C 
ATOM     24  O   UNL     1      50.098   6.745  15.202  0.00  0.00    +0.000 OA
ATOM     25  C   UNL     1      49.840   7.561  14.043  0.00  0.00    +0.000 C 
ATOM     26  C   UNL     1      48.878   6.864  13.065  0.00  0.00    +0.000 C 
ENDBRANCH  17  21
ENDBRANCH  14  15
ENDBRANCH   1  14
TORSDOF 5
ENDMDL
MODEL 4
REMARK VINA RESULT:    -7.307      2.193      3.175
REMARK INTER + INTRA:         -10.163
REMARK INTER:                  -9.591
REMARK INTRA:                  -0.572
REMARK UNBOUND:                -0.720
REMARK  Name = 
REMARK  5 active torsions:
REMARK  status: ('A' for Active; 'I' for Inactive)
REMARK    1  A    between atoms: C_2  and  C_4
REMARK    2  A    between atoms: C_7  and  N_8
REMARK    3  A    between atoms: N_8  and  C_9
REMARK    4  A    between atoms: C_9  and  C_10
REMARK    5  A    between atoms: C_12  and  N_13
REMARK                            x       y       z     vdW  Elec       q    Type
REMARK                         _______ _______ _______ _____ _____    ______ ____
ROOT
ATOM      1  N   UNL     1      43.871   5.086   9.774  0.00  0.00    +0.000 N 
ATOM      2  H   UNL     1      43.866   5.937   9.211  0.00  0.00    +0.000 HD
ENDROOT
BRANCH   1   6
ATOM      3  C   UNL     1      46.239   2.071   8.014  0.00  0.00    +0.000 A 
ATOM      4  C   UNL     1      45.293   1.727   8.974  0.00  0.00    +0.000 A 
ATOM      5  C   UNL     1      44.531   2.728   9.586  0.00  0.00    +0.000 A 
ATOM      6  C   UNL     1      44.701   4.085   9.279  0.00  0.00    +0.000 A 
ATOM      7  C   UNL     1      45.658   4.409   8.308  0.00  0.00    +0.000 A 
ATOM      8  C   UNL     1      46.436   3.415   7.694  0.00  0.00    +0.000 A 
BRANCH   3  10
ATOM      9  N   UNL     1      46.789  -0.269   7.648  0.00  0.00    +0.000 N 
ATOM     10  C   UNL     1      47.062   1.034   7.344  0.00  0.00    +0.000 C 
ATOM     11  O   UNL     1      47.923   1.324   6.519  0.00  0.00    +0.000 OA
ATOM     12  H   UNL     1      47.288  -0.974   7.119  0.00  0.00    +0.000 HD
ATOM     13  H   UNL     1      45.934  -0.549   8.110  0.00  0.00    +0.000 HD
ENDBRANCH   3  10
ENDBRANCH   1   6
BRANCH   1  14
ATOM     14  C   UNL     1      43.848   5.396  11.207  0.00  0.00    +0.000 C 
BRANCH  14  15
ATOM     15  C   UNL     1      44.497   6.736  11.481  0.00  0.00    +0.000 A 
ATOM     16  C   UNL     1      45.784   6.781  12.017  0.00  0.00    +0.000 A 
ATOM     17  C   UNL     1      46.413   8.010  12.239  0.00  0.00    +0.000 A 
ATOM     18  C   UNL     1      45.708   9.158  11.887  0.00  0.00    +0.000 A 
ATOM     19  C   UNL     1      44.427   9.034  11.368  0.00  0.00    +0.000 A 
ATOM     20  N   UNL     1      43.808   7.855  11.152  0.00  0.00    +0.000 NA
BRANCH  17  21
ATOM     21  N   UNL     1      47.705   8.026  12.742  0.00  0.00    +0.000 N 
ATOM     22  C   UNL     1      47.938   8.013  14.192  0.00  0.00    +0.000 C 
ATOM     23  C   UNL     1      49.334   8.601  14.456  0.00  0.00    +0.000 C 
ATOM     24  O   UNL     1      50.358   7.872  13.755  0.00  0.00    +0.000 OA
ATOM     25  C   UNL     1      50.106   7.886  12.336  0.00  0.00    +0.000 C 
ATOM     26  C   UNL     1      48.736   7.269  12.001  0.00  0.00    +0.000 C 
ENDBRANCH  17  21
ENDBRANCH  14  15
ENDBRANCH   1  14
TORSDOF 5
ENDMDL
MODEL 5
REMARK VINA RESULT:    -7.137      1.928      6.614
REMARK INTER + INTRA:          -9.943
REMARK INTER:                  -9.146
REMARK INTRA:                  -0.797
REMARK UNBOUND:                -0.720
REMARK  Name = 
REMARK  5 active torsions:
REMARK  status: ('A' for Active; 'I' for Inactive)
REMARK    1  A    between atoms: C_2  and  C_4
REMARK    2  A    between atoms: C_7  and  N_8
REMARK    3  A    between atoms: N_8  and  C_9
REMARK    4  A    between atoms: C_9  and  C_10
REMARK    5  A    between atoms: C_12  and  N_13
REMARK                            x       y       z     vdW  Elec       q    Type
REMARK                         _______ _______ _______ _____ _____    ______ ____
ROOT
ATOM      1  N   UNL     1      44.109   6.717  12.676  0.00  0.00    +0.000 N 
ATOM      2  H   UNL     1      43.747   6.164  13.453  0.00  0.00    +0.000 HD
ENDROOT
BRANCH   1   6
ATOM      3  C   UNL     1      48.278   7.352  12.556  0.00  0.00    +0.000 A 
ATOM      4  C   UNL     1      47.778   6.193  13.140  0.00  0.00    +0.000 A 
ATOM      5  C   UNL     1      46.395   5.995  13.214  0.00  0.00    +0.000 A 
ATOM      6  C   UNL     1      45.481   6.944  12.733  0.00  0.00    +0.000 A 
ATOM      7  C   UNL     1      46.007   8.104  12.147  0.00  0.00    +0.000 A 
ATOM      8  C   UNL     1      47.392   8.318  12.076  0.00  0.00    +0.000 A 
BRANCH   3  10
ATOM      9  N   UNL     1      50.465   7.472  13.610  0.00  0.00    +0.000 N 
ATOM     10  C   UNL     1      49.739   7.592  12.459  0.00  0.00    +0.000 C 
ATOM     11  O   UNL     1      50.285   7.844  11.390  0.00  0.00    +0.000 OA
ATOM     12  H   UNL     1      51.472   7.544  13.521  0.00  0.00    +0.000 HD
ATOM     13  H   UNL     1      50.100   7.019  14.435  0.00  0.00    +0.000 HD
ENDBRANCH   3  10
ENDBRANCH   1   6
BRANCH   1  14
ATOM     14  C   UNL     1      43.467   6.343  11.412  0.00  0.00    +0.000 C 
BRANCH  14  15
ATOM     15  C   UNL     1      43.658   4.868  11.124  0.00  0.00    +0.000 A 
ATOM     16  C   UNL     1      44.427   4.475  10.029  0.00  0.00    +0.000 A 
ATOM     17  C   UNL     1      44.645   3.118   9.772  0.00  0.00    +0.000 A 
ATOM     18  C   UNL     1      44.083   2.204  10.660  0.00  0.00    +0.000 A 
ATOM     19  C   UNL     1      43.323   2.671  11.721  0.00  0.00    +0.000 A 
ATOM     20  N   UNL     1      43.101   3.977  11.978  0.00  0.00    +0.000 NA
BRANCH  17  21
ATOM     21  N   UNL     1      45.440   2.755   8.696  0.00  0.00    +0.000 N 
ATOM     22  C   UNL     1      45.684   1.337   8.397  0.00  0.00    +0.000 C 
ATOM     23  C   UNL     1      46.985   1.237   7.585  0.00  0.00    +0.000 C 
ATOM     24  O   UNL     1      46.920   2.022   6.380  0.00  0.00    +0.000 OA
ATOM     25  C   UNL     1      46.669   3.407   6.692  0.00  0.00    +0.000 C 
ATOM     26  C   UNL     1      45.354   3.580   7.472  0.00  0.00    +0.000 C 
ENDBRANCH  17  21
ENDBRANCH  14  15
ENDBRANCH   1  14
TORSDOF 5
ENDMDL
MODEL 6
REMARK VINA RESULT:    -7.077      2.374      3.587
REMARK INTER + INTRA:          -9.866
REMARK INTER:                  -9.303
REMARK INTRA:                  -0.564
REMARK UNBOUND:                -0.720
REMARK  Name = 
REMARK  5 active torsions:
REMARK  status: ('A' for Active; 'I' for Inactive)
REMARK    1  A    between atoms: C_2  and  C_4
REMARK    2  A    between atoms: C_7  and  N_8
REMARK    3  A    between atoms: N_8  and  C_9
REMARK    4  A    between atoms: C_9  and  C_10
REMARK    5  A    between atoms: C_12  and  N_13
REMARK                            x       y       z     vdW  Elec       q    Type
REMARK                         _______ _______ _______ _____ _____    ______ ____
ROOT
ATOM      1  N   UNL     1      44.468   4.429  10.992  0.00  0.00    +0.000 N 
ATOM      2  H   UNL     1      43.537   4.084  11.226  0.00  0.00    +0.000 HD
ENDROOT
BRANCH   1   6
ATOM      3  C   UNL     1      46.330   2.667   7.642  0.00  0.00    +0.000 A 
ATOM      4  C   UNL     1      46.259   4.053   7.737  0.00  0.00    +0.000 A 
ATOM      5  C   UNL     1      45.611   4.641   8.828  0.00  0.00    +0.000 A 
ATOM      6  C   UNL     1      45.004   3.875   9.834  0.00  0.00    +0.000 A 
ATOM      7  C   UNL     1      45.089   2.480   9.720  0.00  0.00    +0.000 A 
ATOM      8  C   UNL     1      45.728   1.879   8.624  0.00  0.00    +0.000 A 
BRANCH   3  10
ATOM      9  N   UNL     1      47.523   2.826   5.530  0.00  0.00    +0.000 N 
ATOM     10  C   UNL     1      47.012   2.011   6.499  0.00  0.00    +0.000 C 
ATOM     11  O   UNL     1      47.154   0.794   6.441  0.00  0.00    +0.000 OA
ATOM     12  H   UNL     1      48.068   2.381   4.802  0.00  0.00    +0.000 HD
ATOM     13  H   UNL     1      47.654   3.818   5.671  0.00  0.00    +0.000 HD
ENDBRANCH   3  10
ENDBRANCH   1   6
BRANCH   1  14
ATOM     14  C   UNL     1      44.583   5.867  11.254  0.00  0.00    +0.000 C 
BRANCH  14  15
ATOM     15  C   UNL     1      45.918   6.196  11.888  0.00  0.00    +0.000 A 
ATOM     16  C   UNL     1      46.257   5.624  13.115  0.00  0.00    +0.000 A 
ATOM     17  C   UNL     1      47.501   5.886  13.695  0.00  0.00    +0.000 A 
ATOM     18  C   UNL     1      48.371   6.714  12.989  0.00  0.00    +0.000 A 
ATOM     19  C   UNL     1      47.960   7.253  11.779  0.00  0.00    +0.000 A 
ATOM     20  N   UNL     1      46.761   7.012  11.211  0.00  0.00    +0.000 NA
BRANCH  17  21
ATOM     21  N   UNL     1      47.826   5.279  14.898  0.00  0.00    +0.000 N 
ATOM     22  C   UNL     1      48.425   6.062  15.988  0.00  0.00    +0.000 C 
ATOM     23  C   UNL     1      49.181   5.093  16.912  0.00  0.00    +0.000 C 
ATOM     24  O   UNL     1      48.316   4.062  17.422  0.00  0.00    +0.000 OA
ATOM     25  C   UNL     1      47.728   3.313  16.340  0.00  0.00    +0.000 C 
ATOM     26  C   UNL     1      46.920   4.223  15.399  0.00  0.00    +0.000 C 
ENDBRANCH  17  21
ENDBRANCH  14  15
ENDBRANCH   1  14
TORSDOF 5
ENDMDL
MODEL 7
REMARK VINA RESULT:    -6.803      2.297      6.742
REMARK INTER + INTRA:          -9.511
REMARK INTER:                  -8.878
REMARK INTRA:                  -0.633
REMARK UNBOUND:                -0.720
REMARK  Name = 
REMARK  5 active torsions:
REMARK  status: ('A' for Active; 'I' for Inactive)
REMARK    1  A    between atoms: C_2  and  C_4
REMARK    2  A    between atoms: C_7  and  N_8
REMARK    3  A    between atoms: N_8  and  C_9
REMARK    4  A    between atoms: C_9  and  C_10
REMARK    5  A    between atoms: C_12  and  N_13
REMARK                            x       y       z     vdW  Elec       q    Type
REMARK                         _______ _______ _______ _____ _____    ______ ____
ROOT
ATOM      1  N   UNL     1      46.245   5.958  13.674  0.00  0.00    +0.000 N 
ATOM      2  H   UNL     1      46.409   4.969  13.859  0.00  0.00    +0.000 HD
ENDROOT
BRANCH   1   6
ATOM      3  C   UNL     1      49.805   7.863  12.452  0.00  0.00    +0.000 A 
ATOM      4  C   UNL     1      49.668   7.449  13.773  0.00  0.00    +0.000 A 
ATOM      5  C   UNL     1      48.475   6.850  14.190  0.00  0.00    +0.000 A 
ATOM      6  C   UNL     1      47.390   6.666  13.321  0.00  0.00    +0.000 A 
ATOM      7  C   UNL     1      47.551   7.088  11.994  0.00  0.00    +0.000 A 
ATOM      8  C   UNL     1      48.739   7.699  11.566  0.00  0.00    +0.000 A 
BRANCH   3  10
ATOM      9  N   UNL     1      52.227   8.055  12.522  0.00  0.00    +0.000 N 
ATOM     10  C   UNL     1      51.058   8.499  11.974  0.00  0.00    +0.000 C 
ATOM     11  O   UNL     1      51.056   9.356  11.097  0.00  0.00    +0.000 OA
ATOM     12  H   UNL     1      53.084   8.424  12.126  0.00  0.00    +0.000 HD
ATOM     13  H   UNL     1      52.288   7.189  13.040  0.00  0.00    +0.000 HD
ENDBRANCH   3  10
ENDBRANCH   1   6
BRANCH   1  14
ATOM     14  C   UNL     1      44.988   6.162  12.947  0.00  0.00    +0.000 C 
BRANCH  14  15
ATOM     15  C   UNL     1      44.559   4.893  12.241  0.00  0.00    +0.000 A 
ATOM     16  C   UNL     1      45.159   4.543  11.032  0.00  0.00    +0.000 A 
ATOM     17  C   UNL     1      44.803   3.355  10.386  0.00  0.00    +0.000 A 
ATOM     18  C   UNL     1      43.854   2.551  11.013  0.00  0.00    +0.000 A 
ATOM     19  C   UNL     1      43.295   2.971  12.211  0.00  0.00    +0.000 A 
ATOM     20  N   UNL     1      43.626   4.116  12.841  0.00  0.00    +0.000 NA
BRANCH  17  21
ATOM     21  N   UNL     1      45.438   3.014   9.202  0.00  0.00    +0.000 N 
ATOM     22  C   UNL     1      45.427   1.623   8.727  0.00  0.00    +0.000 C 
ATOM     23  C   UNL     1      46.624   1.433   7.781  0.00  0.00    +0.000 C 
ATOM     24  O   UNL     1      46.585   2.362   6.682  0.00  0.00    +0.000 OA
ATOM     25  C   UNL     1      46.584   3.719   7.168  0.00  0.00    +0.000 C 
ATOM     26  C   UNL     1      45.382   3.987   8.091  0.00  0.00    +0.000 C 
ENDBRANCH  17  21
ENDBRANCH  14  15
ENDBRANCH   1  14
TORSDOF 5
ENDMDL
MODEL 8
REMARK VINA RESULT:    -6.702      3.084      7.677
REMARK INTER + INTRA:          -9.381
REMARK INTER:                  -8.846
REMARK INTRA:                  -0.535
REMARK UNBOUND:                -0.720
REMARK  Name = 
REMARK  5 active torsions:
REMARK  status: ('A' for Active; 'I' for Inactive)
REMARK    1  A    between atoms: C_2  and  C_4
REMARK    2  A    between atoms: C_7  and  N_8
REMARK    3  A    between atoms: N_8  and  C_9
REMARK    4  A    between atoms: C_9  and  C_10
REMARK    5  A    between atoms: C_12  and  N_13
REMARK                            x       y       z     vdW  Elec       q    Type
REMARK                         _______ _______ _______ _____ _____    ______ ____
ROOT
ATOM      1  N   UNL     1      46.845   5.864  13.332  0.00  0.00    +0.000 N 
ATOM      2  H   UNL     1      47.285   6.676  12.900  0.00  0.00    +0.000 HD
ENDROOT
BRANCH   1   6
ATOM      3  C   UNL     1      48.450   4.646  17.038  0.00  0.00    +0.000 A 
ATOM      4  C   UNL     1      48.838   5.864  16.491  0.00  0.00    +0.000 A 
ATOM      5  C   UNL     1      48.335   6.255  15.245  0.00  0.00    +0.000 A 
ATOM      6  C   UNL     1      47.459   5.445  14.508  0.00  0.00    +0.000 A 
ATOM      7  C   UNL     1      47.081   4.223  15.079  0.00  0.00    +0.000 A 
ATOM      8  C   UNL     1      47.586   3.815  16.324  0.00  0.00    +0.000 A 
BRANCH   3  10
ATOM      9  N   UNL     1      48.294   3.180  18.971  0.00  0.00    +0.000 N 
ATOM     10  C   UNL     1      48.961   4.202  18.358  0.00  0.00    +0.000 C 
ATOM     11  O   UNL     1      49.964   4.695  18.865  0.00  0.00    +0.000 OA
ATOM     12  H   UNL     1      48.701   2.818  19.825  0.00  0.00    +0.000 HD
ATOM     13  H   UNL     1      47.641   2.587  18.477  0.00  0.00    +0.000 HD
ENDBRANCH   3  10
ENDBRANCH   1   6
BRANCH   1  14
ATOM     14  C   UNL     1      45.384   5.940  13.240  0.00  0.00    +0.000 C 
BRANCH  14  15
ATOM     15  C   UNL     1      44.829   4.770  12.455  0.00  0.00    +0.000 A 
ATOM     16  C   UNL     1      45.378   4.452  11.213  0.00  0.00    +0.000 A 
ATOM     17  C   UNL     1      44.906   3.352  10.493  0.00  0.00    +0.000 A 
ATOM     18  C   UNL     1      43.893   2.596  11.079  0.00  0.00    +0.000 A 
ATOM     19  C   UNL     1      43.391   2.979  12.314  0.00  0.00    +0.000 A 
ATOM     20  N   UNL     1      43.835   4.041  13.016  0.00  0.00    +0.000 NA
BRANCH  17  21
ATOM     21  N   UNL     1      45.491   3.039   9.276  0.00  0.00    +0.000 N 
ATOM     22  C   UNL     1      45.429   1.668   8.752  0.00  0.00    +0.000 C 
ATOM     23  C   UNL     1      46.588   1.484   7.759  0.00  0.00    +0.000 C 
ATOM     24  O   UNL     1      46.535   2.453   6.696  0.00  0.00    +0.000 OA
ATOM     25  C   UNL     1      46.585   3.791   7.229  0.00  0.00    +0.000 C 
ATOM     26  C   UNL     1      45.422   4.053   8.203  0.00  0.00    +0.000 C 
ENDBRANCH  17  21
ENDBRANCH  14  15
ENDBRANCH   1  14
TORSDOF 5
ENDMDL
MODEL 9
REMARK VINA RESULT:    -6.581      5.362      8.262
REMARK INTER + INTRA:          -9.224
REMARK INTER:                  -8.723
REMARK INTRA:                  -0.501
REMARK UNBOUND:                -0.720
REMARK  Name = 
REMARK  5 active torsions:
REMARK  status: ('A' for Active; 'I' for Inactive)
REMARK    1  A    between atoms: C_2  and  C_4
REMARK    2  A    between atoms: C_7  and  N_8
REMARK    3  A    between atoms: N_8  and  C_9
REMARK    4  A    between atoms: C_9  and  C_10
REMARK    5  A    between atoms: C_12  and  N_13
REMARK                            x       y       z     vdW  Elec       q    Type
REMARK                         _______ _______ _______ _____ _____    ______ ____
ROOT
ATOM      1  N   UNL     1      48.948   4.663  17.358  0.00  0.00    +0.000 N 
ATOM      2  H   UNL     1      48.782   5.179  18.223  0.00  0.00    +0.000 HD
ENDROOT
BRANCH   1   6
ATOM      3  C   UNL     1      52.124   1.920  17.782  0.00  0.00    +0.000 A 
ATOM      4  C   UNL     1      52.342   3.267  18.051  0.00  0.00    +0.000 A 
ATOM      5  C   UNL     1      51.301   4.185  17.877  0.00  0.00    +0.000 A 
ATOM      6  C   UNL     1      50.034   3.796  17.416  0.00  0.00    +0.000 A 
ATOM      7  C   UNL     1      49.837   2.434  17.153  0.00  0.00    +0.000 A 
ATOM      8  C   UNL     1      50.877   1.505  17.314  0.00  0.00    +0.000 A 
BRANCH   3  10
ATOM      9  N   UNL     1      53.415   0.045  16.931  0.00  0.00    +0.000 N 
ATOM     10  C   UNL     1      53.205   0.919  17.958  0.00  0.00    +0.000 C 
ATOM     11  O   UNL     1      53.912   0.898  18.961  0.00  0.00    +0.000 OA
ATOM     12  H   UNL     1      54.214  -0.573  17.015  0.00  0.00    +0.000 HD
ATOM     13  H   UNL     1      53.039   0.197  16.005  0.00  0.00    +0.000 HD
ENDBRANCH   3  10
ENDBRANCH   1   6
BRANCH   1  14
ATOM     14  C   UNL     1      47.687   4.239  16.741  0.00  0.00    +0.000 C 
BRANCH  14  15
ATOM     15  C   UNL     1      47.502   4.892  15.387  0.00  0.00    +0.000 A 
ATOM     16  C   UNL     1      46.461   4.472  14.558  0.00  0.00    +0.000 A 
ATOM     17  C   UNL     1      46.251   5.090  13.322  0.00  0.00    +0.000 A 
ATOM     18  C   UNL     1      47.106   6.136  12.981  0.00  0.00    +0.000 A 
ATOM     19  C   UNL     1      48.124   6.490  13.853  0.00  0.00    +0.000 A 
ATOM     20  N   UNL     1      48.340   5.899  15.046  0.00  0.00    +0.000 NA
BRANCH  17  21
ATOM     21  N   UNL     1      45.190   4.677  12.533  0.00  0.00    +0.000 N 
ATOM     22  C   UNL     1      45.088   3.277  12.097  0.00  0.00    +0.000 C 
ATOM     23  C   UNL     1      44.214   3.233  10.834  0.00  0.00    +0.000 C 
ATOM     24  O   UNL     1      42.913   3.803  11.068  0.00  0.00    +0.000 OA
ATOM     25  C   UNL     1      43.033   5.171  11.506  0.00  0.00    +0.000 C 
ATOM     26  C   UNL     1      43.866   5.280  12.795  0.00  0.00    +0.000 C 
ENDBRANCH  17  21
ENDBRANCH  14  15
ENDBRANCH   1  14
TORSDOF 5
ENDMDL
