MODEL 1
REMARK VINA RESULT:    -7.864      0.000      0.000
REMARK INTER + INTRA:         -11.562
REMARK INTER:                 -10.852
REMARK INTRA:                  -0.710
REMARK UNBOUND:                -0.710
REMARK  Name = 
REMARK  7 active torsions:
REMARK  status: ('A' for Active; 'I' for Inactive)
REMARK    1  A    between atoms: N_1  and  C_2
REMARK    2  A    between atoms: C_2  and  C_3
REMARK    3  A    between atoms: C_7  and  S_8
REMARK    4  A    between atoms: S_8  and  C_9
REMARK    5  A    between atoms: C_9  and  C_10
REMARK    6  A    between atoms: C_10  and  C_11
REMARK    7  A    between atoms: C_14  and  C_15
REMARK                            x       y       z     vdW  Elec       q    Type
REMARK                         _______ _______ _______ _____ _____    ______ ____
ROOT
ATOM      1  C   UNL     1      43.132   3.961  11.367  0.00  0.00    +0.000 C 
ENDROOT
BRANCH   1   2
ATOM      2  S   UNL     1      43.059   4.970  12.895  0.00  0.00    +0.000 S 
BRANCH   2   7
ATOM      3  C   UNL     1      46.600   6.986  13.136  0.00  0.00    +0.000 A 
ATOM      4  C   UNL     1      47.503   5.963  13.457  0.00  0.00    +0.000 A 
ATOM      5  C   UNL     1      47.069   4.643  13.574  0.00  0.00    +0.000 A 
ATOM      6  C   UNL     1      45.721   4.332  13.394  0.00  0.00    +0.000 A 
ATOM      7  C   UNL     1      44.796   5.339  13.106  0.00  0.00    +0.000 A 
ATOM      8  C   UNL     1      45.244   6.659  12.957  0.00  0.00    +0.000 A 
BRANCH   3   9
ATOM      9  C   UNL     1      47.073   8.413  13.024  0.00  0.00    +0.000 C 
BRANCH   9  10
ATOM     10  N   UNL     1      47.132   9.070  14.324  0.00  0.00    +0.000 NA
ATOM     11  H   UNL     1      46.358   8.742  14.899  0.00  0.00    +0.000 HD
ATOM     12  H   UNL     1      46.989  10.071  14.193  0.00  0.00    +0.000 HD
ENDBRANCH   9  10
ENDBRANCH   3   9
ENDBRANCH   2   7
ENDBRANCH   1   2
BRANCH   1  13
ATOM     13  C   UNL     1      43.728   4.768  10.207  0.00  0.00    +0.000 C 
BRANCH  13  14
ATOM     14  C   UNL     1      44.645   3.921   9.347  0.00  0.00    +0.000 A 
ATOM     15  C   UNL     1      44.657   2.526   9.477  0.00  0.00    +0.000 A 
ATOM     16  C   UNL     1      45.532   1.750   8.708  0.00  0.00    +0.000 A 
ATOM     17  C   UNL     1      46.402   2.354   7.792  0.00  0.00    +0.000 A 
ATOM     18  C   UNL     1      46.392   3.745   7.655  0.00  0.00    +0.000 A 
ATOM     19  C   UNL     1      45.519   4.521   8.429  0.00  0.00    +0.000 A 
BRANCH  17  20
ATOM     20  C   UNL     1      47.339   1.480   7.032  0.00  0.00    +0.000 C 
ATOM     21  N   UNL     1      48.444   2.064   6.477  0.00  0.00    +0.000 N 
ATOM     22  O   UNL     1      47.121   0.286   6.879  0.00  0.00    +0.000 OA
ATOM     23  H   UNL     1      48.552   3.059   6.381  0.00  0.00    +0.000 HD
ATOM     24  H   UNL     1      49.010   1.470   5.881  0.00  0.00    +0.000 HD
ENDBRANCH  17  20
ENDBRANCH  13  14
ENDBRANCH   1  13
TORSDOF 7
ENDMDL
MODEL 2
REMARK VINA RESULT:    -7.807      1.710      2.156
REMARK INTER + INTRA:         -11.484
REMARK INTER:                 -10.606
REMARK INTRA:                  -0.878
REMARK UNBOUND:                -0.710
REMARK  Name = 
REMARK  7 active torsions:
REMARK  status: ('A' for Active; 'I' for Inactive)
REMARK    1  A    between atoms: N_1  and  C_2
REMARK    2  A    between atoms: C_2  and  C_3
REMARK    3  A    between atoms: C_7  and  S_8
REMARK    4  A    between atoms: S_8  and  C_9
REMARK    5  A    between atoms: C_9  and  C_10
REMARK    6  A    between atoms: C_10  and  C_11
REMARK    7  A    between atoms: C_14  and  C_15
REMARK                            x       y       z     vdW  Elec       q    Type
REMARK                         _______ _______ _______ _____ _____    ______ ____
ROOT
ATOM      1  C   UNL     1      43.196   4.762  10.540  0.00  0.00    +0.000 C 
ENDROOT
BRANCH   1   2
ATOM      2  S   UNL     1      43.145   5.580  12.178  0.00  0.00    +0.000 S 
BRANCH   2   7
ATOM      3  C   UNL     1      46.838   5.224  13.881  0.00  0.00    +0.000 A 
ATOM      4  C   UNL     1      47.642   5.971  13.007  0.00  0.00    +0.000 A 
ATOM      5  C   UNL     1      47.081   6.622  11.908  0.00  0.00    +0.000 A 
ATOM      6  C   UNL     1      45.712   6.517  11.657  0.00  0.00    +0.000 A 
ATOM      7  C   UNL     1      44.897   5.751  12.494  0.00  0.00    +0.000 A 
ATOM      8  C   UNL     1      45.461   5.126  13.615  0.00  0.00    +0.000 A 
BRANCH   3   9
ATOM      9  C   UNL     1      47.452   4.511  15.059  0.00  0.00    +0.000 C 
BRANCH   9  10
ATOM     10  N   UNL     1      47.617   3.084  14.805  0.00  0.00    +0.000 NA
ATOM     11  H   UNL     1      48.607   2.879  14.682  0.00  0.00    +0.000 HD
ATOM     12  H   UNL     1      47.164   2.854  13.921  0.00  0.00    +0.000 HD
ENDBRANCH   9  10
ENDBRANCH   3   9
ENDBRANCH   2   7
ENDBRANCH   1   2
BRANCH   1  13
ATOM     13  C   UNL     1      43.853   3.380  10.638  0.00  0.00    +0.000 C 
BRANCH  13  14
ATOM     14  C   UNL     1      44.811   3.130   9.489  0.00  0.00    +0.000 A 
ATOM     15  C   UNL     1      45.217   1.827   9.172  0.00  0.00    +0.000 A 
ATOM     16  C   UNL     1      46.132   1.602   8.136  0.00  0.00    +0.000 A 
ATOM     17  C   UNL     1      46.645   2.673   7.395  0.00  0.00    +0.000 A 
ATOM     18  C   UNL     1      46.240   3.975   7.704  0.00  0.00    +0.000 A 
ATOM     19  C   UNL     1      45.329   4.199   8.745  0.00  0.00    +0.000 A 
BRANCH  17  20
ATOM     20  C   UNL     1      47.645   2.377   6.331  0.00  0.00    +0.000 C 
ATOM     21  N   UNL     1      47.647   3.173   5.220  0.00  0.00    +0.000 N 
ATOM     22  O   UNL     1      48.423   1.437   6.427  0.00  0.00    +0.000 OA
ATOM     23  H   UNL     1      46.897   3.803   4.992  0.00  0.00    +0.000 HD
ATOM     24  H   UNL     1      48.266   2.889   4.468  0.00  0.00    +0.000 HD
ENDBRANCH  17  20
ENDBRANCH  13  14
ENDBRANCH   1  13
TORSDOF 7
ENDMDL
MODEL 3
REMARK VINA RESULT:    -7.222      1.584      2.086
REMARK INTER + INTRA:         -10.676
REMARK INTER:                 -10.099
REMARK INTRA:                  -0.577
REMARK UNBOUND:                -0.710
REMARK  Name = 
REMARK  7 active torsions:
REMARK  status: ('A' for Active; 'I' for Inactive)
REMARK    1  A    between atoms: N_1  and  C_2
REMARK    2  A    between atoms: C_2  and  C_3
REMARK    3  A    between atoms: C_7  and  S_8
REMARK    4  A    between atoms: S_8  and  C_9
REMARK    5  A    between atoms: C_9  and  C_10
REMARK    6  A    between atoms: C_10  and  C_11
REMARK    7  A    between atoms: C_14  and  C_15
REMARK                            x       y       z     vdW  Elec       q    Type
REMARK                         _______ _______ _______ _____ _____    ______ ____
ROOT
ATOM      1  C   UNL     1      44.441   5.683  11.236  0.00  0.00    +0.000 C 
ENDROOT
BRANCH   1   2
ATOM      2  S   UNL     1      45.153   5.237  12.864  0.00  0.00    +0.000 S 
BRANCH   2   7
ATOM      3  C   UNL     1      48.704   6.954  13.916  0.00  0.00    +0.000 A 
ATOM      4  C   UNL     1      49.109   7.558  12.716  0.00  0.00    +0.000 A 
ATOM      5  C   UNL     1      48.306   7.487  11.579  0.00  0.00    +0.000 A 
ATOM      6  C   UNL     1      47.095   6.792  11.620  0.00  0.00    +0.000 A 
ATOM      7  C   UNL     1      46.687   6.154  12.794  0.00  0.00    +0.000 A 
ATOM      8  C   UNL     1      47.483   6.257  13.943  0.00  0.00    +0.000 A 
BRANCH   3   9
ATOM      9  C   UNL     1      49.584   7.023  15.138  0.00  0.00    +0.000 C 
BRANCH   9  10
ATOM     10  N   UNL     1      49.385   5.876  16.016  0.00  0.00    +0.000 NA
ATOM     11  H   UNL     1      49.648   6.132  16.966  0.00  0.00    +0.000 HD
ATOM     12  H   UNL     1      50.022   5.132  15.732  0.00  0.00    +0.000 HD
ENDBRANCH   9  10
ENDBRANCH   3   9
ENDBRANCH   2   7
ENDBRANCH   1   2
BRANCH   1  13
ATOM     13  C   UNL     1      43.763   4.472  10.585  0.00  0.00    +0.000 C 
BRANCH  13  14
ATOM     14  C   UNL     1      44.671   3.791   9.580  0.00  0.00    +0.000 A 
ATOM     15  C   UNL     1      44.752   2.393   9.526  0.00  0.00    +0.000 A 
ATOM     16  C   UNL     1      45.621   1.767   8.624  0.00  0.00    +0.000 A 
ATOM     17  C   UNL     1      46.413   2.528   7.755  0.00  0.00    +0.000 A 
ATOM     18  C   UNL     1      46.334   3.923   7.802  0.00  0.00    +0.000 A 
ATOM     19  C   UNL     1      45.469   4.548   8.710  0.00  0.00    +0.000 A 
BRANCH  17  20
ATOM     20  C   UNL     1      47.348   1.808   6.845  0.00  0.00    +0.000 C 
ATOM     21  N   UNL     1      48.400   2.512   6.329  0.00  0.00    +0.000 N 
ATOM     22  O   UNL     1      47.171   0.636   6.542  0.00  0.00    +0.000 OA
ATOM     23  H   UNL     1      48.462   3.515   6.363  0.00  0.00    +0.000 HD
ATOM     24  H   UNL     1      48.961   2.030   5.634  0.00  0.00    +0.000 HD
ENDBRANCH  17  20
ENDBRANCH  13  14
ENDBRANCH   1  13
TORSDOF 7
ENDMDL
MODEL 4
REMARK VINA RESULT:    -6.971      2.014      2.525
REMARK INTER + INTRA:         -10.330
REMARK INTER:                  -9.917
REMARK INTRA:                  -0.413
REMARK UNBOUND:                -0.710
REMARK  Name = 
REMARK  7 active torsions:
REMARK  status: ('A' for Active; 'I' for Inactive)
REMARK    1  A    between atoms: N_1  and  C_2
REMARK    2  A    between atoms: C_2  and  C_3
REMARK    3  A    between atoms: C_7  and  S_8
REMARK    4  A    between atoms: S_8  and  C_9
REMARK    5  A    between atoms: C_9  and  C_10
REMARK    6  A    between atoms: C_10  and  C_11
REMARK    7  A    between atoms: C_14  and  C_15
REMARK                            x       y       z     vdW  Elec       q    Type
REMARK                         _______ _______ _______ _____ _____    ______ ____
ROOT
ATOM      1  C   UNL     1      44.650   4.630  11.853  0.00  0.00    +0.000 C 
ENDROOT
BRANCH   1   2
ATOM      2  S   UNL     1      45.681   3.431  12.779  0.00  0.00    +0.000 S 
BRANCH   2   7
ATOM      3  C   UNL     1      47.756   5.182  15.828  0.00  0.00    +0.000 A 
ATOM      4  C   UNL     1      48.336   6.291  15.195  0.00  0.00    +0.000 A 
ATOM      5  C   UNL     1      48.086   6.550  13.847  0.00  0.00    +0.000 A 
ATOM      6  C   UNL     1      47.271   5.691  13.109  0.00  0.00    +0.000 A 
ATOM      7  C   UNL     1      46.709   4.561  13.710  0.00  0.00    +0.000 A 
ATOM      8  C   UNL     1      46.937   4.325  15.072  0.00  0.00    +0.000 A 
BRANCH   3   9
ATOM      9  C   UNL     1      48.040   4.900  17.281  0.00  0.00    +0.000 C 
BRANCH   9  10
ATOM     10  N   UNL     1      46.818   4.849  18.075  0.00  0.00    +0.000 NA
ATOM     11  H   UNL     1      46.989   4.305  18.918  0.00  0.00    +0.000 HD
ATOM     12  H   UNL     1      46.105   4.345  17.547  0.00  0.00    +0.000 HD
ENDBRANCH   9  10
ENDBRANCH   3   9
ENDBRANCH   2   7
ENDBRANCH   1   2
BRANCH   1  13
ATOM     13  C   UNL     1      43.883   3.934  10.723  0.00  0.00    +0.000 C 
BRANCH  13  14
ATOM     14  C   UNL     1      44.800   3.539   9.582  0.00  0.00    +0.000 A 
ATOM     15  C   UNL     1      45.043   2.188   9.299  0.00  0.00    +0.000 A 
ATOM     16  C   UNL     1      45.920   1.826   8.270  0.00  0.00    +0.000 A 
ATOM     17  C   UNL     1      46.560   2.806   7.501  0.00  0.00    +0.000 A 
ATOM     18  C   UNL     1      46.318   4.156   7.776  0.00  0.00    +0.000 A 
ATOM     19  C   UNL     1      45.444   4.517   8.811  0.00  0.00    +0.000 A 
BRANCH  17  20
ATOM     20  C   UNL     1      47.514   2.362   6.446  0.00  0.00    +0.000 C 
ATOM     21  N   UNL     1      47.472   3.003   5.240  0.00  0.00    +0.000 N 
ATOM     22  O   UNL     1      48.291   1.436   6.635  0.00  0.00    +0.000 OA
ATOM     23  H   UNL     1      46.715   3.604   4.962  0.00  0.00    +0.000 HD
ATOM     24  H   UNL     1      48.058   2.616   4.509  0.00  0.00    +0.000 HD
ENDBRANCH  17  20
ENDBRANCH  13  14
ENDBRANCH   1  13
TORSDOF 7
ENDMDL
MODEL 5
REMARK VINA RESULT:    -6.830      2.661      6.680
REMARK INTER + INTRA:         -10.135
REMARK INTER:                  -9.428
REMARK INTRA:                  -0.707
REMARK UNBOUND:                -0.710
REMARK  Name = 
REMARK  7 active torsions:
REMARK  status: ('A' for Active; 'I' for Inactive)
REMARK    1  A    between atoms: N_1  and  C_2
REMARK    2  A    between atoms: C_2  and  C_3
REMARK    3  A    between atoms: C_7  and  S_8
REMARK    4  A    between atoms: S_8  and  C_9
REMARK    5  A    between atoms: C_9  and  C_10
REMARK    6  A    between atoms: C_10  and  C_11
REMARK    7  A    between atoms: C_14  and  C_15
REMARK                            x       y       z     vdW  Elec       q    Type
REMARK                         _______ _______ _______ _____ _____    ______ ____
ROOT
ATOM      1  C   UNL     1      44.928   3.268  12.360  0.00  0.00    +0.000 C 
ENDROOT
BRANCH   1   2
ATOM      2  S   UNL     1      43.773   2.929  10.980  0.00  0.00    +0.000 S 
BRANCH   2   7
ATOM      3  C   UNL     1      46.364   2.173   7.917  0.00  0.00    +0.000 A 
ATOM      4  C   UNL     1      46.590   3.455   7.395  0.00  0.00    +0.000 A 
ATOM      5  C   UNL     1      45.993   4.574   7.976  0.00  0.00    +0.000 A 
ATOM      6  C   UNL     1      45.144   4.422   9.074  0.00  0.00    +0.000 A 
ATOM      7  C   UNL     1      44.877   3.151   9.590  0.00  0.00    +0.000 A 
ATOM      8  C   UNL     1      45.506   2.035   9.022  0.00  0.00    +0.000 A 
BRANCH   3   9
ATOM      9  C   UNL     1      47.001   0.966   7.276  0.00  0.00    +0.000 C 
BRANCH   9  10
ATOM     10  N   UNL     1      48.080   1.340   6.368  0.00  0.00    +0.000 NA
ATOM     11  H   UNL     1      47.898   0.938   5.450  0.00  0.00    +0.000 HD
ATOM     12  H   UNL     1      48.948   0.919   6.700  0.00  0.00    +0.000 HD
ENDBRANCH   9  10
ENDBRANCH   3   9
ENDBRANCH   2   7
ENDBRANCH   1   2
BRANCH   1  13
ATOM     13  C   UNL     1      44.735   4.690  12.900  0.00  0.00    +0.000 C 
BRANCH  13  14
ATOM     14  C   UNL     1      46.013   5.502  12.817  0.00  0.00    +0.000 A 
ATOM     15  C   UNL     1      46.249   6.348  11.726  0.00  0.00    +0.000 A 
ATOM     16  C   UNL     1      47.446   7.067  11.632  0.00  0.00    +0.000 A 
ATOM     17  C   UNL     1      48.421   6.960  12.632  0.00  0.00    +0.000 A 
ATOM     18  C   UNL     1      48.189   6.120  13.726  0.00  0.00    +0.000 A 
ATOM     19  C   UNL     1      46.992   5.397  13.815  0.00  0.00    +0.000 A 
BRANCH  17  20
ATOM     20  C   UNL     1      49.692   7.718  12.459  0.00  0.00    +0.000 C 
ATOM     21  N   UNL     1      50.593   7.692  13.486  0.00  0.00    +0.000 N 
ATOM     22  O   UNL     1      49.917   8.367  11.446  0.00  0.00    +0.000 OA
ATOM     23  H   UNL     1      50.365   7.368  14.411  0.00  0.00    +0.000 HD
ATOM     24  H   UNL     1      51.401   8.296  13.386  0.00  0.00    +0.000 HD
ENDBRANCH  17  20
ENDBRANCH  13  14
ENDBRANCH   1  13
TORSDOF 7
ENDMDL
MODEL 6
REMARK VINA RESULT:    -6.275      2.621      6.779
REMARK INTER + INTRA:          -9.370
REMARK INTER:                  -8.924
REMARK INTRA:                  -0.446
REMARK UNBOUND:                -0.710
REMARK  Name = 
REMARK  7 active torsions:
REMARK  status: ('A' for Active; 'I' for Inactive)
REMARK    1  A    between atoms: N_1  and  C_2
REMARK    2  A    between atoms: C_2  and  C_3
REMARK    3  A    between atoms: C_7  and  S_8
REMARK    4  A    between atoms: S_8  and  C_9
REMARK    5  A    between atoms: C_9  and  C_10
REMARK    6  A    between atoms: C_10  and  C_11
REMARK    7  A    between atoms: C_14  and  C_15
REMARK                            x       y       z     vdW  Elec       q    Type
REMARK                         _______ _______ _______ _____ _____    ______ ____
ROOT
ATOM      1  C   UNL     1      43.699   3.575  11.222  0.00  0.00    +0.000 C 
ENDROOT
BRANCH   1   2
ATOM      2  S   UNL     1      44.101   4.483   9.683  0.00  0.00    +0.000 S 
BRANCH   2   7
ATOM      3  C   UNL     1      46.707   2.669   7.117  0.00  0.00    +0.000 A 
ATOM      4  C   UNL     1      46.600   1.321   7.489  0.00  0.00    +0.000 A 
ATOM      5  C   UNL     1      45.718   0.929   8.495  0.00  0.00    +0.000 A 
ATOM      6  C   UNL     1      44.946   1.884   9.159  0.00  0.00    +0.000 A 
ATOM      7  C   UNL     1      45.060   3.238   8.829  0.00  0.00    +0.000 A 
ATOM      8  C   UNL     1      45.925   3.621   7.795  0.00  0.00    +0.000 A 
BRANCH   3   9
ATOM      9  C   UNL     1      47.673   3.087   6.038  0.00  0.00    +0.000 C 
BRANCH   9  10
ATOM     10  N   UNL     1      48.494   1.972   5.581  0.00  0.00    +0.000 NA
ATOM     11  H   UNL     1      49.443   2.302   5.415  0.00  0.00    +0.000 HD
ATOM     12  H   UNL     1      48.140   1.651   4.681  0.00  0.00    +0.000 HD
ENDBRANCH   9  10
ENDBRANCH   3   9
ENDBRANCH   2   7
ENDBRANCH   1   2
BRANCH   1  13
ATOM     13  C   UNL     1      43.564   4.538  12.407  0.00  0.00    +0.000 C 
BRANCH  13  14
ATOM     14  C   UNL     1      44.877   5.223  12.728  0.00  0.00    +0.000 A 
ATOM     15  C   UNL     1      45.951   4.493  13.254  0.00  0.00    +0.000 A 
ATOM     16  C   UNL     1      47.150   5.136  13.586  0.00  0.00    +0.000 A 
ATOM     17  C   UNL     1      47.298   6.514  13.387  0.00  0.00    +0.000 A 
ATOM     18  C   UNL     1      46.231   7.247  12.858  0.00  0.00    +0.000 A 
ATOM     19  C   UNL     1      45.030   6.603  12.532  0.00  0.00    +0.000 A 
BRANCH  17  20
ATOM     20  C   UNL     1      48.582   7.150  13.796  0.00  0.00    +0.000 C 
ATOM     21  N   UNL     1      49.101   6.808  15.014  0.00  0.00    +0.000 N 
ATOM     22  O   UNL     1      49.144   7.972  13.085  0.00  0.00    +0.000 OA
ATOM     23  H   UNL     1      48.576   6.322  15.720  0.00  0.00    +0.000 HD
ATOM     24  H   UNL     1      49.918   7.330  15.312  0.00  0.00    +0.000 HD
ENDBRANCH  17  20
ENDBRANCH  13  14
ENDBRANCH   1  13
TORSDOF 7
ENDMDL
MODEL 7
REMARK VINA RESULT:    -5.994      3.608      6.706
REMARK INTER + INTRA:          -8.981
REMARK INTER:                  -7.832
REMARK INTRA:                  -1.149
REMARK UNBOUND:                -0.710
REMARK  Name = 
REMARK  7 active torsions:
REMARK  status: ('A' for Active; 'I' for Inactive)
REMARK    1  A    between atoms: N_1  and  C_2
REMARK    2  A    between atoms: C_2  and  C_3
REMARK    3  A    between atoms: C_7  and  S_8
REMARK    4  A    between atoms: S_8  and  C_9
REMARK    5  A    between atoms: C_9  and  C_10
REMARK    6  A    between atoms: C_10  and  C_11
REMARK    7  A    between atoms: C_14  and  C_15
REMARK                            x       y       z     vdW  Elec       q    Type
REMARK                         _______ _______ _______ _____ _____    ______ ____
ROOT
ATOM      1  C   UNL     1      46.161   7.991  12.864  0.00  0.00    +0.000 C 
ENDROOT
BRANCH   1   2
ATOM      2  S   UNL     1      44.922   7.883  11.519  0.00  0.00    +0.000 S 
BRANCH   2   7
ATOM      3  C   UNL     1      44.487   3.885  10.817  0.00  0.00    +0.000 A 
ATOM      4  C   UNL     1      43.721   3.472  11.917  0.00  0.00    +0.000 A 
ATOM      5  C   UNL     1      43.293   4.393  12.871  0.00  0.00    +0.000 A 
ATOM      6  C   UNL     1      43.646   5.739  12.751  0.00  0.00    +0.000 A 
ATOM      7  C   UNL     1      44.437   6.169  11.682  0.00  0.00    +0.000 A 
ATOM      8  C   UNL     1      44.835   5.243  10.709  0.00  0.00    +0.000 A 
BRANCH   3   9
ATOM      9  C   UNL     1      44.958   2.881   9.796  0.00  0.00    +0.000 C 
BRANCH   9  10
ATOM     10  N   UNL     1      44.295   3.062   8.510  0.00  0.00    +0.000 NA
ATOM     11  H   UNL     1      43.646   3.844   8.576  0.00  0.00    +0.000 HD
ATOM     12  H   UNL     1      43.732   2.236   8.311  0.00  0.00    +0.000 HD
ENDBRANCH   9  10
ENDBRANCH   3   9
ENDBRANCH   2   7
ENDBRANCH   1   2
BRANCH   1  13
ATOM     13  C   UNL     1      47.322   7.019  12.618  0.00  0.00    +0.000 C 
BRANCH  13  14
ATOM     14  C   UNL     1      47.457   6.009  13.741  0.00  0.00    +0.000 A 
ATOM     15  C   UNL     1      46.971   4.705  13.588  0.00  0.00    +0.000 A 
ATOM     16  C   UNL     1      47.063   3.785  14.640  0.00  0.00    +0.000 A 
ATOM     17  C   UNL     1      47.651   4.152  15.856  0.00  0.00    +0.000 A 
ATOM     18  C   UNL     1      48.142   5.452  16.014  0.00  0.00    +0.000 A 
ATOM     19  C   UNL     1      48.044   6.373  14.962  0.00  0.00    +0.000 A 
BRANCH  17  20
ATOM     20  C   UNL     1      47.684   3.145  16.953  0.00  0.00    +0.000 C 
ATOM     21  N   UNL     1      48.877   2.533  17.219  0.00  0.00    +0.000 N 
ATOM     22  O   UNL     1      46.676   2.848  17.580  0.00  0.00    +0.000 OA
ATOM     23  H   UNL     1      49.667   2.572  16.598  0.00  0.00    +0.000 HD
ATOM     24  H   UNL     1      48.850   1.780  17.899  0.00  0.00    +0.000 HD
ENDBRANCH  17  20
ENDBRANCH  13  14
ENDBRANCH   1  13
TORSDOF 7
ENDMDL
MODEL 8
REMARK VINA RESULT:    -5.962      4.140      5.824
REMARK INTER + INTRA:          -8.938
REMARK INTER:                  -8.337
REMARK INTRA:                  -0.601
REMARK UNBOUND:                -0.710
REMARK  Name = 
REMARK  7 active torsions:
REMARK  status: ('A' for Active; 'I' for Inactive)
REMARK    1  A    between atoms: N_1  and  C_2
REMARK    2  A    between atoms: C_2  and  C_3
REMARK    3  A    between atoms: C_7  and  S_8
REMARK    4  A    between atoms: S_8  and  C_9
REMARK    5  A    between atoms: C_9  and  C_10
REMARK    6  A    between atoms: C_10  and  C_11
REMARK    7  A    between atoms: C_14  and  C_15
REMARK                            x       y       z     vdW  Elec       q    Type
REMARK                         _______ _______ _______ _____ _____    ______ ____
ROOT
ATOM      1  C   UNL     1      48.986   7.009  13.689  0.00  0.00    +0.000 C 
ENDROOT
BRANCH   1   2
ATOM      2  S   UNL     1      48.763   7.631  15.398  0.00  0.00    +0.000 S 
BRANCH   2   7
ATOM      3  C   UNL     1      48.958   4.106  17.446  0.00  0.00    +0.000 A 
ATOM      4  C   UNL     1      50.325   4.010  17.744  0.00  0.00    +0.000 A 
ATOM      5  C   UNL     1      51.208   5.020  17.362  0.00  0.00    +0.000 A 
ATOM      6  C   UNL     1      50.738   6.130  16.658  0.00  0.00    +0.000 A 
ATOM      7  C   UNL     1      49.385   6.232  16.321  0.00  0.00    +0.000 A 
ATOM      8  C   UNL     1      48.498   5.229  16.736  0.00  0.00    +0.000 A 
BRANCH   3   9
ATOM      9  C   UNL     1      48.011   3.004  17.850  0.00  0.00    +0.000 C 
BRANCH   9  10
ATOM     10  N   UNL     1      46.645   3.277  17.421  0.00  0.00    +0.000 NA
ATOM     11  H   UNL     1      46.332   4.152  17.839  0.00  0.00    +0.000 HD
ATOM     12  H   UNL     1      46.034   2.548  17.788  0.00  0.00    +0.000 HD
ENDBRANCH   9  10
ENDBRANCH   3   9
ENDBRANCH   2   7
ENDBRANCH   1   2
BRANCH   1  13
ATOM     13  C   UNL     1      47.837   7.469  12.785  0.00  0.00    +0.000 C 
BRANCH  13  14
ATOM     14  C   UNL     1      46.887   6.332  12.460  0.00  0.00    +0.000 A 
ATOM     15  C   UNL     1      46.087   6.378  11.311  0.00  0.00    +0.000 A 
ATOM     16  C   UNL     1      45.183   5.346  11.034  0.00  0.00    +0.000 A 
ATOM     17  C   UNL     1      45.073   4.247  11.894  0.00  0.00    +0.000 A 
ATOM     18  C   UNL     1      45.871   4.193  13.041  0.00  0.00    +0.000 A 
ATOM     19  C   UNL     1      46.771   5.230  13.320  0.00  0.00    +0.000 A 
BRANCH  17  20
ATOM     20  C   UNL     1      44.065   3.198  11.570  0.00  0.00    +0.000 C 
ATOM     21  N   UNL     1      43.775   2.275  12.535  0.00  0.00    +0.000 N 
ATOM     22  O   UNL     1      43.533   3.140  10.469  0.00  0.00    +0.000 OA
ATOM     23  H   UNL     1      44.337   2.143  13.358  0.00  0.00    +0.000 HD
ATOM     24  H   UNL     1      43.164   1.514  12.255  0.00  0.00    +0.000 HD
ENDBRANCH  17  20
ENDBRANCH  13  14
ENDBRANCH   1  13
TORSDOF 7
ENDMDL
MODEL 9
REMARK VINA RESULT:    -5.891      3.950      7.516
REMARK INTER + INTRA:          -8.840
REMARK INTER:                  -8.390
REMARK INTRA:                  -0.450
REMARK UNBOUND:                -0.710
REMARK  Name = 
REMARK  7 active torsions:
REMARK  status: ('A' for Active; 'I' for Inactive)
REMARK    1  A    between atoms: N_1  and  C_2
REMARK    2  A    between atoms: C_2  and  C_3
REMARK    3  A    between atoms: C_7  and  S_8
REMARK    4  A    between atoms: S_8  and  C_9
REMARK    5  A    between atoms: C_9  and  C_10
REMARK    6  A    between atoms: C_10  and  C_11
REMARK    7  A    between atoms: C_14  and  C_15
REMARK                            x       y       z     vdW  Elec       q    Type
REMARK                         _______ _______ _______ _____ _____    ______ ____
ROOT
ATOM      1  C   UNL     1      45.333   5.981  12.876  0.00  0.00    +0.000 C 
ENDROOT
BRANCH   1   2
ATOM      2  S   UNL     1      44.745   6.457  11.208  0.00  0.00    +0.000 S 
BRANCH   2   7
ATOM      3  C   UNL     1      45.337   3.455   8.507  0.00  0.00    +0.000 A 
ATOM      4  C   UNL     1      44.755   2.354   9.153  0.00  0.00    +0.000 A 
ATOM      5  C   UNL     1      44.145   2.503  10.398  0.00  0.00    +0.000 A 
ATOM      6  C   UNL     1      44.128   3.750  11.024  0.00  0.00    +0.000 A 
ATOM      7  C   UNL     1      44.731   4.854  10.415  0.00  0.00    +0.000 A 
ATOM      8  C   UNL     1      45.314   4.705   9.149  0.00  0.00    +0.000 A 
BRANCH   3   9
ATOM      9  C   UNL     1      46.007   3.284   7.167  0.00  0.00    +0.000 C 
BRANCH   9  10
ATOM     10  N   UNL     1      47.063   4.267   6.958  0.00  0.00    +0.000 NA
ATOM     11  H   UNL     1      46.841   5.112   7.483  0.00  0.00    +0.000 HD
ATOM     12  H   UNL     1      47.073   4.534   5.974  0.00  0.00    +0.000 HD
ENDBRANCH   9  10
ENDBRANCH   3   9
ENDBRANCH   2   7
ENDBRANCH   1   2
BRANCH   1  13
ATOM     13  C   UNL     1      46.864   5.906  12.917  0.00  0.00    +0.000 C 
BRANCH  13  14
ATOM     14  C   UNL     1      47.370   5.499  14.287  0.00  0.00    +0.000 A 
ATOM     15  C   UNL     1      46.917   4.319  14.892  0.00  0.00    +0.000 A 
ATOM     16  C   UNL     1      47.357   3.964  16.173  0.00  0.00    +0.000 A 
ATOM     17  C   UNL     1      48.265   4.777  16.863  0.00  0.00    +0.000 A 
ATOM     18  C   UNL     1      48.724   5.953  16.264  0.00  0.00    +0.000 A 
ATOM     19  C   UNL     1      48.278   6.309  14.984  0.00  0.00    +0.000 A 
BRANCH  17  20
ATOM     20  C   UNL     1      48.666   4.369  18.240  0.00  0.00    +0.000 C 
ATOM     21  N   UNL     1      49.496   3.292  18.367  0.00  0.00    +0.000 N 
ATOM     22  O   UNL     1      48.247   4.956  19.228  0.00  0.00    +0.000 OA
ATOM     23  H   UNL     1      49.683   2.648  17.617  0.00  0.00    +0.000 HD
ATOM     24  H   UNL     1      49.672   2.973  19.314  0.00  0.00    +0.000 HD
ENDBRANCH  17  20
ENDBRANCH  13  14
ENDBRANCH   1  13
TORSDOF 7
ENDMDL
