MODEL 1
REMARK VINA RESULT:    -7.399      0.000      0.000
REMARK INTER + INTRA:          -9.944
REMARK INTER:                  -9.346
REMARK INTRA:                  -0.598
REMARK UNBOUND:                -0.598
REMARK  Name = 
REMARK  5 active torsions:
REMARK  status: ('A' for Active; 'I' for Inactive)
REMARK    1  A    between atoms: N_1  and  C_2
REMARK    2  A    between atoms: C_2  and  C_3
REMARK    3  A    between atoms: C_3  and  C_4
REMARK    4  A    between atoms: C_7  and  C_8
REMARK    5  A    between atoms: C_8  and  N_9
REMARK                            x       y       z     vdW  Elec       q    Type
REMARK                         _______ _______ _______ _____ _____    ______ ____
ROOT
ATOM      1  C   UNL     1      45.759   2.619   8.409  0.00  0.00    +0.000 A 
ATOM      2  C   UNL     1      44.931   2.028   9.365  0.00  0.00    +0.000 A 
ATOM      3  C   UNL     1      44.130   2.831  10.208  0.00  0.00    +0.000 A 
ATOM      4  C   UNL     1      44.138   4.230  10.085  0.00  0.00    +0.000 A 
ATOM      5  C   UNL     1      44.960   4.807   9.122  0.00  0.00    +0.000 A 
ATOM      6  C   UNL     1      45.753   4.013   8.285  0.00  0.00    +0.000 A 
ENDROOT
BRANCH   1   7
ATOM      7  C   UNL     1      46.671   1.783   7.544  0.00  0.00    +0.000 C 
BRANCH   7   8
ATOM      8  C   UNL     1      47.796   2.579   6.870  0.00  0.00    +0.000 C 
BRANCH   8   9
ATOM      9  N   UNL     1      48.435   1.806   5.814  0.00  0.00    +0.000 NA
ATOM     10  H   UNL     1      49.435   2.015   5.803  0.00  0.00    +0.000 HD
ATOM     11  H   UNL     1      48.085   2.105   4.897  0.00  0.00    +0.000 HD
ENDBRANCH   8   9
ENDBRANCH   7   8
ENDBRANCH   1   7
BRANCH   4  12
ATOM     12  C   UNL     1      43.244   5.097  10.961  0.00  0.00    +0.000 C 
BRANCH  12  13
ATOM     13  N   UNL     1      43.965   6.203  11.611  0.00  0.00    +0.000 N 
ATOM     14  C   UNL     1      44.071   7.461  11.012  0.00  0.00    +0.000 A 
ATOM     15  C   UNL     1      44.814   8.191  11.897  0.00  0.00    +0.000 A 
ATOM     16  C   UNL     1      45.732   7.285  12.433  0.00  0.00    +0.000 A 
ATOM     17  C   UNL     1      47.041   7.361  12.938  0.00  0.00    +0.000 A 
ATOM     18  C   UNL     1      47.591   6.220  13.509  0.00  0.00    +0.000 A 
ATOM     19  F   UNL     1      48.883   6.222  13.860  0.00  0.00    +0.000 F 
ATOM     20  C   UNL     1      46.829   5.074  13.711  0.00  0.00    +0.000 A 
ATOM     21  C   UNL     1      45.525   4.972  13.217  0.00  0.00    +0.000 A 
ATOM     22  C   UNL     1      45.037   6.061  12.474  0.00  0.00    +0.000 A 
ENDBRANCH  12  13
ENDBRANCH   4  12
TORSDOF 5
ENDMDL
MODEL 2
REMARK VINA RESULT:    -6.764      2.674      6.102
REMARK INTER + INTRA:          -9.141
REMARK INTER:                  -8.503
REMARK INTRA:                  -0.639
REMARK UNBOUND:                -0.598
REMARK  Name = 
REMARK  5 active torsions:
REMARK  status: ('A' for Active; 'I' for Inactive)
REMARK    1  A    between atoms: N_1  and  C_2
REMARK    2  A    between atoms: C_2  and  C_3
REMARK    3  A    between atoms: C_3  and  C_4
REMARK    4  A    between atoms: C_7  and  C_8
REMARK    5  A    between atoms: C_8  and  N_9
REMARK                            x       y       z     vdW  Elec       q    Type
REMARK                         _______ _______ _______ _____ _____    ______ ____
ROOT
ATOM      1  C   UNL     1      47.437   6.192  12.970  0.00  0.00    +0.000 A 
ATOM      2  C   UNL     1      47.173   6.867  11.776  0.00  0.00    +0.000 A 
ATOM      3  C   UNL     1      46.084   6.480  10.964  0.00  0.00    +0.000 A 
ATOM      4  C   UNL     1      45.240   5.427  11.352  0.00  0.00    +0.000 A 
ATOM      5  C   UNL     1      45.506   4.768  12.548  0.00  0.00    +0.000 A 
ATOM      6  C   UNL     1      46.585   5.152  13.355  0.00  0.00    +0.000 A 
ENDROOT
BRANCH   1   7
ATOM      7  C   UNL     1      48.634   6.548  13.818  0.00  0.00    +0.000 C 
BRANCH   7   8
ATOM      8  C   UNL     1      49.399   7.785  13.333  0.00  0.00    +0.000 C 
BRANCH   8   9
ATOM      9  N   UNL     1      50.529   7.416  12.493  0.00  0.00    +0.000 NA
ATOM     10  H   UNL     1      51.131   6.769  13.004  0.00  0.00    +0.000 HD
ATOM     11  H   UNL     1      51.112   8.239  12.305  0.00  0.00    +0.000 HD
ENDBRANCH   8   9
ENDBRANCH   7   8
ENDBRANCH   1   7
BRANCH   4  12
ATOM     12  C   UNL     1      44.039   5.034  10.502  0.00  0.00    +0.000 C 
BRANCH  12  13
ATOM     13  N   UNL     1      44.229   3.765   9.780  0.00  0.00    +0.000 N 
ATOM     14  C   UNL     1      44.016   2.530  10.400  0.00  0.00    +0.000 A 
ATOM     15  C   UNL     1      44.310   1.614   9.428  0.00  0.00    +0.000 A 
ATOM     16  C   UNL     1      45.367   2.176   8.709  0.00  0.00    +0.000 A 
ATOM     17  C   UNL     1      46.468   1.681   7.989  0.00  0.00    +0.000 A 
ATOM     18  C   UNL     1      47.254   2.587   7.289  0.00  0.00    +0.000 A 
ATOM     19  F   UNL     1      48.390   2.164   6.721  0.00  0.00    +0.000 F 
ATOM     20  C   UNL     1      46.890   3.925   7.177  0.00  0.00    +0.000 A 
ATOM     21  C   UNL     1      45.802   4.443   7.884  0.00  0.00    +0.000 A 
ATOM     22  C   UNL     1      45.119   3.562   8.741  0.00  0.00    +0.000 A 
ENDBRANCH  12  13
ENDBRANCH   4  12
TORSDOF 5
ENDMDL
MODEL 3
REMARK VINA RESULT:    -6.761      2.694      6.417
REMARK INTER + INTRA:          -9.137
REMARK INTER:                  -8.860
REMARK INTRA:                  -0.277
REMARK UNBOUND:                -0.598
REMARK  Name = 
REMARK  5 active torsions:
REMARK  status: ('A' for Active; 'I' for Inactive)
REMARK    1  A    between atoms: N_1  and  C_2
REMARK    2  A    between atoms: C_2  and  C_3
REMARK    3  A    between atoms: C_3  and  C_4
REMARK    4  A    between atoms: C_7  and  C_8
REMARK    5  A    between atoms: C_8  and  N_9
REMARK                            x       y       z     vdW  Elec       q    Type
REMARK                         _______ _______ _______ _____ _____    ______ ____
ROOT
ATOM      1  C   UNL     1      47.083   5.508  13.753  0.00  0.00    +0.000 A 
ATOM      2  C   UNL     1      45.948   4.695  13.778  0.00  0.00    +0.000 A 
ATOM      3  C   UNL     1      45.087   4.641  12.659  0.00  0.00    +0.000 A 
ATOM      4  C   UNL     1      45.367   5.386  11.502  0.00  0.00    +0.000 A 
ATOM      5  C   UNL     1      46.506   6.185  11.486  0.00  0.00    +0.000 A 
ATOM      6  C   UNL     1      47.361   6.238  12.593  0.00  0.00    +0.000 A 
ENDROOT
BRANCH   1   7
ATOM      7  C   UNL     1      47.981   5.630  14.961  0.00  0.00    +0.000 C 
BRANCH   7   8
ATOM      8  C   UNL     1      47.788   4.517  15.999  0.00  0.00    +0.000 C 
BRANCH   8   9
ATOM      9  N   UNL     1      47.067   5.000  17.168  0.00  0.00    +0.000 NA
ATOM     10  H   UNL     1      47.530   5.838  17.526  0.00  0.00    +0.000 HD
ATOM     11  H   UNL     1      47.125   4.312  17.927  0.00  0.00    +0.000 HD
ENDBRANCH   8   9
ENDBRANCH   7   8
ENDBRANCH   1   7
BRANCH   4  12
ATOM     12  C   UNL     1      44.464   5.297  10.278  0.00  0.00    +0.000 C 
BRANCH  12  13
ATOM     13  N   UNL     1      44.467   3.966   9.650  0.00  0.00    +0.000 N 
ATOM     14  C   UNL     1      44.081   2.822  10.355  0.00  0.00    +0.000 A 
ATOM     15  C   UNL     1      44.236   1.807   9.453  0.00  0.00    +0.000 A 
ATOM     16  C   UNL     1      45.360   2.158   8.702  0.00  0.00    +0.000 A 
ATOM     17  C   UNL     1      46.375   1.459   8.026  0.00  0.00    +0.000 A 
ATOM     18  C   UNL     1      47.281   2.191   7.268  0.00  0.00    +0.000 A 
ATOM     19  F   UNL     1      48.342   1.569   6.738  0.00  0.00    +0.000 F 
ATOM     20  C   UNL     1      47.113   3.556   7.059  0.00  0.00    +0.000 A 
ATOM     21  C   UNL     1      46.113   4.274   7.720  0.00  0.00    +0.000 A 
ATOM     22  C   UNL     1      45.314   3.564   8.633  0.00  0.00    +0.000 A 
ENDBRANCH  12  13
ENDBRANCH   4  12
TORSDOF 5
ENDMDL
MODEL 4
REMARK VINA RESULT:    -6.020      2.832      6.102
REMARK INTER + INTRA:          -8.201
REMARK INTER:                  -7.731
REMARK INTRA:                  -0.470
REMARK UNBOUND:                -0.598
REMARK  Name = 
REMARK  5 active torsions:
REMARK  status: ('A' for Active; 'I' for Inactive)
REMARK    1  A    between atoms: N_1  and  C_2
REMARK    2  A    between atoms: C_2  and  C_3
REMARK    3  A    between atoms: C_3  and  C_4
REMARK    4  A    between atoms: C_7  and  C_8
REMARK    5  A    between atoms: C_8  and  N_9
REMARK                            x       y       z     vdW  Elec       q    Type
REMARK                         _______ _______ _______ _____ _____    ______ ____
ROOT
ATOM      1  C   UNL     1      47.549   7.752  12.748  0.00  0.00    +0.000 A 
ATOM      2  C   UNL     1      47.490   6.655  11.884  0.00  0.00    +0.000 A 
ATOM      3  C   UNL     1      46.250   6.231  11.356  0.00  0.00    +0.000 A 
ATOM      4  C   UNL     1      45.064   6.912  11.674  0.00  0.00    +0.000 A 
ATOM      5  C   UNL     1      45.137   8.009  12.528  0.00  0.00    +0.000 A 
ATOM      6  C   UNL     1      46.364   8.432  13.050  0.00  0.00    +0.000 A 
ENDROOT
BRANCH   1   7
ATOM      7  C   UNL     1      48.853   8.181  13.374  0.00  0.00    +0.000 C 
BRANCH   7   8
ATOM      8  C   UNL     1      49.151   7.512  14.722  0.00  0.00    +0.000 C 
BRANCH   8   9
ATOM      9  N   UNL     1      50.491   6.946  14.751  0.00  0.00    +0.000 NA
ATOM     10  H   UNL     1      51.028   7.392  15.497  0.00  0.00    +0.000 HD
ATOM     11  H   UNL     1      50.989   7.174  13.883  0.00  0.00    +0.000 HD
ENDBRANCH   8   9
ENDBRANCH   7   8
ENDBRANCH   1   7
BRANCH   4  12
ATOM     12  C   UNL     1      43.732   6.484  11.074  0.00  0.00    +0.000 C 
BRANCH  12  13
ATOM     13  N   UNL     1      43.572   5.023  10.998  0.00  0.00    +0.000 N 
ATOM     14  C   UNL     1      43.488   4.234  12.149  0.00  0.00    +0.000 A 
ATOM     15  C   UNL     1      43.368   2.959  11.672  0.00  0.00    +0.000 A 
ATOM     16  C   UNL     1      44.160   2.927  10.522  0.00  0.00    +0.000 A 
ATOM     17  C   UNL     1      44.914   1.950   9.849  0.00  0.00    +0.000 A 
ATOM     18  C   UNL     1      45.485   2.289   8.628  0.00  0.00    +0.000 A 
ATOM     19  F   UNL     1      46.328   1.432   8.041  0.00  0.00    +0.000 F 
ATOM     20  C   UNL     1      45.206   3.506   8.013  0.00  0.00    +0.000 A 
ATOM     21  C   UNL     1      44.461   4.494   8.662  0.00  0.00    +0.000 A 
ATOM     22  C   UNL     1      44.043   4.219   9.975  0.00  0.00    +0.000 A 
ENDBRANCH  12  13
ENDBRANCH   4  12
TORSDOF 5
ENDMDL
MODEL 5
REMARK VINA RESULT:    -5.977      2.985      6.417
REMARK INTER + INTRA:          -8.147
REMARK INTER:                  -7.697
REMARK INTRA:                  -0.449
REMARK UNBOUND:                -0.598
REMARK  Name = 
REMARK  5 active torsions:
REMARK  status: ('A' for Active; 'I' for Inactive)
REMARK    1  A    between atoms: N_1  and  C_2
REMARK    2  A    between atoms: C_2  and  C_3
REMARK    3  A    between atoms: C_3  and  C_4
REMARK    4  A    between atoms: C_7  and  C_8
REMARK    5  A    between atoms: C_8  and  N_9
REMARK                            x       y       z     vdW  Elec       q    Type
REMARK                         _______ _______ _______ _____ _____    ______ ____
ROOT
ATOM      1  C   UNL     1      46.770   9.199  12.144  0.00  0.00    +0.000 A 
ATOM      2  C   UNL     1      47.814   8.277  12.047  0.00  0.00    +0.000 A 
ATOM      3  C   UNL     1      47.584   6.910  12.320  0.00  0.00    +0.000 A 
ATOM      4  C   UNL     1      46.304   6.454  12.674  0.00  0.00    +0.000 A 
ATOM      5  C   UNL     1      45.270   7.381  12.758  0.00  0.00    +0.000 A 
ATOM      6  C   UNL     1      45.495   8.736  12.486  0.00  0.00    +0.000 A 
ENDROOT
BRANCH   1   7
ATOM      7  C   UNL     1      47.008  10.673  11.920  0.00  0.00    +0.000 C 
BRANCH   7   8
ATOM      8  C   UNL     1      48.490  11.068  11.881  0.00  0.00    +0.000 C 
BRANCH   8   9
ATOM      9  N   UNL     1      48.909  11.429  10.535  0.00  0.00    +0.000 NA
ATOM     10  H   UNL     1      48.157  11.945  10.076  0.00  0.00    +0.000 HD
ATOM     11  H   UNL     1      49.044  10.584   9.969  0.00  0.00    +0.000 HD
ENDBRANCH   8   9
ENDBRANCH   7   8
ENDBRANCH   1   7
BRANCH   4  12
ATOM     12  C   UNL     1      46.043   4.975  12.928  0.00  0.00    +0.000 C 
BRANCH  12  13
ATOM     13  N   UNL     1      45.045   4.397  12.013  0.00  0.00    +0.000 N 
ATOM     14  C   UNL     1      44.296   3.270  12.362  0.00  0.00    +0.000 A 
ATOM     15  C   UNL     1      43.514   3.035  11.266  0.00  0.00    +0.000 A 
ATOM     16  C   UNL     1      44.314   3.375  10.172  0.00  0.00    +0.000 A 
ATOM     17  C   UNL     1      44.425   2.946   8.838  0.00  0.00    +0.000 A 
ATOM     18  C   UNL     1      45.291   3.636   7.999  0.00  0.00    +0.000 A 
ATOM     19  F   UNL     1      45.529   3.160   6.771  0.00  0.00    +0.000 F 
ATOM     20  C   UNL     1      45.924   4.804   8.414  0.00  0.00    +0.000 A 
ATOM     21  C   UNL     1      45.831   5.249   9.736  0.00  0.00    +0.000 A 
ATOM     22  C   UNL     1      45.105   4.445  10.631  0.00  0.00    +0.000 A 
ENDBRANCH  12  13
ENDBRANCH   4  12
TORSDOF 5
ENDMDL
MODEL 6
REMARK VINA RESULT:    -5.908      1.547      2.319
REMARK INTER + INTRA:          -8.060
REMARK INTER:                  -7.408
REMARK INTRA:                  -0.652
REMARK UNBOUND:                -0.598
REMARK  Name = 
REMARK  5 active torsions:
REMARK  status: ('A' for Active; 'I' for Inactive)
REMARK    1  A    between atoms: N_1  and  C_2
REMARK    2  A    between atoms: C_2  and  C_3
REMARK    3  A    between atoms: C_3  and  C_4
REMARK    4  A    between atoms: C_7  and  C_8
REMARK    5  A    between atoms: C_8  and  N_9
REMARK                            x       y       z     vdW  Elec       q    Type
REMARK                         _______ _______ _______ _____ _____    ______ ____
ROOT
ATOM      1  C   UNL     1      44.713   3.095   9.738  0.00  0.00    +0.000 A 
ATOM      2  C   UNL     1      43.983   4.272   9.561  0.00  0.00    +0.000 A 
ATOM      3  C   UNL     1      43.848   5.192  10.625  0.00  0.00    +0.000 A 
ATOM      4  C   UNL     1      44.460   4.949  11.865  0.00  0.00    +0.000 A 
ATOM      5  C   UNL     1      45.193   3.777  12.026  0.00  0.00    +0.000 A 
ATOM      6  C   UNL     1      45.329   2.865  10.973  0.00  0.00    +0.000 A 
ENDROOT
BRANCH   1   7
ATOM      7  C   UNL     1      44.815   2.068   8.635  0.00  0.00    +0.000 C 
BRANCH   7   8
ATOM      8  C   UNL     1      46.245   1.827   8.136  0.00  0.00    +0.000 C 
BRANCH   8   9
ATOM      9  N   UNL     1      46.521   0.406   7.979  0.00  0.00    +0.000 NA
ATOM     10  H   UNL     1      47.350   0.162   8.524  0.00  0.00    +0.000 HD
ATOM     11  H   UNL     1      46.765   0.200   7.004  0.00  0.00    +0.000 HD
ENDBRANCH   8   9
ENDBRANCH   7   8
ENDBRANCH   1   7
BRANCH   4  12
ATOM     12  C   UNL     1      44.353   5.958  13.001  0.00  0.00    +0.000 C 
BRANCH  12  13
ATOM     13  N   UNL     1      45.191   7.151  12.798  0.00  0.00    +0.000 N 
ATOM     14  C   UNL     1      44.805   8.181  11.935  0.00  0.00    +0.000 A 
ATOM     15  C   UNL     1      45.834   9.077  12.004  0.00  0.00    +0.000 A 
ATOM     16  C   UNL     1      46.985   8.297  12.139  0.00  0.00    +0.000 A 
ATOM     17  C   UNL     1      48.334   8.423  11.765  0.00  0.00    +0.000 A 
ATOM     18  C   UNL     1      49.228   7.454  12.201  0.00  0.00    +0.000 A 
ATOM     19  F   UNL     1      50.484   7.467  11.736  0.00  0.00    +0.000 F 
ATOM     20  C   UNL     1      48.841   6.465  13.099  0.00  0.00    +0.000 A 
ATOM     21  C   UNL     1      47.506   6.317  13.486  0.00  0.00    +0.000 A 
ATOM     22  C   UNL     1      46.571   7.184  12.895  0.00  0.00    +0.000 A 
ENDBRANCH  12  13
ENDBRANCH   4  12
TORSDOF 5
ENDMDL
MODEL 7
REMARK VINA RESULT:    -5.195      3.388      5.420
REMARK INTER + INTRA:          -7.159
REMARK INTER:                  -6.612
REMARK INTRA:                  -0.547
REMARK UNBOUND:                -0.598
REMARK  Name = 
REMARK  5 active torsions:
REMARK  status: ('A' for Active; 'I' for Inactive)
REMARK    1  A    between atoms: N_1  and  C_2
REMARK    2  A    between atoms: C_2  and  C_3
REMARK    3  A    between atoms: C_3  and  C_4
REMARK    4  A    between atoms: C_7  and  C_8
REMARK    5  A    between atoms: C_8  and  N_9
REMARK                            x       y       z     vdW  Elec       q    Type
REMARK                         _______ _______ _______ _____ _____    ______ ____
ROOT
ATOM      1  C   UNL     1      45.045   5.059  11.709  0.00  0.00    +0.000 A 
ATOM      2  C   UNL     1      45.679   6.159  11.128  0.00  0.00    +0.000 A 
ATOM      3  C   UNL     1      46.848   6.698  11.712  0.00  0.00    +0.000 A 
ATOM      4  C   UNL     1      47.399   6.126  12.870  0.00  0.00    +0.000 A 
ATOM      5  C   UNL     1      46.764   5.024  13.434  0.00  0.00    +0.000 A 
ATOM      6  C   UNL     1      45.607   4.488  12.856  0.00  0.00    +0.000 A 
ENDROOT
BRANCH   1   7
ATOM      7  C   UNL     1      43.760   4.509  11.138  0.00  0.00    +0.000 C 
BRANCH   7   8
ATOM      8  C   UNL     1      43.836   3.030  10.738  0.00  0.00    +0.000 C 
BRANCH   8   9
ATOM      9  N   UNL     1      43.035   2.198  11.625  0.00  0.00    +0.000 NA
ATOM     10  H   UNL     1      43.654   1.684  12.254  0.00  0.00    +0.000 HD
ATOM     11  H   UNL     1      42.540   1.481  11.084  0.00  0.00    +0.000 HD
ENDBRANCH   8   9
ENDBRANCH   7   8
ENDBRANCH   1   7
BRANCH   4  12
ATOM     12  C   UNL     1      48.682   6.677  13.479  0.00  0.00    +0.000 C 
BRANCH  12  13
ATOM     13  N   UNL     1      48.462   7.401  14.741  0.00  0.00    +0.000 N 
ATOM     14  C   UNL     1      48.628   8.786  14.830  0.00  0.00    +0.000 A 
ATOM     15  C   UNL     1      48.357   9.072  16.139  0.00  0.00    +0.000 A 
ATOM     16  C   UNL     1      48.853   7.981  16.857  0.00  0.00    +0.000 A 
ATOM     17  C   UNL     1      49.394   7.784  18.140  0.00  0.00    +0.000 A 
ATOM     18  C   UNL     1      49.669   6.483  18.542  0.00  0.00    +0.000 A 
ATOM     19  F   UNL     1      50.321   6.280  19.693  0.00  0.00    +0.000 F 
ATOM     20  C   UNL     1      49.292   5.391  17.767  0.00  0.00    +0.000 A 
ATOM     21  C   UNL     1      48.754   5.560  16.488  0.00  0.00    +0.000 A 
ATOM     22  C   UNL     1      48.651   6.876  16.007  0.00  0.00    +0.000 A 
ENDBRANCH  12  13
ENDBRANCH   4  12
TORSDOF 5
ENDMDL
MODEL 8
REMARK VINA RESULT:    -5.160      3.082      4.780
REMARK INTER + INTRA:          -7.115
REMARK INTER:                  -6.493
REMARK INTRA:                  -0.622
REMARK UNBOUND:                -0.598
REMARK  Name = 
REMARK  5 active torsions:
REMARK  status: ('A' for Active; 'I' for Inactive)
REMARK    1  A    between atoms: N_1  and  C_2
REMARK    2  A    between atoms: C_2  and  C_3
REMARK    3  A    between atoms: C_3  and  C_4
REMARK    4  A    between atoms: C_7  and  C_8
REMARK    5  A    between atoms: C_8  and  N_9
REMARK                            x       y       z     vdW  Elec       q    Type
REMARK                         _______ _______ _______ _____ _____    ______ ____
ROOT
ATOM      1  C   UNL     1      45.041   4.236  11.419  0.00  0.00    +0.000 A 
ATOM      2  C   UNL     1      45.113   5.421  10.682  0.00  0.00    +0.000 A 
ATOM      3  C   UNL     1      45.680   6.582  11.254  0.00  0.00    +0.000 A 
ATOM      4  C   UNL     1      46.196   6.559  12.559  0.00  0.00    +0.000 A 
ATOM      5  C   UNL     1      46.128   5.371  13.280  0.00  0.00    +0.000 A 
ATOM      6  C   UNL     1      45.569   4.219  12.715  0.00  0.00    +0.000 A 
ENDROOT
BRANCH   1   7
ATOM      7  C   UNL     1      44.381   3.003  10.851  0.00  0.00    +0.000 C 
BRANCH   7   8
ATOM      8  C   UNL     1      44.598   2.816   9.344  0.00  0.00    +0.000 C 
BRANCH   8   9
ATOM      9  N   UNL     1      45.303   1.575   9.058  0.00  0.00    +0.000 NA
ATOM     10  H   UNL     1      45.676   1.612   8.107  0.00  0.00    +0.000 HD
ATOM     11  H   UNL     1      44.646   0.787   9.063  0.00  0.00    +0.000 HD
ENDBRANCH   8   9
ENDBRANCH   7   8
ENDBRANCH   1   7
BRANCH   4  12
ATOM     12  C   UNL     1      46.847   7.797  13.164  0.00  0.00    +0.000 C 
BRANCH  12  13
ATOM     13  N   UNL     1      48.210   7.551  13.660  0.00  0.00    +0.000 N 
ATOM     14  C   UNL     1      48.553   7.767  14.998  0.00  0.00    +0.000 A 
ATOM     15  C   UNL     1      49.882   7.452  15.058  0.00  0.00    +0.000 A 
ATOM     16  C   UNL     1      50.409   7.874  13.835  0.00  0.00    +0.000 A 
ATOM     17  C   UNL     1      51.653   8.352  13.388  0.00  0.00    +0.000 A 
ATOM     18  C   UNL     1      51.824   8.560  12.025  0.00  0.00    +0.000 A 
ATOM     19  F   UNL     1      52.942   9.154  11.590  0.00  0.00    +0.000 F 
ATOM     20  C   UNL     1      50.852   8.174  11.107  0.00  0.00    +0.000 A 
ATOM     21  C   UNL     1      49.607   7.698  11.526  0.00  0.00    +0.000 A 
ATOM     22  C   UNL     1      49.368   7.666  12.910  0.00  0.00    +0.000 A 
ENDBRANCH  12  13
ENDBRANCH   4  12
TORSDOF 5
ENDMDL
MODEL 9
REMARK VINA RESULT:    -4.933      3.991      6.376
REMARK INTER + INTRA:          -6.828
REMARK INTER:                  -6.246
REMARK INTRA:                  -0.583
REMARK UNBOUND:                -0.598
REMARK  Name = 
REMARK  5 active torsions:
REMARK  status: ('A' for Active; 'I' for Inactive)
REMARK    1  A    between atoms: N_1  and  C_2
REMARK    2  A    between atoms: C_2  and  C_3
REMARK    3  A    between atoms: C_3  and  C_4
REMARK    4  A    between atoms: C_7  and  C_8
REMARK    5  A    between atoms: C_8  and  N_9
REMARK                            x       y       z     vdW  Elec       q    Type
REMARK                         _______ _______ _______ _____ _____    ______ ____
ROOT
ATOM      1  C   UNL     1      45.311   6.078  12.112  0.00  0.00    +0.000 A 
ATOM      2  C   UNL     1      45.832   7.353  12.340  0.00  0.00    +0.000 A 
ATOM      3  C   UNL     1      46.985   7.518  13.140  0.00  0.00    +0.000 A 
ATOM      4  C   UNL     1      47.634   6.406  13.700  0.00  0.00    +0.000 A 
ATOM      5  C   UNL     1      47.111   5.140  13.457  0.00  0.00    +0.000 A 
ATOM      6  C   UNL     1      45.970   4.974  12.664  0.00  0.00    +0.000 A 
ENDROOT
BRANCH   1   7
ATOM      7  C   UNL     1      44.043   5.885  11.315  0.00  0.00    +0.000 C 
BRANCH   7   8
ATOM      8  C   UNL     1      43.028   4.942  11.972  0.00  0.00    +0.000 C 
BRANCH   8   9
ATOM      9  N   UNL     1      42.622   5.428  13.283  0.00  0.00    +0.000 NA
ATOM     10  H   UNL     1      43.157   4.940  14.003  0.00  0.00    +0.000 HD
ATOM     11  H   UNL     1      41.641   5.184  13.461  0.00  0.00    +0.000 HD
ENDBRANCH   8   9
ENDBRANCH   7   8
ENDBRANCH   1   7
BRANCH   4  12
ATOM     12  C   UNL     1      48.902   6.576  14.527  0.00  0.00    +0.000 C 
BRANCH  12  13
ATOM     13  N   UNL     1      48.637   6.959  15.923  0.00  0.00    +0.000 N 
ATOM     14  C   UNL     1      49.189   8.115  16.484  0.00  0.00    +0.000 A 
ATOM     15  C   UNL     1      48.734   8.111  17.773  0.00  0.00    +0.000 A 
ATOM     16  C   UNL     1      48.706   6.764  18.143  0.00  0.00    +0.000 A 
ATOM     17  C   UNL     1      48.865   6.048  19.342  0.00  0.00    +0.000 A 
ATOM     18  C   UNL     1      48.639   4.677  19.321  0.00  0.00    +0.000 A 
ATOM     19  F   UNL     1      48.927   3.951  20.407  0.00  0.00    +0.000 F 
ATOM     20  C   UNL     1      48.131   4.045  18.190  0.00  0.00    +0.000 A 
ATOM     21  C   UNL     1      47.966   4.734  16.985  0.00  0.00    +0.000 A 
ATOM     22  C   UNL     1      48.374   6.079  16.958  0.00  0.00    +0.000 A 
ENDBRANCH  12  13
ENDBRANCH   4  12
TORSDOF 5
ENDMDL
