MODEL 1
REMARK VINA RESULT:    -7.586      0.000      0.000
REMARK INTER + INTRA:          -9.890
REMARK INTER:                  -9.582
REMARK INTRA:                  -0.308
REMARK UNBOUND:                -0.308
REMARK  Name = 
REMARK  5 active torsions:
REMARK  status: ('A' for Active; 'I' for Inactive)
REMARK    1  A    between atoms: C_2  and  C_4
REMARK    2  A    between atoms: N_8  and  CA_9
REMARK    3  A    between atoms: CA_9  and  C_10
REMARK    4  A    between atoms: CA_9  and  C_12
REMARK    5  A    between atoms: C_10  and  O_11
REMARK                            x       y       z     vdW  Elec       q    Type
REMARK                         _______ _______ _______ _____ _____    ______ ____
ROOT
ATOM      1  C   UNL     1      46.389   2.685   7.534  0.00  0.00    +0.000 A 
ATOM      2  C   UNL     1      45.741   1.717   8.289  0.00  0.00    +0.000 A 
ATOM      3  C   UNL     1      44.985   2.116   9.398  0.00  0.00    +0.000 A 
ATOM      4  C   UNL     1      44.868   3.466   9.726  0.00  0.00    +0.000 A 
ATOM      5  N   UNL     1      44.004   3.810  10.773  0.00  0.00    +0.000 N 
ATOM      6  N   UNL     1      45.500   4.407   8.993  0.00  0.00    +0.000 NA
ATOM      7  C   UNL     1      46.264   4.004   7.940  0.00  0.00    +0.000 A 
ATOM      8  H   UNL     1      44.210   3.303  11.625  0.00  0.00    +0.000 HD
ENDROOT
BRANCH   1  10
ATOM      9  N   UNL     1      47.093   3.249   5.277  0.00  0.00    +0.000 N 
ATOM     10  C   UNL     1      47.195   2.378   6.331  0.00  0.00    +0.000 C 
ATOM     11  O   UNL     1      47.950   1.416   6.271  0.00  0.00    +0.000 OA
ATOM     12  H   UNL     1      47.727   3.088   4.498  0.00  0.00    +0.000 HD
ATOM     13  H   UNL     1      46.698   4.175   5.359  0.00  0.00    +0.000 HD
ENDBRANCH   1  10
BRANCH   5  14
ATOM     14  CA  UNL     1      43.695   5.237  10.975  0.00  0.00    +0.000 C 
BRANCH  14  15
ATOM     15  C   UNL     1      44.787   5.966  11.762  0.00  0.00    +0.000 A 
ATOM     16  C   UNL     1      45.504   5.270  12.756  0.00  0.00    +0.000 A 
ATOM     17  C   UNL     1      46.609   5.856  13.389  0.00  0.00    +0.000 A 
ATOM     18  C   UNL     1      47.012   7.141  13.042  0.00  0.00    +0.000 A 
ATOM     19  C   UNL     1      46.293   7.856  12.087  0.00  0.00    +0.000 A 
ATOM     20  C   UNL     1      45.188   7.277  11.457  0.00  0.00    +0.000 A 
ENDBRANCH  14  15
BRANCH  14  21
ATOM     21  C   UNL     1      42.332   5.311  11.717  0.00  0.00    +0.000 C 
BRANCH  21  22
ATOM     22  O   UNL     1      41.804   6.646  11.759  0.00  0.00    +0.000 OA
ATOM     23  H   UNL     1      42.196   7.037  12.561  0.00  0.00    +0.000 HD
ENDBRANCH  21  22
ENDBRANCH  14  21
ENDBRANCH   5  14
TORSDOF 5
ENDMDL
MODEL 2
REMARK VINA RESULT:    -7.004      2.930      6.495
REMARK INTER + INTRA:          -9.155
REMARK INTER:                  -8.731
REMARK INTRA:                  -0.424
REMARK UNBOUND:                -0.308
REMARK  Name = 
REMARK  5 active torsions:
REMARK  status: ('A' for Active; 'I' for Inactive)
REMARK    1  A    between atoms: C_2  and  C_4
REMARK    2  A    between atoms: N_8  and  CA_9
REMARK    3  A    between atoms: CA_9  and  C_10
REMARK    4  A    between atoms: CA_9  and  C_12
REMARK    5  A    between atoms: C_10  and  O_11
REMARK                            x       y       z     vdW  Elec       q    Type
REMARK                         _______ _______ _______ _____ _____    ______ ____
ROOT
ATOM      1  C   UNL     1      46.783   8.062  12.862  0.00  0.00    +0.000 A 
ATOM      2  C   UNL     1      45.589   8.474  12.285  0.00  0.00    +0.000 A 
ATOM      3  C   UNL     1      44.846   7.554  11.536  0.00  0.00    +0.000 A 
ATOM      4  C   UNL     1      45.287   6.239  11.391  0.00  0.00    +0.000 A 
ATOM      5  N   UNL     1      44.442   5.337  10.732  0.00  0.00    +0.000 N 
ATOM      6  N   UNL     1      46.448   5.840  11.950  0.00  0.00    +0.000 NA
ATOM      7  C   UNL     1      47.182   6.753  12.644  0.00  0.00    +0.000 A 
ATOM      8  H   UNL     1      44.160   5.671   9.818  0.00  0.00    +0.000 HD
ENDROOT
BRANCH   1  10
ATOM      9  N   UNL     1      47.396   8.951  15.039  0.00  0.00    +0.000 N 
ATOM     10  C   UNL     1      47.637   8.944  13.690  0.00  0.00    +0.000 C 
ATOM     11  O   UNL     1      48.543   9.617  13.217  0.00  0.00    +0.000 OA
ATOM     12  H   UNL     1      48.052   9.478  15.611  0.00  0.00    +0.000 HD
ATOM     13  H   UNL     1      46.850   8.242  15.510  0.00  0.00    +0.000 HD
ENDBRANCH   1  10
BRANCH   5  14
ATOM     14  CA  UNL     1      44.788   3.906  10.776  0.00  0.00    +0.000 C 
BRANCH  14  15
ATOM     15  C   UNL     1      45.298   3.386   9.429  0.00  0.00    +0.000 A 
ATOM     16  C   UNL     1      45.709   4.305   8.444  0.00  0.00    +0.000 A 
ATOM     17  C   UNL     1      46.323   3.868   7.263  0.00  0.00    +0.000 A 
ATOM     18  C   UNL     1      46.532   2.510   7.047  0.00  0.00    +0.000 A 
ATOM     19  C   UNL     1      46.099   1.585   7.994  0.00  0.00    +0.000 A 
ATOM     20  C   UNL     1      45.483   2.018   9.172  0.00  0.00    +0.000 A 
ENDBRANCH  14  15
BRANCH  14  21
ATOM     21  C   UNL     1      43.511   3.138  11.220  0.00  0.00    +0.000 C 
BRANCH  21  22
ATOM     22  O   UNL     1      43.709   2.410  12.442  0.00  0.00    +0.000 OA
ATOM     23  H   UNL     1      44.559   1.950  12.316  0.00  0.00    +0.000 HD
ENDBRANCH  21  22
ENDBRANCH  14  21
ENDBRANCH   5  14
TORSDOF 5
ENDMDL
MODEL 3
REMARK VINA RESULT:    -6.768      3.239      6.659
REMARK INTER + INTRA:          -8.857
REMARK INTER:                  -8.440
REMARK INTRA:                  -0.417
REMARK UNBOUND:                -0.308
REMARK  Name = 
REMARK  5 active torsions:
REMARK  status: ('A' for Active; 'I' for Inactive)
REMARK    1  A    between atoms: C_2  and  C_4
REMARK    2  A    between atoms: N_8  and  CA_9
REMARK    3  A    between atoms: CA_9  and  C_10
REMARK    4  A    between atoms: CA_9  and  C_12
REMARK    5  A    between atoms: C_10  and  O_11
REMARK                            x       y       z     vdW  Elec       q    Type
REMARK                         _______ _______ _______ _____ _____    ______ ____
ROOT
ATOM      1  C   UNL     1      47.617   5.165  15.224  0.00  0.00    +0.000 A 
ATOM      2  C   UNL     1      47.827   6.310  14.467  0.00  0.00    +0.000 A 
ATOM      3  C   UNL     1      47.216   6.415  13.212  0.00  0.00    +0.000 A 
ATOM      4  C   UNL     1      46.393   5.393  12.739  0.00  0.00    +0.000 A 
ATOM      5  N   UNL     1      45.717   5.607  11.531  0.00  0.00    +0.000 N 
ATOM      6  N   UNL     1      46.191   4.279  13.474  0.00  0.00    +0.000 NA
ATOM      7  C   UNL     1      46.822   4.172  14.676  0.00  0.00    +0.000 A 
ATOM      8  H   UNL     1      46.343   5.871  10.780  0.00  0.00    +0.000 HD
ENDROOT
BRANCH   1  10
ATOM      9  N   UNL     1      47.356   5.135  17.640  0.00  0.00    +0.000 N 
ATOM     10  C   UNL     1      48.196   4.960  16.571  0.00  0.00    +0.000 C 
ATOM     11  O   UNL     1      49.358   4.617  16.744  0.00  0.00    +0.000 OA
ATOM     12  H   UNL     1      47.732   4.890  18.553  0.00  0.00    +0.000 HD
ATOM     13  H   UNL     1      46.349   5.163  17.556  0.00  0.00    +0.000 HD
ENDBRANCH   1  10
BRANCH   5  14
ATOM     14  CA  UNL     1      44.673   4.643  11.141  0.00  0.00    +0.000 C 
BRANCH  14  15
ATOM     15  C   UNL     1      45.041   3.864   9.876  0.00  0.00    +0.000 A 
ATOM     16  C   UNL     1      45.573   4.554   8.769  0.00  0.00    +0.000 A 
ATOM     17  C   UNL     1      46.064   3.859   7.655  0.00  0.00    +0.000 A 
ATOM     18  C   UNL     1      46.026   2.469   7.628  0.00  0.00    +0.000 A 
ATOM     19  C   UNL     1      45.471   1.772   8.698  0.00  0.00    +0.000 A 
ATOM     20  C   UNL     1      44.978   2.462   9.809  0.00  0.00    +0.000 A 
ENDBRANCH  14  15
BRANCH  14  21
ATOM     21  C   UNL     1      43.359   5.446  10.936  0.00  0.00    +0.000 C 
BRANCH  21  22
ATOM     22  O   UNL     1      42.275   4.931  11.726  0.00  0.00    +0.000 OA
ATOM     23  H   UNL     1      42.711   4.463  12.461  0.00  0.00    +0.000 HD
ENDBRANCH  21  22
ENDBRANCH  14  21
ENDBRANCH   5  14
TORSDOF 5
ENDMDL
MODEL 4
REMARK VINA RESULT:    -6.667      3.141      6.520
REMARK INTER + INTRA:          -8.729
REMARK INTER:                  -8.282
REMARK INTRA:                  -0.447
REMARK UNBOUND:                -0.308
REMARK  Name = 
REMARK  5 active torsions:
REMARK  status: ('A' for Active; 'I' for Inactive)
REMARK    1  A    between atoms: C_2  and  C_4
REMARK    2  A    between atoms: N_8  and  CA_9
REMARK    3  A    between atoms: CA_9  and  C_10
REMARK    4  A    between atoms: CA_9  and  C_12
REMARK    5  A    between atoms: C_10  and  O_11
REMARK                            x       y       z     vdW  Elec       q    Type
REMARK                         _______ _______ _______ _____ _____    ______ ____
ROOT
ATOM      1  C   UNL     1      47.927   6.797  14.185  0.00  0.00    +0.000 A 
ATOM      2  C   UNL     1      47.573   7.834  13.332  0.00  0.00    +0.000 A 
ATOM      3  C   UNL     1      46.733   7.562  12.247  0.00  0.00    +0.000 A 
ATOM      4  C   UNL     1      46.242   6.274  12.037  0.00  0.00    +0.000 A 
ATOM      5  N   UNL     1      45.313   6.090  11.005  0.00  0.00    +0.000 N 
ATOM      6  N   UNL     1      46.588   5.265  12.865  0.00  0.00    +0.000 NA
ATOM      7  C   UNL     1      47.437   5.534  13.895  0.00  0.00    +0.000 A 
ATOM      8  H   UNL     1      45.650   6.440  10.116  0.00  0.00    +0.000 HD
ENDROOT
BRANCH   1  10
ATOM      9  N   UNL     1      48.412   7.935  16.277  0.00  0.00    +0.000 N 
ATOM     10  C   UNL     1      48.791   6.975  15.374  0.00  0.00    +0.000 C 
ATOM     11  O   UNL     1      49.782   6.288  15.578  0.00  0.00    +0.000 OA
ATOM     12  H   UNL     1      48.951   7.979  17.139  0.00  0.00    +0.000 HD
ATOM     13  H   UNL     1      47.489   8.346  16.296  0.00  0.00    +0.000 HD
ENDBRANCH   1  10
BRANCH   5  14
ATOM     14  CA  UNL     1      44.616   4.794  10.924  0.00  0.00    +0.000 C 
BRANCH  14  15
ATOM     15  C   UNL     1      45.076   3.958   9.726  0.00  0.00    +0.000 A 
ATOM     16  C   UNL     1      45.719   4.593   8.645  0.00  0.00    +0.000 A 
ATOM     17  C   UNL     1      46.289   3.845   7.606  0.00  0.00    +0.000 A 
ATOM     18  C   UNL     1      46.222   2.456   7.628  0.00  0.00    +0.000 A 
ATOM     19  C   UNL     1      45.558   1.813   8.671  0.00  0.00    +0.000 A 
ATOM     20  C   UNL     1      44.986   2.557   9.707  0.00  0.00    +0.000 A 
ENDBRANCH  14  15
BRANCH  14  21
ATOM     21  C   UNL     1      43.094   5.095  10.839  0.00  0.00    +0.000 C 
BRANCH  21  22
ATOM     22  O   UNL     1      42.429   4.910  12.099  0.00  0.00    +0.000 OA
ATOM     23  H   UNL     1      41.634   5.469  12.038  0.00  0.00    +0.000 HD
ENDBRANCH  21  22
ENDBRANCH  14  21
ENDBRANCH   5  14
TORSDOF 5
ENDMDL
MODEL 5
REMARK VINA RESULT:    -6.592      2.812      5.800
REMARK INTER + INTRA:          -8.634
REMARK INTER:                  -9.328
REMARK INTRA:                   0.694
REMARK UNBOUND:                -0.308
REMARK  Name = 
REMARK  5 active torsions:
REMARK  status: ('A' for Active; 'I' for Inactive)
REMARK    1  A    between atoms: C_2  and  C_4
REMARK    2  A    between atoms: N_8  and  CA_9
REMARK    3  A    between atoms: CA_9  and  C_10
REMARK    4  A    between atoms: CA_9  and  C_12
REMARK    5  A    between atoms: C_10  and  O_11
REMARK                            x       y       z     vdW  Elec       q    Type
REMARK                         _______ _______ _______ _____ _____    ______ ____
ROOT
ATOM      1  C   UNL     1      47.245   5.781  13.395  0.00  0.00    +0.000 A 
ATOM      2  C   UNL     1      47.164   4.515  13.960  0.00  0.00    +0.000 A 
ATOM      3  C   UNL     1      46.292   3.577  13.397  0.00  0.00    +0.000 A 
ATOM      4  C   UNL     1      45.532   3.901  12.274  0.00  0.00    +0.000 A 
ATOM      5  N   UNL     1      44.769   2.884  11.687  0.00  0.00    +0.000 N 
ATOM      6  N   UNL     1      45.609   5.132  11.727  0.00  0.00    +0.000 NA
ATOM      7  C   UNL     1      46.432   6.050  12.306  0.00  0.00    +0.000 A 
ATOM      8  H   UNL     1      44.156   2.429  12.353  0.00  0.00    +0.000 HD
ENDROOT
BRANCH   1  10
ATOM      9  N   UNL     1      47.557   7.936  14.476  0.00  0.00    +0.000 N 
ATOM     10  C   UNL     1      48.148   6.843  13.896  0.00  0.00    +0.000 C 
ATOM     11  O   UNL     1      49.367   6.754  13.835  0.00  0.00    +0.000 OA
ATOM     12  H   UNL     1      48.185   8.609  14.909  0.00  0.00    +0.000 HD
ATOM     13  H   UNL     1      46.594   7.950  14.781  0.00  0.00    +0.000 HD
ENDBRANCH   1  10
BRANCH   5  14
ATOM     14  CA  UNL     1      44.151   3.151  10.376  0.00  0.00    +0.000 C 
BRANCH  14  15
ATOM     15  C   UNL     1      45.155   3.046   9.225  0.00  0.00    +0.000 A 
ATOM     16  C   UNL     1      45.666   1.784   8.865  0.00  0.00    +0.000 A 
ATOM     17  C   UNL     1      46.464   1.629   7.724  0.00  0.00    +0.000 A 
ATOM     18  C   UNL     1      46.767   2.730   6.929  0.00  0.00    +0.000 A 
ATOM     19  C   UNL     1      46.300   3.992   7.290  0.00  0.00    +0.000 A 
ATOM     20  C   UNL     1      45.506   4.150   8.430  0.00  0.00    +0.000 A 
ENDBRANCH  14  15
BRANCH  14  21
ATOM     21  C   UNL     1      43.528   4.573  10.442  0.00  0.00    +0.000 C 
BRANCH  21  22
ATOM     22  O   UNL     1      42.457   4.657  11.397  0.00  0.00    +0.000 OA
ATOM     23  H   UNL     1      41.651   4.504  10.871  0.00  0.00    +0.000 HD
ENDBRANCH  21  22
ENDBRANCH  14  21
ENDBRANCH   5  14
TORSDOF 5
ENDMDL
MODEL 6
REMARK VINA RESULT:    -5.945      3.288      4.913
REMARK INTER + INTRA:          -7.817
REMARK INTER:                  -7.328
REMARK INTRA:                  -0.488
REMARK UNBOUND:                -0.308
REMARK  Name = 
REMARK  5 active torsions:
REMARK  status: ('A' for Active; 'I' for Inactive)
REMARK    1  A    between atoms: C_2  and  C_4
REMARK    2  A    between atoms: N_8  and  CA_9
REMARK    3  A    between atoms: CA_9  and  C_10
REMARK    4  A    between atoms: CA_9  and  C_12
REMARK    5  A    between atoms: C_10  and  O_11
REMARK                            x       y       z     vdW  Elec       q    Type
REMARK                         _______ _______ _______ _____ _____    ______ ____
ROOT
ATOM      1  C   UNL     1      44.851   3.835  11.489  0.00  0.00    +0.000 A 
ATOM      2  C   UNL     1      45.331   3.823  12.792  0.00  0.00    +0.000 A 
ATOM      3  C   UNL     1      46.113   4.895  13.236  0.00  0.00    +0.000 A 
ATOM      4  C   UNL     1      46.388   5.969  12.390  0.00  0.00    +0.000 A 
ATOM      5  N   UNL     1      47.074   7.064  12.928  0.00  0.00    +0.000 N 
ATOM      6  N   UNL     1      45.923   5.979  11.122  0.00  0.00    +0.000 NA
ATOM      7  C   UNL     1      45.196   4.913  10.689  0.00  0.00    +0.000 A 
ATOM      8  H   UNL     1      47.943   6.794  13.375  0.00  0.00    +0.000 HD
ENDROOT
BRANCH   1  10
ATOM      9  N   UNL     1      44.438   2.168   9.770  0.00  0.00    +0.000 N 
ATOM     10  C   UNL     1      43.999   2.765  10.923  0.00  0.00    +0.000 C 
ATOM     11  O   UNL     1      42.964   2.393  11.460  0.00  0.00    +0.000 OA
ATOM     12  H   UNL     1      43.902   1.366   9.446  0.00  0.00    +0.000 HD
ATOM     13  H   UNL     1      45.386   2.249   9.429  0.00  0.00    +0.000 HD
ENDBRANCH   1  10
BRANCH   5  14
ATOM     14  CA  UNL     1      47.165   8.291  12.117  0.00  0.00    +0.000 C 
BRANCH  14  15
ATOM     15  C   UNL     1      48.613   8.679  11.804  0.00  0.00    +0.000 A 
ATOM     16  C   UNL     1      49.587   7.669  11.672  0.00  0.00    +0.000 A 
ATOM     17  C   UNL     1      50.884   7.973  11.236  0.00  0.00    +0.000 A 
ATOM     18  C   UNL     1      51.228   9.285  10.931  0.00  0.00    +0.000 A 
ATOM     19  C   UNL     1      50.289  10.301  11.091  0.00  0.00    +0.000 A 
ATOM     20  C   UNL     1      48.995  10.002  11.529  0.00  0.00    +0.000 A 
ENDBRANCH  14  15
BRANCH  14  21
ATOM     21  C   UNL     1      46.447   9.420  12.908  0.00  0.00    +0.000 C 
BRANCH  21  22
ATOM     22  O   UNL     1      45.022   9.241  12.943  0.00  0.00    +0.000 OA
ATOM     23  H   UNL     1      44.900   8.275  13.000  0.00  0.00    +0.000 HD
ENDBRANCH  21  22
ENDBRANCH  14  21
ENDBRANCH   5  14
TORSDOF 5
ENDMDL
MODEL 7
REMARK VINA RESULT:    -5.916      5.422      8.317
REMARK INTER + INTRA:          -7.780
REMARK INTER:                  -7.295
REMARK INTRA:                  -0.485
REMARK UNBOUND:                -0.308
REMARK  Name = 
REMARK  5 active torsions:
REMARK  status: ('A' for Active; 'I' for Inactive)
REMARK    1  A    between atoms: C_2  and  C_4
REMARK    2  A    between atoms: N_8  and  CA_9
REMARK    3  A    between atoms: CA_9  and  C_10
REMARK    4  A    between atoms: CA_9  and  C_12
REMARK    5  A    between atoms: C_10  and  O_11
REMARK                            x       y       z     vdW  Elec       q    Type
REMARK                         _______ _______ _______ _____ _____    ______ ____
ROOT
ATOM      1  C   UNL     1      48.620   4.173  18.358  0.00  0.00    +0.000 A 
ATOM      2  C   UNL     1      48.676   2.962  17.681  0.00  0.00    +0.000 A 
ATOM      3  C   UNL     1      48.054   2.855  16.432  0.00  0.00    +0.000 A 
ATOM      4  C   UNL     1      47.406   3.953  15.867  0.00  0.00    +0.000 A 
ATOM      5  N   UNL     1      46.906   3.817  14.566  0.00  0.00    +0.000 N 
ATOM      6  N   UNL     1      47.350   5.130  16.526  0.00  0.00    +0.000 NA
ATOM      7  C   UNL     1      47.925   5.211  17.758  0.00  0.00    +0.000 A 
ATOM      8  H   UNL     1      46.295   3.016  14.470  0.00  0.00    +0.000 HD
ENDROOT
BRANCH   1  10
ATOM      9  N   UNL     1      48.568   3.989  20.780  0.00  0.00    +0.000 N 
ATOM     10  C   UNL     1      49.260   4.404  19.672  0.00  0.00    +0.000 C 
ATOM     11  O   UNL     1      50.369   4.910  19.786  0.00  0.00    +0.000 OA
ATOM     12  H   UNL     1      49.059   4.056  21.669  0.00  0.00    +0.000 HD
ATOM     13  H   UNL     1      47.787   3.349  20.739  0.00  0.00    +0.000 HD
ENDBRANCH   1  10
BRANCH   5  14
ATOM     14  CA  UNL     1      46.432   5.030  13.876  0.00  0.00    +0.000 C 
BRANCH  14  15
ATOM     15  C   UNL     1      45.235   4.751  12.963  0.00  0.00    +0.000 A 
ATOM     16  C   UNL     1      45.231   3.593  12.161  0.00  0.00    +0.000 A 
ATOM     17  C   UNL     1      44.092   3.226  11.431  0.00  0.00    +0.000 A 
ATOM     18  C   UNL     1      42.944   4.010  11.488  0.00  0.00    +0.000 A 
ATOM     19  C   UNL     1      42.942   5.178  12.247  0.00  0.00    +0.000 A 
ATOM     20  C   UNL     1      44.078   5.549  12.973  0.00  0.00    +0.000 A 
ENDBRANCH  14  15
BRANCH  14  21
ATOM     21  C   UNL     1      47.630   5.596  13.064  0.00  0.00    +0.000 C 
BRANCH  21  22
ATOM     22  O   UNL     1      48.560   6.314  13.891  0.00  0.00    +0.000 OA
ATOM     23  H   UNL     1      48.154   6.305  14.777  0.00  0.00    +0.000 HD
ENDBRANCH  21  22
ENDBRANCH  14  21
ENDBRANCH   5  14
TORSDOF 5
ENDMDL
MODEL 8
REMARK VINA RESULT:    -5.624      3.817      5.893
REMARK INTER + INTRA:          -7.412
REMARK INTER:                  -6.927
REMARK INTRA:                  -0.484
REMARK UNBOUND:                -0.308
REMARK  Name = 
REMARK  5 active torsions:
REMARK  status: ('A' for Active; 'I' for Inactive)
REMARK    1  A    between atoms: C_2  and  C_4
REMARK    2  A    between atoms: N_8  and  CA_9
REMARK    3  A    between atoms: CA_9  and  C_10
REMARK    4  A    between atoms: CA_9  and  C_12
REMARK    5  A    between atoms: C_10  and  O_11
REMARK                            x       y       z     vdW  Elec       q    Type
REMARK                         _______ _______ _______ _____ _____    ______ ____
ROOT
ATOM      1  C   UNL     1      44.987   4.383  12.232  0.00  0.00    +0.000 A 
ATOM      2  C   UNL     1      45.931   3.988  13.171  0.00  0.00    +0.000 A 
ATOM      3  C   UNL     1      47.009   4.836  13.446  0.00  0.00    +0.000 A 
ATOM      4  C   UNL     1      47.123   6.068  12.802  0.00  0.00    +0.000 A 
ATOM      5  N   UNL     1      48.157   6.922  13.205  0.00  0.00    +0.000 N 
ATOM      6  N   UNL     1      46.206   6.451  11.888  0.00  0.00    +0.000 NA
ATOM      7  C   UNL     1      45.182   5.601  11.600  0.00  0.00    +0.000 A 
ATOM      8  H   UNL     1      49.064   6.472  13.171  0.00  0.00    +0.000 HD
ENDROOT
BRANCH   1  10
ATOM      9  N   UNL     1      43.691   2.341  12.468  0.00  0.00    +0.000 N 
ATOM     10  C   UNL     1      43.797   3.575  11.881  0.00  0.00    +0.000 C 
ATOM     11  O   UNL     1      42.921   3.984  11.130  0.00  0.00    +0.000 OA
ATOM     12  H   UNL     1      42.821   1.837  12.303  0.00  0.00    +0.000 HD
ATOM     13  H   UNL     1      44.233   2.061  13.274  0.00  0.00    +0.000 HD
ENDBRANCH   1  10
BRANCH   5  14
ATOM     14  CA  UNL     1      48.147   8.307  12.703  0.00  0.00    +0.000 C 
BRANCH  14  15
ATOM     15  C   UNL     1      49.363   8.619  11.826  0.00  0.00    +0.000 A 
ATOM     16  C   UNL     1      49.611   9.950  11.436  0.00  0.00    +0.000 A 
ATOM     17  C   UNL     1      50.793  10.296  10.766  0.00  0.00    +0.000 A 
ATOM     18  C   UNL     1      51.740   9.320  10.473  0.00  0.00    +0.000 A 
ATOM     19  C   UNL     1      51.494   7.993  10.819  0.00  0.00    +0.000 A 
ATOM     20  C   UNL     1      50.315   7.645  11.485  0.00  0.00    +0.000 A 
ENDBRANCH  14  15
BRANCH  14  21
ATOM     21  C   UNL     1      48.100   9.245  13.941  0.00  0.00    +0.000 C 
BRANCH  21  22
ATOM     22  O   UNL     1      46.948   9.005  14.765  0.00  0.00    +0.000 OA
ATOM     23  H   UNL     1      46.196   9.034  14.145  0.00  0.00    +0.000 HD
ENDBRANCH  21  22
ENDBRANCH  14  21
ENDBRANCH   5  14
TORSDOF 5
ENDMDL
MODEL 9
REMARK VINA RESULT:    -5.385      3.721      5.924
REMARK INTER + INTRA:          -7.110
REMARK INTER:                  -6.656
REMARK INTRA:                  -0.455
REMARK UNBOUND:                -0.308
REMARK  Name = 
REMARK  5 active torsions:
REMARK  status: ('A' for Active; 'I' for Inactive)
REMARK    1  A    between atoms: C_2  and  C_4
REMARK    2  A    between atoms: N_8  and  CA_9
REMARK    3  A    between atoms: CA_9  and  C_10
REMARK    4  A    between atoms: CA_9  and  C_12
REMARK    5  A    between atoms: C_10  and  O_11
REMARK                            x       y       z     vdW  Elec       q    Type
REMARK                         _______ _______ _______ _____ _____    ______ ____
ROOT
ATOM      1  C   UNL     1      44.606   4.935  11.537  0.00  0.00    +0.000 A 
ATOM      2  C   UNL     1      44.425   6.292  11.770  0.00  0.00    +0.000 A 
ATOM      3  C   UNL     1      45.279   6.946  12.665  0.00  0.00    +0.000 A 
ATOM      4  C   UNL     1      46.308   6.250  13.298  0.00  0.00    +0.000 A 
ATOM      5  N   UNL     1      47.200   6.982  14.090  0.00  0.00    +0.000 N 
ATOM      6  N   UNL     1      46.482   4.930  13.073  0.00  0.00    +0.000 NA
ATOM      7  C   UNL     1      45.621   4.296  12.230  0.00  0.00    +0.000 A 
ATOM      8  H   UNL     1      46.726   7.537  14.792  0.00  0.00    +0.000 HD
ENDROOT
BRANCH   1  10
ATOM      9  N   UNL     1      43.909   4.440   9.262  0.00  0.00    +0.000 N 
ATOM     10  C   UNL     1      43.775   4.150  10.596  0.00  0.00    +0.000 C 
ATOM     11  O   UNL     1      43.024   3.258  10.965  0.00  0.00    +0.000 OA
ATOM     12  H   UNL     1      43.414   3.827   8.617  0.00  0.00    +0.000 HD
ATOM     13  H   UNL     1      44.680   4.972   8.884  0.00  0.00    +0.000 HD
ENDBRANCH   1  10
BRANCH   5  14
ATOM     14  CA  UNL     1      48.417   6.305  14.570  0.00  0.00    +0.000 C 
BRANCH  14  15
ATOM     15  C   UNL     1      48.290   5.835  16.022  0.00  0.00    +0.000 A 
ATOM     16  C   UNL     1      48.702   6.690  17.064  0.00  0.00    +0.000 A 
ATOM     17  C   UNL     1      48.460   6.359  18.404  0.00  0.00    +0.000 A 
ATOM     18  C   UNL     1      47.808   5.172  18.724  0.00  0.00    +0.000 A 
ATOM     19  C   UNL     1      47.426   4.299  17.708  0.00  0.00    +0.000 A 
ATOM     20  C   UNL     1      47.669   4.624  16.370  0.00  0.00    +0.000 A 
ENDBRANCH  14  15
BRANCH  14  21
ATOM     21  C   UNL     1      49.595   7.307  14.412  0.00  0.00    +0.000 C 
BRANCH  21  22
ATOM     22  O   UNL     1      49.152   8.608  13.992  0.00  0.00    +0.000 OA
ATOM     23  H   UNL     1      48.783   8.462  13.102  0.00  0.00    +0.000 HD
ENDBRANCH  21  22
ENDBRANCH  14  21
ENDBRANCH   5  14
TORSDOF 5
ENDMDL
