MODEL 1
REMARK VINA RESULT:    -8.604      0.000      0.000
REMARK INTER + INTRA:         -11.187
REMARK INTER:                 -10.616
REMARK INTRA:                  -0.571
REMARK UNBOUND:                -0.571
REMARK  Name = 
REMARK  4 active torsions:
REMARK  status: ('A' for Active; 'I' for Inactive)
REMARK    1  A    between atoms: C_2  and  C_4
REMARK    2  A    between atoms: N_8  and  C_9
REMARK    3  A    between atoms: C_9  and  C_10
REMARK    4  A    between atoms: C_14  and  C_15
REMARK                            x       y       z     vdW  Elec       q    Type
REMARK                         _______ _______ _______ _____ _____    ______ ____
ROOT
ATOM      1  C   UNL     1      43.479   3.688  11.123  0.00  0.00    +0.000 C 
ENDROOT
BRANCH   1   6
ATOM      2  C   UNL     1      46.614   2.498   7.206  0.00  0.00    +0.000 A 
ATOM      3  C   UNL     1      46.062   3.715   7.594  0.00  0.00    +0.000 A 
ATOM      4  C   UNL     1      45.245   3.762   8.721  0.00  0.00    +0.000 A 
ATOM      5  C   UNL     1      44.978   2.599   9.435  0.00  0.00    +0.000 A 
ATOM      6  N   UNL     1      44.167   2.558  10.532  0.00  0.00    +0.000 N 
ATOM      7  N   UNL     1      45.497   1.411   9.058  0.00  0.00    +0.000 NA
ATOM      8  C   UNL     1      46.291   1.379   7.954  0.00  0.00    +0.000 A 
ATOM      9  H   UNL     1      44.110   1.648  10.964  0.00  0.00    +0.000 HD
BRANCH   2  11
ATOM     10  N   UNL     1      47.416   3.351   5.085  0.00  0.00    +0.000 N 
ATOM     11  C   UNL     1      47.508   2.374   6.039  0.00  0.00    +0.000 C 
ATOM     12  O   UNL     1      48.316   1.461   5.942  0.00  0.00    +0.000 OA
ATOM     13  H   UNL     1      48.089   3.318   4.331  0.00  0.00    +0.000 HD
ATOM     14  H   UNL     1      46.936   4.227   5.246  0.00  0.00    +0.000 HD
ENDBRANCH   2  11
ENDBRANCH   1   6
BRANCH   1  15
ATOM     15  C   UNL     1      44.422   4.659  11.812  0.00  0.00    +0.000 A 
ATOM     16  C   UNL     1      45.262   4.193  12.820  0.00  0.00    +0.000 A 
ATOM     17  C   UNL     1      46.062   5.101  13.498  0.00  0.00    +0.000 A 
ATOM     18  C   UNL     1      46.008   6.446  13.147  0.00  0.00    +0.000 A 
ATOM     19  C   UNL     1      45.162   6.859  12.116  0.00  0.00    +0.000 A 
ATOM     20  N   UNL     1      44.366   5.974  11.456  0.00  0.00    +0.000 NA
BRANCH  19  21
ATOM     21  C   UNL     1      45.041   8.283  11.727  0.00  0.00    +0.000 A 
ATOM     22  C   UNL     1      45.991   9.247  12.126  0.00  0.00    +0.000 A 
ATOM     23  C   UNL     1      45.832  10.607  11.830  0.00  0.00    +0.000 A 
ATOM     24  C   UNL     1      44.721  11.031  11.111  0.00  0.00    +0.000 A 
ATOM     25  C   UNL     1      43.793  10.091  10.681  0.00  0.00    +0.000 A 
ATOM     26  F   UNL     1      42.724  10.500   9.984  0.00  0.00    +0.000 F 
ATOM     27  C   UNL     1      43.944   8.738  10.974  0.00  0.00    +0.000 A 
ENDBRANCH  19  21
ENDBRANCH   1  15
TORSDOF 4
ENDMDL
MODEL 2
REMARK VINA RESULT:    -8.241      2.763      4.546
REMARK INTER + INTRA:         -10.739
REMARK INTER:                 -10.381
REMARK INTRA:                  -0.358
REMARK UNBOUND:                -0.571
REMARK  Name = 
REMARK  4 active torsions:
REMARK  status: ('A' for Active; 'I' for Inactive)
REMARK    1  A    between atoms: C_2  and  C_4
REMARK    2  A    between atoms: N_8  and  C_9
REMARK    3  A    between atoms: C_9  and  C_10
REMARK    4  A    between atoms: C_14  and  C_15
REMARK                            x       y       z     vdW  Elec       q    Type
REMARK                         _______ _______ _______ _____ _____    ______ ____
ROOT
ATOM      1  C   UNL     1      43.722   3.853  11.222  0.00  0.00    +0.000 C 
ENDROOT
BRANCH   1   6
ATOM      2  C   UNL     1      46.672   2.552   7.200  0.00  0.00    +0.000 A 
ATOM      3  C   UNL     1      46.155   3.783   7.589  0.00  0.00    +0.000 A 
ATOM      4  C   UNL     1      45.387   3.861   8.748  0.00  0.00    +0.000 A 
ATOM      5  C   UNL     1      45.134   2.714   9.492  0.00  0.00    +0.000 A 
ATOM      6  N   UNL     1      44.369   2.703  10.623  0.00  0.00    +0.000 N 
ATOM      7  N   UNL     1      45.619   1.512   9.115  0.00  0.00    +0.000 NA
ATOM      8  C   UNL     1      46.366   1.450   7.979  0.00  0.00    +0.000 A 
ATOM      9  H   UNL     1      44.316   1.801  11.072  0.00  0.00    +0.000 HD
BRANCH   2  11
ATOM     10  N   UNL     1      47.354   3.324   5.006  0.00  0.00    +0.000 N 
ATOM     11  C   UNL     1      47.515   2.395   5.998  0.00  0.00    +0.000 C 
ATOM     12  O   UNL     1      48.341   1.498   5.905  0.00  0.00    +0.000 OA
ATOM     13  H   UNL     1      47.993   3.271   4.224  0.00  0.00    +0.000 HD
ATOM     14  H   UNL     1      46.859   4.194   5.150  0.00  0.00    +0.000 HD
ENDBRANCH   2  11
ENDBRANCH   1   6
BRANCH   1  15
ATOM     15  C   UNL     1      44.711   4.855  11.794  0.00  0.00    +0.000 A 
ATOM     16  C   UNL     1      44.906   6.068  11.140  0.00  0.00    +0.000 A 
ATOM     17  C   UNL     1      45.869   6.942  11.624  0.00  0.00    +0.000 A 
ATOM     18  C   UNL     1      46.603   6.586  12.749  0.00  0.00    +0.000 A 
ATOM     19  C   UNL     1      46.355   5.365  13.380  0.00  0.00    +0.000 A 
ATOM     20  N   UNL     1      45.421   4.498  12.902  0.00  0.00    +0.000 NA
BRANCH  19  21
ATOM     21  C   UNL     1      47.133   4.923  14.560  0.00  0.00    +0.000 A 
ATOM     22  C   UNL     1      47.124   3.582  14.999  0.00  0.00    +0.000 A 
ATOM     23  C   UNL     1      47.791   3.181  16.164  0.00  0.00    +0.000 A 
ATOM     24  C   UNL     1      48.500   4.116  16.909  0.00  0.00    +0.000 A 
ATOM     25  C   UNL     1      48.547   5.434  16.474  0.00  0.00    +0.000 A 
ATOM     26  F   UNL     1      49.234   6.335  17.190  0.00  0.00    +0.000 F 
ATOM     27  C   UNL     1      47.884   5.839  15.317  0.00  0.00    +0.000 A 
ENDBRANCH  19  21
ENDBRANCH   1  15
TORSDOF 4
ENDMDL
MODEL 3
REMARK VINA RESULT:    -8.221      3.932      7.210
REMARK INTER + INTRA:         -10.714
REMARK INTER:                 -10.329
REMARK INTRA:                  -0.386
REMARK UNBOUND:                -0.571
REMARK  Name = 
REMARK  4 active torsions:
REMARK  status: ('A' for Active; 'I' for Inactive)
REMARK    1  A    between atoms: C_2  and  C_4
REMARK    2  A    between atoms: N_8  and  C_9
REMARK    3  A    between atoms: C_9  and  C_10
REMARK    4  A    between atoms: C_14  and  C_15
REMARK                            x       y       z     vdW  Elec       q    Type
REMARK                         _______ _______ _______ _____ _____    ______ ____
ROOT
ATOM      1  C   UNL     1      43.273   6.461  11.123  0.00  0.00    +0.000 C 
ENDROOT
BRANCH   1   6
ATOM      2  C   UNL     1      47.852   6.909  13.450  0.00  0.00    +0.000 A 
ATOM      3  C   UNL     1      46.797   6.032  13.678  0.00  0.00    +0.000 A 
ATOM      4  C   UNL     1      45.658   6.118  12.880  0.00  0.00    +0.000 A 
ATOM      5  C   UNL     1      45.580   7.081  11.880  0.00  0.00    +0.000 A 
ATOM      6  N   UNL     1      44.490   7.246  11.076  0.00  0.00    +0.000 N 
ATOM      7  N   UNL     1      46.593   7.946  11.661  0.00  0.00    +0.000 NA
ATOM      8  C   UNL     1      47.698   7.853  12.449  0.00  0.00    +0.000 A 
ATOM      9  H   UNL     1      44.606   7.958  10.371  0.00  0.00    +0.000 HD
BRANCH   2  11
ATOM     10  N   UNL     1      50.210   7.423  13.666  0.00  0.00    +0.000 N 
ATOM     11  C   UNL     1      49.099   6.863  14.237  0.00  0.00    +0.000 C 
ATOM     12  O   UNL     1      49.135   6.377  15.359  0.00  0.00    +0.000 OA
ATOM     13  H   UNL     1      51.041   7.473  14.239  0.00  0.00    +0.000 HD
ATOM     14  H   UNL     1      50.160   8.029  12.858  0.00  0.00    +0.000 HD
ENDBRANCH   2  11
ENDBRANCH   1   6
BRANCH   1  15
ATOM     15  C   UNL     1      43.521   4.975  10.930  0.00  0.00    +0.000 A 
ATOM     16  C   UNL     1      42.996   4.072  11.849  0.00  0.00    +0.000 A 
ATOM     17  C   UNL     1      43.295   2.724  11.708  0.00  0.00    +0.000 A 
ATOM     18  C   UNL     1      44.102   2.315  10.652  0.00  0.00    +0.000 A 
ATOM     19  C   UNL     1      44.588   3.260   9.746  0.00  0.00    +0.000 A 
ATOM     20  N   UNL     1      44.308   4.585   9.886  0.00  0.00    +0.000 NA
BRANCH  19  21
ATOM     21  C   UNL     1      45.478   2.882   8.626  0.00  0.00    +0.000 A 
ATOM     22  C   UNL     1      45.901   3.820   7.660  0.00  0.00    +0.000 A 
ATOM     23  C   UNL     1      46.673   3.445   6.553  0.00  0.00    +0.000 A 
ATOM     24  C   UNL     1      47.056   2.117   6.397  0.00  0.00    +0.000 A 
ATOM     25  C   UNL     1      46.678   1.186   7.356  0.00  0.00    +0.000 A 
ATOM     26  F   UNL     1      47.050  -0.092   7.208  0.00  0.00    +0.000 F 
ATOM     27  C   UNL     1      45.907   1.553   8.458  0.00  0.00    +0.000 A 
ENDBRANCH  19  21
ENDBRANCH   1  15
TORSDOF 4
ENDMDL
MODEL 4
REMARK VINA RESULT:    -8.107      4.243      7.312
REMARK INTER + INTRA:         -10.574
REMARK INTER:                  -9.932
REMARK INTRA:                  -0.642
REMARK UNBOUND:                -0.571
REMARK  Name = 
REMARK  4 active torsions:
REMARK  status: ('A' for Active; 'I' for Inactive)
REMARK    1  A    between atoms: C_2  and  C_4
REMARK    2  A    between atoms: N_8  and  C_9
REMARK    3  A    between atoms: C_9  and  C_10
REMARK    4  A    between atoms: C_14  and  C_15
REMARK                            x       y       z     vdW  Elec       q    Type
REMARK                         _______ _______ _______ _____ _____    ______ ____
ROOT
ATOM      1  C   UNL     1      44.765   6.361  12.180  0.00  0.00    +0.000 C 
ENDROOT
BRANCH   1   6
ATOM      2  C   UNL     1      49.662   7.838  12.834  0.00  0.00    +0.000 A 
ATOM      3  C   UNL     1      48.788   8.027  11.768  0.00  0.00    +0.000 A 
ATOM      4  C   UNL     1      47.490   7.529  11.857  0.00  0.00    +0.000 A 
ATOM      5  C   UNL     1      47.086   6.841  12.995  0.00  0.00    +0.000 A 
ATOM      6  N   UNL     1      45.842   6.300  13.148  0.00  0.00    +0.000 N 
ATOM      7  N   UNL     1      47.931   6.640  14.029  0.00  0.00    +0.000 NA
ATOM      8  C   UNL     1      49.197   7.129  13.928  0.00  0.00    +0.000 A 
ATOM      9  H   UNL     1      45.691   5.871  14.048  0.00  0.00    +0.000 HD
BRANCH   2  11
ATOM     10  N   UNL     1      51.911   7.783  11.934  0.00  0.00    +0.000 N 
ATOM     11  C   UNL     1      51.043   8.358  12.823  0.00  0.00    +0.000 C 
ATOM     12  O   UNL     1      51.389   9.279  13.549  0.00  0.00    +0.000 OA
ATOM     13  H   UNL     1      52.830   8.198  11.861  0.00  0.00    +0.000 HD
ATOM     14  H   UNL     1      51.601   7.194  11.173  0.00  0.00    +0.000 HD
ENDBRANCH   2  11
ENDBRANCH   1   6
BRANCH   1  15
ATOM     15  C   UNL     1      44.436   5.005  11.579  0.00  0.00    +0.000 A 
ATOM     16  C   UNL     1      43.520   4.179  12.223  0.00  0.00    +0.000 A 
ATOM     17  C   UNL     1      43.286   2.911  11.710  0.00  0.00    +0.000 A 
ATOM     18  C   UNL     1      43.964   2.507  10.565  0.00  0.00    +0.000 A 
ATOM     19  C   UNL     1      44.858   3.382   9.946  0.00  0.00    +0.000 A 
ATOM     20  N   UNL     1      45.101   4.622  10.452  0.00  0.00    +0.000 NA
BRANCH  19  21
ATOM     21  C   UNL     1      45.632   2.989   8.746  0.00  0.00    +0.000 A 
ATOM     22  C   UNL     1      46.014   3.928   7.764  0.00  0.00    +0.000 A 
ATOM     23  C   UNL     1      46.670   3.543   6.589  0.00  0.00    +0.000 A 
ATOM     24  C   UNL     1      46.976   2.203   6.377  0.00  0.00    +0.000 A 
ATOM     25  C   UNL     1      46.638   1.269   7.347  0.00  0.00    +0.000 A 
ATOM     26  F   UNL     1      46.935  -0.021   7.145  0.00  0.00    +0.000 F 
ATOM     27  C   UNL     1      45.982   1.646   8.518  0.00  0.00    +0.000 A 
ENDBRANCH  19  21
ENDBRANCH   1  15
TORSDOF 4
ENDMDL
MODEL 5
REMARK VINA RESULT:    -7.944      5.036      8.136
REMARK INTER + INTRA:         -10.372
REMARK INTER:                  -9.900
REMARK INTRA:                  -0.472
REMARK UNBOUND:                -0.571
REMARK  Name = 
REMARK  4 active torsions:
REMARK  status: ('A' for Active; 'I' for Inactive)
REMARK    1  A    between atoms: C_2  and  C_4
REMARK    2  A    between atoms: N_8  and  C_9
REMARK    3  A    between atoms: C_9  and  C_10
REMARK    4  A    between atoms: C_14  and  C_15
REMARK                            x       y       z     vdW  Elec       q    Type
REMARK                         _______ _______ _______ _____ _____    ______ ____
ROOT
ATOM      1  C   UNL     1      45.944   5.577  13.592  0.00  0.00    +0.000 C 
ENDROOT
BRANCH   1   6
ATOM      2  C   UNL     1      49.184   4.178  17.350  0.00  0.00    +0.000 A 
ATOM      3  C   UNL     1      48.983   5.408  16.733  0.00  0.00    +0.000 A 
ATOM      4  C   UNL     1      48.015   5.518  15.737  0.00  0.00    +0.000 A 
ATOM      5  C   UNL     1      47.274   4.403  15.362  0.00  0.00    +0.000 A 
ATOM      6  N   UNL     1      46.328   4.422  14.378  0.00  0.00    +0.000 N 
ATOM      7  N   UNL     1      47.473   3.201  15.945  0.00  0.00    +0.000 NA
ATOM      8  C   UNL     1      48.423   3.108  16.914  0.00  0.00    +0.000 A 
ATOM      9  H   UNL     1      45.849   3.543  14.255  0.00  0.00    +0.000 HD
BRANCH   2  11
ATOM     10  N   UNL     1      51.141   3.046  18.222  0.00  0.00    +0.000 N 
ATOM     11  C   UNL     1      50.173   3.991  18.430  0.00  0.00    +0.000 C 
ATOM     12  O   UNL     1      50.150   4.668  19.448  0.00  0.00    +0.000 OA
ATOM     13  H   UNL     1      51.871   2.979  18.919  0.00  0.00    +0.000 HD
ATOM     14  H   UNL     1      51.324   2.643  17.312  0.00  0.00    +0.000 HD
ENDBRANCH   2  11
ENDBRANCH   1   6
BRANCH   1  15
ATOM     15  C   UNL     1      45.051   5.219  12.416  0.00  0.00    +0.000 A 
ATOM     16  C   UNL     1      43.681   5.446  12.508  0.00  0.00    +0.000 A 
ATOM     17  C   UNL     1      42.864   5.043  11.462  0.00  0.00    +0.000 A 
ATOM     18  C   UNL     1      43.436   4.432  10.351  0.00  0.00    +0.000 A 
ATOM     19  C   UNL     1      44.819   4.245  10.301  0.00  0.00    +0.000 A 
ATOM     20  N   UNL     1      45.624   4.628  11.329  0.00  0.00    +0.000 NA
BRANCH  19  21
ATOM     21  C   UNL     1      45.474   3.570   9.157  0.00  0.00    +0.000 A 
ATOM     22  C   UNL     1      45.957   4.290   8.043  0.00  0.00    +0.000 A 
ATOM     23  C   UNL     1      46.500   3.644   6.925  0.00  0.00    +0.000 A 
ATOM     24  C   UNL     1      46.586   2.256   6.904  0.00  0.00    +0.000 A 
ATOM     25  C   UNL     1      46.146   1.533   8.006  0.00  0.00    +0.000 A 
ATOM     26  F   UNL     1      46.234   0.197   7.987  0.00  0.00    +0.000 F 
ATOM     27  C   UNL     1      45.604   2.170   9.120  0.00  0.00    +0.000 A 
ENDBRANCH  19  21
ENDBRANCH   1  15
TORSDOF 4
ENDMDL
MODEL 6
REMARK VINA RESULT:    -7.673      3.972      7.551
REMARK INTER + INTRA:         -10.038
REMARK INTER:                 -10.282
REMARK INTRA:                   0.243
REMARK UNBOUND:                -0.571
REMARK  Name = 
REMARK  4 active torsions:
REMARK  status: ('A' for Active; 'I' for Inactive)
REMARK    1  A    between atoms: C_2  and  C_4
REMARK    2  A    between atoms: N_8  and  C_9
REMARK    3  A    between atoms: C_9  and  C_10
REMARK    4  A    between atoms: C_14  and  C_15
REMARK                            x       y       z     vdW  Elec       q    Type
REMARK                         _______ _______ _______ _____ _____    ______ ____
ROOT
ATOM      1  C   UNL     1      44.952   6.956  11.253  0.00  0.00    +0.000 C 
ENDROOT
BRANCH   1   6
ATOM      2  C   UNL     1      47.394   4.706  15.197  0.00  0.00    +0.000 A 
ATOM      3  C   UNL     1      46.139   4.468  14.648  0.00  0.00    +0.000 A 
ATOM      4  C   UNL     1      45.720   5.223  13.555  0.00  0.00    +0.000 A 
ATOM      5  C   UNL     1      46.549   6.210  13.035  0.00  0.00    +0.000 A 
ATOM      6  N   UNL     1      46.202   7.010  11.984  0.00  0.00    +0.000 N 
ATOM      7  N   UNL     1      47.764   6.459  13.570  0.00  0.00    +0.000 NA
ATOM      8  C   UNL     1      48.158   5.716  14.639  0.00  0.00    +0.000 A 
ATOM      9  H   UNL     1      46.929   7.648  11.698  0.00  0.00    +0.000 HD
BRANCH   2  11
ATOM     10  N   UNL     1      46.993   3.303  17.131  0.00  0.00    +0.000 N 
ATOM     11  C   UNL     1      47.916   3.930  16.339  0.00  0.00    +0.000 C 
ATOM     12  O   UNL     1      49.116   3.825  16.550  0.00  0.00    +0.000 OA
ATOM     13  H   UNL     1      47.352   2.698  17.857  0.00  0.00    +0.000 HD
ATOM     14  H   UNL     1      46.029   3.178  16.851  0.00  0.00    +0.000 HD
ENDBRANCH   2  11
ENDBRANCH   1   6
BRANCH   1  15
ATOM     15  C   UNL     1      44.559   5.542  10.860  0.00  0.00    +0.000 A 
ATOM     16  C   UNL     1      43.541   4.899  11.558  0.00  0.00    +0.000 A 
ATOM     17  C   UNL     1      43.244   3.581  11.245  0.00  0.00    +0.000 A 
ATOM     18  C   UNL     1      43.964   2.944  10.240  0.00  0.00    +0.000 A 
ATOM     19  C   UNL     1      44.963   3.640   9.557  0.00  0.00    +0.000 A 
ATOM     20  N   UNL     1      45.267   4.930   9.868  0.00  0.00    +0.000 NA
BRANCH  19  21
ATOM     21  C   UNL     1      45.781   2.998   8.503  0.00  0.00    +0.000 A 
ATOM     22  C   UNL     1      46.326   3.735   7.430  0.00  0.00    +0.000 A 
ATOM     23  C   UNL     1      47.028   3.115   6.388  0.00  0.00    +0.000 A 
ATOM     24  C   UNL     1      47.216   1.738   6.407  0.00  0.00    +0.000 A 
ATOM     25  C   UNL     1      46.715   1.001   7.473  0.00  0.00    +0.000 A 
ATOM     26  F   UNL     1      46.899  -0.326   7.493  0.00  0.00    +0.000 F 
ATOM     27  C   UNL     1      46.014   1.612   8.510  0.00  0.00    +0.000 A 
ENDBRANCH  19  21
ENDBRANCH   1  15
TORSDOF 4
ENDMDL
MODEL 7
REMARK VINA RESULT:    -7.227      6.355      8.491
REMARK INTER + INTRA:          -9.488
REMARK INTER:                  -8.800
REMARK INTRA:                  -0.687
REMARK UNBOUND:                -0.571
REMARK  Name = 
REMARK  4 active torsions:
REMARK  status: ('A' for Active; 'I' for Inactive)
REMARK    1  A    between atoms: C_2  and  C_4
REMARK    2  A    between atoms: N_8  and  C_9
REMARK    3  A    between atoms: C_9  and  C_10
REMARK    4  A    between atoms: C_14  and  C_15
REMARK                            x       y       z     vdW  Elec       q    Type
REMARK                         _______ _______ _______ _____ _____    ______ ____
ROOT
ATOM      1  C   UNL     1      47.470   3.963  16.788  0.00  0.00    +0.000 C 
ENDROOT
BRANCH   1   6
ATOM      2  C   UNL     1      52.253   2.388  17.891  0.00  0.00    +0.000 A 
ATOM      3  C   UNL     1      51.641   3.625  18.058  0.00  0.00    +0.000 A 
ATOM      4  C   UNL     1      50.308   3.780  17.684  0.00  0.00    +0.000 A 
ATOM      5  C   UNL     1      49.611   2.708  17.138  0.00  0.00    +0.000 A 
ATOM      6  N   UNL     1      48.313   2.786  16.722  0.00  0.00    +0.000 N 
ATOM      7  N   UNL     1      50.201   1.507  16.958  0.00  0.00    +0.000 NA
ATOM      8  C   UNL     1      51.504   1.371  17.325  0.00  0.00    +0.000 A 
ATOM      9  H   UNL     1      47.937   1.911  16.389  0.00  0.00    +0.000 HD
BRANCH   2  11
ATOM     10  N   UNL     1      54.587   2.141  17.286  0.00  0.00    +0.000 N 
ATOM     11  C   UNL     1      53.654   2.141  18.287  0.00  0.00    +0.000 C 
ATOM     12  O   UNL     1      53.972   1.976  19.456  0.00  0.00    +0.000 OA
ATOM     13  H   UNL     1      55.555   2.063  17.565  0.00  0.00    +0.000 HD
ATOM     14  H   UNL     1      54.393   2.501  16.360  0.00  0.00    +0.000 HD
ENDBRANCH   2  11
ENDBRANCH   1   6
BRANCH   1  15
ATOM     15  C   UNL     1      47.463   4.758  15.494  0.00  0.00    +0.000 A 
ATOM     16  C   UNL     1      48.233   5.913  15.401  0.00  0.00    +0.000 A 
ATOM     17  C   UNL     1      48.159   6.676  14.244  0.00  0.00    +0.000 A 
ATOM     18  C   UNL     1      47.326   6.261  13.211  0.00  0.00    +0.000 A 
ATOM     19  C   UNL     1      46.589   5.083  13.347  0.00  0.00    +0.000 A 
ATOM     20  N   UNL     1      46.649   4.338  14.484  0.00  0.00    +0.000 NA
BRANCH  19  21
ATOM     21  C   UNL     1      45.662   4.616  12.291  0.00  0.00    +0.000 A 
ATOM     22  C   UNL     1      45.581   5.254  11.035  0.00  0.00    +0.000 A 
ATOM     23  C   UNL     1      44.645   4.865  10.068  0.00  0.00    +0.000 A 
ATOM     24  C   UNL     1      43.776   3.812  10.333  0.00  0.00    +0.000 A 
ATOM     25  C   UNL     1      43.865   3.150  11.550  0.00  0.00    +0.000 A 
ATOM     26  F   UNL     1      43.031   2.133  11.804  0.00  0.00    +0.000 F 
ATOM     27  C   UNL     1      44.793   3.534  12.517  0.00  0.00    +0.000 A 
ENDBRANCH  19  21
ENDBRANCH   1  15
TORSDOF 4
ENDMDL
MODEL 8
REMARK VINA RESULT:    -7.196      4.310      7.472
REMARK INTER + INTRA:          -9.450
REMARK INTER:                  -8.890
REMARK INTRA:                  -0.560
REMARK UNBOUND:                -0.571
REMARK  Name = 
REMARK  4 active torsions:
REMARK  status: ('A' for Active; 'I' for Inactive)
REMARK    1  A    between atoms: C_2  and  C_4
REMARK    2  A    between atoms: N_8  and  C_9
REMARK    3  A    between atoms: C_9  and  C_10
REMARK    4  A    between atoms: C_14  and  C_15
REMARK                            x       y       z     vdW  Elec       q    Type
REMARK                         _______ _______ _______ _____ _____    ______ ____
ROOT
ATOM      1  C   UNL     1      45.487   7.361  12.406  0.00  0.00    +0.000 C 
ENDROOT
BRANCH   1   6
ATOM      2  C   UNL     1      50.413   8.215  13.667  0.00  0.00    +0.000 A 
ATOM      3  C   UNL     1      49.636   8.726  12.632  0.00  0.00    +0.000 A 
ATOM      4  C   UNL     1      48.304   8.334  12.526  0.00  0.00    +0.000 A 
ATOM      5  C   UNL     1      47.770   7.433  13.440  0.00  0.00    +0.000 A 
ATOM      6  N   UNL     1      46.483   6.980  13.388  0.00  0.00    +0.000 N 
ATOM      7  N   UNL     1      48.520   6.920  14.439  0.00  0.00    +0.000 NA
ATOM      8  C   UNL     1      49.820   7.309  14.529  0.00  0.00    +0.000 A 
ATOM      9  H   UNL     1      46.235   6.363  14.147  0.00  0.00    +0.000 HD
BRANCH   2  11
ATOM     10  N   UNL     1      52.707   7.595  14.138  0.00  0.00    +0.000 N 
ATOM     11  C   UNL     1      51.825   8.602  13.858  0.00  0.00    +0.000 C 
ATOM     12  O   UNL     1      52.195   9.761  13.741  0.00  0.00    +0.000 OA
ATOM     13  H   UNL     1      53.686   7.845  14.180  0.00  0.00    +0.000 HD
ATOM     14  H   UNL     1      52.478   6.618  14.011  0.00  0.00    +0.000 HD
ENDBRANCH   2  11
ENDBRANCH   1   6
BRANCH   1  15
ATOM     15  C   UNL     1      44.681   6.179  11.894  0.00  0.00    +0.000 A 
ATOM     16  C   UNL     1      43.497   5.833  12.538  0.00  0.00    +0.000 A 
ATOM     17  C   UNL     1      42.810   4.705  12.113  0.00  0.00    +0.000 A 
ATOM     18  C   UNL     1      43.318   3.959  11.055  0.00  0.00    +0.000 A 
ATOM     19  C   UNL     1      44.501   4.361  10.431  0.00  0.00    +0.000 A 
ATOM     20  N   UNL     1      45.186   5.460  10.851  0.00  0.00    +0.000 NA
BRANCH  19  21
ATOM     21  C   UNL     1      45.102   3.584   9.323  0.00  0.00    +0.000 A 
ATOM     22  C   UNL     1      45.209   2.177   9.372  0.00  0.00    +0.000 A 
ATOM     23  C   UNL     1      45.855   1.450   8.364  0.00  0.00    +0.000 A 
ATOM     24  C   UNL     1      46.395   2.117   7.270  0.00  0.00    +0.000 A 
ATOM     25  C   UNL     1      46.269   3.498   7.189  0.00  0.00    +0.000 A 
ATOM     26  F   UNL     1      46.786   4.141   6.133  0.00  0.00    +0.000 F 
ATOM     27  C   UNL     1      45.630   4.227   8.190  0.00  0.00    +0.000 A 
ENDBRANCH  19  21
ENDBRANCH   1  15
TORSDOF 4
ENDMDL
MODEL 9
REMARK VINA RESULT:    -6.956      5.250      8.467
REMARK INTER + INTRA:          -9.153
REMARK INTER:                  -8.628
REMARK INTRA:                  -0.525
REMARK UNBOUND:                -0.571
REMARK  Name = 
REMARK  4 active torsions:
REMARK  status: ('A' for Active; 'I' for Inactive)
REMARK    1  A    between atoms: C_2  and  C_4
REMARK    2  A    between atoms: N_8  and  C_9
REMARK    3  A    between atoms: C_9  and  C_10
REMARK    4  A    between atoms: C_14  and  C_15
REMARK                            x       y       z     vdW  Elec       q    Type
REMARK                         _______ _______ _______ _____ _____    ______ ____
ROOT
ATOM      1  C   UNL     1      47.993   7.219  13.948  0.00  0.00    +0.000 C 
ENDROOT
BRANCH   1   6
ATOM      2  C   UNL     1      48.935   5.143  18.572  0.00  0.00    +0.000 A 
ATOM      3  C   UNL     1      49.014   6.460  18.133  0.00  0.00    +0.000 A 
ATOM      4  C   UNL     1      48.684   6.756  16.812  0.00  0.00    +0.000 A 
ATOM      5  C   UNL     1      48.294   5.739  15.948  0.00  0.00    +0.000 A 
ATOM      6  N   UNL     1      47.981   5.943  14.636  0.00  0.00    +0.000 N 
ATOM      7  N   UNL     1      48.228   4.455  16.362  0.00  0.00    +0.000 NA
ATOM      8  C   UNL     1      48.557   4.180  17.653  0.00  0.00    +0.000 A 
ATOM      9  H   UNL     1      47.676   5.111  14.154  0.00  0.00    +0.000 HD
BRANCH   2  11
ATOM     10  N   UNL     1      48.564   3.683  20.470  0.00  0.00    +0.000 N 
ATOM     11  C   UNL     1      49.245   4.756  19.963  0.00  0.00    +0.000 C 
ATOM     12  O   UNL     1      50.091   5.344  20.620  0.00  0.00    +0.000 OA
ATOM     13  H   UNL     1      48.840   3.361  21.388  0.00  0.00    +0.000 HD
ATOM     14  H   UNL     1      48.041   3.043  19.887  0.00  0.00    +0.000 HD
ENDBRANCH   2  11
ENDBRANCH   1   6
BRANCH   1  15
ATOM     15  C   UNL     1      46.853   7.363  12.954  0.00  0.00    +0.000 A 
ATOM     16  C   UNL     1      46.141   8.558  12.904  0.00  0.00    +0.000 A 
ATOM     17  C   UNL     1      45.052   8.652  12.050  0.00  0.00    +0.000 A 
ATOM     18  C   UNL     1      44.709   7.557  11.264  0.00  0.00    +0.000 A 
ATOM     19  C   UNL     1      45.468   6.388  11.339  0.00  0.00    +0.000 A 
ATOM     20  N   UNL     1      46.530   6.285  12.184  0.00  0.00    +0.000 NA
BRANCH  19  21
ATOM     21  C   UNL     1      45.125   5.183  10.550  0.00  0.00    +0.000 A 
ATOM     22  C   UNL     1      44.368   4.124  11.097  0.00  0.00    +0.000 A 
ATOM     23  C   UNL     1      44.116   2.948  10.380  0.00  0.00    +0.000 A 
ATOM     24  C   UNL     1      44.604   2.812   9.085  0.00  0.00    +0.000 A 
ATOM     25  C   UNL     1      45.322   3.856   8.518  0.00  0.00    +0.000 A 
ATOM     26  F   UNL     1      45.789   3.726   7.269  0.00  0.00    +0.000 F 
ATOM     27  C   UNL     1      45.578   5.028   9.228  0.00  0.00    +0.000 A 
ENDBRANCH  19  21
ENDBRANCH   1  15
TORSDOF 4
ENDMDL
