MODEL 1
REMARK VINA RESULT:    -7.815      0.000      0.000
REMARK INTER + INTRA:          -9.956
REMARK INTER:                  -9.871
REMARK INTRA:                  -0.085
REMARK UNBOUND:                -0.085
REMARK  Name = 
REMARK  5 active torsions:
REMARK  status: ('A' for Active; 'I' for Inactive)
REMARK    1  A    between atoms: N_1  and  C_2
REMARK    2  A    between atoms: C_2  and  C_3
REMARK    3  A    between atoms: C_6  and  C_7
REMARK    4  A    between atoms: C_7  and  N_8
REMARK    5  A    between atoms: C_13  and  C_14
REMARK                            x       y       z     vdW  Elec       q    Type
REMARK                         _______ _______ _______ _____ _____    ______ ____
ROOT
ATOM      1  N   UNL     1      43.877   4.372  10.563  0.00  0.00    +0.000 N 
ATOM      2  C   UNL     1      43.455   3.280  11.281  0.00  0.00    +0.000 A 
ATOM      3  C   UNL     1      43.995   2.155  10.705  0.00  0.00    +0.000 A 
ATOM      4  C   UNL     1      44.840   2.581   9.646  0.00  0.00    +0.000 A 
ATOM      5  C   UNL     1      45.613   1.882   8.693  0.00  0.00    +0.000 A 
ATOM      6  C   UNL     1      46.376   2.597   7.760  0.00  0.00    +0.000 A 
ATOM      7  C   UNL     1      46.407   4.000   7.831  0.00  0.00    +0.000 A 
ATOM      8  C   UNL     1      45.644   4.712   8.765  0.00  0.00    +0.000 A 
ATOM      9  C   UNL     1      44.823   3.976   9.638  0.00  0.00    +0.000 A 
ENDROOT
BRANCH   6  10
ATOM     10  C   UNL     1      47.150   1.944   6.665  0.00  0.00    +0.000 C 
ATOM     11  N   UNL     1      47.909   2.725   5.839  0.00  0.00    +0.000 N 
ATOM     12  O   UNL     1      47.130   0.730   6.500  0.00  0.00    +0.000 OA
ATOM     13  H   UNL     1      47.995   3.726   5.896  0.00  0.00    +0.000 HD
ATOM     14  H   UNL     1      48.439   2.245   5.122  0.00  0.00    +0.000 HD
ENDBRANCH   6  10
BRANCH   1  15
ATOM     15  C   UNL     1      43.350   5.718  10.750  0.00  0.00    +0.000 C 
BRANCH  15  19
ATOM     16  C   UNL     1      45.991   5.235  12.505  0.00  0.00    +0.000 C 
ATOM     17  C   UNL     1      46.506   6.562  11.952  0.00  0.00    +0.000 C 
ATOM     18  C   UNL     1      45.272   7.276  11.391  0.00  0.00    +0.000 C 
ATOM     19  C   UNL     1      44.034   6.508  11.895  0.00  0.00    +0.000 C 
ATOM     20  C   UNL     1      44.601   5.619  13.012  0.00  0.00    +0.000 C 
BRANCH  16  21
ATOM     21  C   UNL     1      46.917   4.639  13.564  0.00  0.00    +0.000 C 
BRANCH  21  22
ATOM     22  N   UNL     1      46.776   3.189  13.627  0.00  0.00    +0.000 NA
ATOM     23  H   UNL     1      45.821   2.930  13.384  0.00  0.00    +0.000 HD
ATOM     24  H   UNL     1      46.921   2.869  14.584  0.00  0.00    +0.000 HD
ENDBRANCH  21  22
ENDBRANCH  16  21
ENDBRANCH  15  19
ENDBRANCH   1  15
TORSDOF 5
ENDMDL
MODEL 2
REMARK VINA RESULT:    -7.454      2.686      6.137
REMARK INTER + INTRA:          -9.500
REMARK INTER:                  -9.249
REMARK INTRA:                  -0.251
REMARK UNBOUND:                -0.085
REMARK  Name = 
REMARK  5 active torsions:
REMARK  status: ('A' for Active; 'I' for Inactive)
REMARK    1  A    between atoms: N_1  and  C_2
REMARK    2  A    between atoms: C_2  and  C_3
REMARK    3  A    between atoms: C_6  and  C_7
REMARK    4  A    between atoms: C_7  and  N_8
REMARK    5  A    between atoms: C_13  and  C_14
REMARK                            x       y       z     vdW  Elec       q    Type
REMARK                         _______ _______ _______ _____ _____    ______ ____
ROOT
ATOM      1  N   UNL     1      44.615   4.324  10.581  0.00  0.00    +0.000 N 
ATOM      2  C   UNL     1      43.665   3.531  11.174  0.00  0.00    +0.000 A 
ATOM      3  C   UNL     1      43.964   3.432  12.513  0.00  0.00    +0.000 A 
ATOM      4  C   UNL     1      45.092   4.259  12.760  0.00  0.00    +0.000 A 
ATOM      5  C   UNL     1      45.858   4.519  13.917  0.00  0.00    +0.000 A 
ATOM      6  C   UNL     1      46.931   5.419  13.851  0.00  0.00    +0.000 A 
ATOM      7  C   UNL     1      47.186   6.094  12.645  0.00  0.00    +0.000 A 
ATOM      8  C   UNL     1      46.442   5.846  11.485  0.00  0.00    +0.000 A 
ATOM      9  C   UNL     1      45.423   4.880  11.554  0.00  0.00    +0.000 A 
ENDROOT
BRANCH   6  10
ATOM     10  C   UNL     1      47.845   5.686  14.999  0.00  0.00    +0.000 C 
ATOM     11  N   UNL     1      47.513   5.196  16.231  0.00  0.00    +0.000 N 
ATOM     12  O   UNL     1      48.885   6.318  14.859  0.00  0.00    +0.000 OA
ATOM     13  H   UNL     1      46.687   4.664  16.446  0.00  0.00    +0.000 HD
ATOM     14  H   UNL     1      48.168   5.376  16.982  0.00  0.00    +0.000 HD
ENDBRANCH   6  10
BRANCH   1  15
ATOM     15  C   UNL     1      44.745   4.493   9.139  0.00  0.00    +0.000 C 
BRANCH  15  19
ATOM     16  C   UNL     1      46.574   2.897   7.041  0.00  0.00    +0.000 C 
ATOM     17  C   UNL     1      46.527   1.722   8.015  0.00  0.00    +0.000 C 
ATOM     18  C   UNL     1      45.354   2.017   8.955  0.00  0.00    +0.000 C 
ATOM     19  C   UNL     1      44.556   3.182   8.334  0.00  0.00    +0.000 C 
ATOM     20  C   UNL     1      45.093   3.251   6.897  0.00  0.00    +0.000 C 
BRANCH  16  21
ATOM     21  C   UNL     1      47.280   2.550   5.732  0.00  0.00    +0.000 C 
BRANCH  21  22
ATOM     22  N   UNL     1      48.523   1.828   5.981  0.00  0.00    +0.000 NA
ATOM     23  H   UNL     1      48.981   1.627   5.093  0.00  0.00    +0.000 HD
ATOM     24  H   UNL     1      48.319   0.924   6.405  0.00  0.00    +0.000 HD
ENDBRANCH  21  22
ENDBRANCH  16  21
ENDBRANCH  15  19
ENDBRANCH   1  15
TORSDOF 5
ENDMDL
MODEL 3
REMARK VINA RESULT:    -7.147      3.055      6.293
REMARK INTER + INTRA:          -9.112
REMARK INTER:                  -8.510
REMARK INTRA:                  -0.602
REMARK UNBOUND:                -0.085
REMARK  Name = 
REMARK  5 active torsions:
REMARK  status: ('A' for Active; 'I' for Inactive)
REMARK    1  A    between atoms: N_1  and  C_2
REMARK    2  A    between atoms: C_2  and  C_3
REMARK    3  A    between atoms: C_6  and  C_7
REMARK    4  A    between atoms: C_7  and  N_8
REMARK    5  A    between atoms: C_13  and  C_14
REMARK                            x       y       z     vdW  Elec       q    Type
REMARK                         _______ _______ _______ _____ _____    ______ ____
ROOT
ATOM      1  N   UNL     1      44.413   4.568  10.865  0.00  0.00    +0.000 N 
ATOM      2  C   UNL     1      43.084   4.911  10.892  0.00  0.00    +0.000 A 
ATOM      3  C   UNL     1      42.978   6.169  11.436  0.00  0.00    +0.000 A 
ATOM      4  C   UNL     1      44.295   6.642  11.677  0.00  0.00    +0.000 A 
ATOM      5  C   UNL     1      44.800   7.830  12.252  0.00  0.00    +0.000 A 
ATOM      6  C   UNL     1      46.186   8.023  12.340  0.00  0.00    +0.000 A 
ATOM      7  C   UNL     1      47.048   7.055  11.798  0.00  0.00    +0.000 A 
ATOM      8  C   UNL     1      46.568   5.869  11.229  0.00  0.00    +0.000 A 
ATOM      9  C   UNL     1      45.178   5.660  11.224  0.00  0.00    +0.000 A 
ENDROOT
BRANCH   6  10
ATOM     10  C   UNL     1      46.804   9.203  13.009  0.00  0.00    +0.000 C 
ATOM     11  N   UNL     1      47.080   9.132  14.347  0.00  0.00    +0.000 N 
ATOM     12  O   UNL     1      47.081  10.222  12.388  0.00  0.00    +0.000 OA
ATOM     13  H   UNL     1      46.895   8.341  14.940  0.00  0.00    +0.000 HD
ATOM     14  H   UNL     1      47.521   9.943  14.763  0.00  0.00    +0.000 HD
ENDBRANCH   6  10
BRANCH   1  15
ATOM     15  C   UNL     1      44.899   3.231  10.544  0.00  0.00    +0.000 C 
BRANCH  15  19
ATOM     16  C   UNL     1      46.574   2.916   7.826  0.00  0.00    +0.000 C 
ATOM     17  C   UNL     1      46.217   1.432   7.871  0.00  0.00    +0.000 C 
ATOM     18  C   UNL     1      45.041   1.325   8.847  0.00  0.00    +0.000 C 
ATOM     19  C   UNL     1      44.538   2.758   9.113  0.00  0.00    +0.000 C 
ATOM     20  C   UNL     1      45.206   3.578   7.999  0.00  0.00    +0.000 C 
BRANCH  16  21
ATOM     21  C   UNL     1      47.316   3.306   6.549  0.00  0.00    +0.000 C 
BRANCH  21  22
ATOM     22  N   UNL     1      48.566   2.566   6.422  0.00  0.00    +0.000 NA
ATOM     23  H   UNL     1      48.426   1.608   6.744  0.00  0.00    +0.000 HD
ATOM     24  H   UNL     1      49.272   2.971   7.035  0.00  0.00    +0.000 HD
ENDBRANCH  21  22
ENDBRANCH  16  21
ENDBRANCH  15  19
ENDBRANCH   1  15
TORSDOF 5
ENDMDL
MODEL 4
REMARK VINA RESULT:    -6.454      3.238      5.703
REMARK INTER + INTRA:          -8.236
REMARK INTER:                  -7.604
REMARK INTRA:                  -0.633
REMARK UNBOUND:                -0.085
REMARK  Name = 
REMARK  5 active torsions:
REMARK  status: ('A' for Active; 'I' for Inactive)
REMARK    1  A    between atoms: N_1  and  C_2
REMARK    2  A    between atoms: C_2  and  C_3
REMARK    3  A    between atoms: C_6  and  C_7
REMARK    4  A    between atoms: C_7  and  N_8
REMARK    5  A    between atoms: C_13  and  C_14
REMARK                            x       y       z     vdW  Elec       q    Type
REMARK                         _______ _______ _______ _____ _____    ______ ____
ROOT
ATOM      1  N   UNL     1      47.646   6.763  13.921  0.00  0.00    +0.000 N 
ATOM      2  C   UNL     1      47.330   8.080  13.698  0.00  0.00    +0.000 A 
ATOM      3  C   UNL     1      46.281   8.125  12.811  0.00  0.00    +0.000 A 
ATOM      4  C   UNL     1      45.891   6.786  12.544  0.00  0.00    +0.000 A 
ATOM      5  C   UNL     1      44.915   6.220  11.693  0.00  0.00    +0.000 A 
ATOM      6  C   UNL     1      44.750   4.829  11.656  0.00  0.00    +0.000 A 
ATOM      7  C   UNL     1      45.517   4.025  12.515  0.00  0.00    +0.000 A 
ATOM      8  C   UNL     1      46.493   4.565  13.362  0.00  0.00    +0.000 A 
ATOM      9  C   UNL     1      46.698   5.956  13.323  0.00  0.00    +0.000 A 
ENDROOT
BRANCH   6  10
ATOM     10  C   UNL     1      43.808   4.143  10.726  0.00  0.00    +0.000 C 
ATOM     11  N   UNL     1      43.800   4.510   9.409  0.00  0.00    +0.000 N 
ATOM     12  O   UNL     1      43.056   3.256  11.111  0.00  0.00    +0.000 OA
ATOM     13  H   UNL     1      44.380   5.220   8.997  0.00  0.00    +0.000 HD
ATOM     14  H   UNL     1      43.164   4.007   8.802  0.00  0.00    +0.000 HD
ENDBRANCH   6  10
BRANCH   1  15
ATOM     15  C   UNL     1      48.833   6.324  14.646  0.00  0.00    +0.000 C 
BRANCH  15  19
ATOM     16  C   UNL     1      48.680   4.044  16.897  0.00  0.00    +0.000 C 
ATOM     17  C   UNL     1      49.925   4.679  17.512  0.00  0.00    +0.000 C 
ATOM     18  C   UNL     1      50.014   6.080  16.899  0.00  0.00    +0.000 C 
ATOM     19  C   UNL     1      48.673   6.350  16.187  0.00  0.00    +0.000 C 
ATOM     20  C   UNL     1      47.753   5.250  16.736  0.00  0.00    +0.000 C 
BRANCH  16  21
ATOM     21  C   UNL     1      48.114   2.910  17.749  0.00  0.00    +0.000 C 
BRANCH  21  22
ATOM     22  N   UNL     1      46.656   2.899  17.706  0.00  0.00    +0.000 NA
ATOM     23  H   UNL     1      46.308   2.091  18.221  0.00  0.00    +0.000 HD
ATOM     24  H   UNL     1      46.339   2.781  16.745  0.00  0.00    +0.000 HD
ENDBRANCH  21  22
ENDBRANCH  16  21
ENDBRANCH  15  19
ENDBRANCH   1  15
TORSDOF 5
ENDMDL
MODEL 5
REMARK VINA RESULT:    -6.360      4.595      8.144
REMARK INTER + INTRA:          -8.118
REMARK INTER:                  -7.703
REMARK INTRA:                  -0.415
REMARK UNBOUND:                -0.085
REMARK  Name = 
REMARK  5 active torsions:
REMARK  status: ('A' for Active; 'I' for Inactive)
REMARK    1  A    between atoms: N_1  and  C_2
REMARK    2  A    between atoms: C_2  and  C_3
REMARK    3  A    between atoms: C_6  and  C_7
REMARK    4  A    between atoms: C_7  and  N_8
REMARK    5  A    between atoms: C_13  and  C_14
REMARK                            x       y       z     vdW  Elec       q    Type
REMARK                         _______ _______ _______ _____ _____    ______ ____
ROOT
ATOM      1  N   UNL     1      47.158   5.074  14.246  0.00  0.00    +0.000 N 
ATOM      2  C   UNL     1      47.873   6.162  13.811  0.00  0.00    +0.000 A 
ATOM      3  C   UNL     1      48.578   6.666  14.879  0.00  0.00    +0.000 A 
ATOM      4  C   UNL     1      48.347   5.807  15.986  0.00  0.00    +0.000 A 
ATOM      5  C   UNL     1      48.767   5.842  17.333  0.00  0.00    +0.000 A 
ATOM      6  C   UNL     1      48.381   4.817  18.208  0.00  0.00    +0.000 A 
ATOM      7  C   UNL     1      47.632   3.738  17.709  0.00  0.00    +0.000 A 
ATOM      8  C   UNL     1      47.201   3.687  16.378  0.00  0.00    +0.000 A 
ATOM      9  C   UNL     1      47.532   4.766  15.539  0.00  0.00    +0.000 A 
ENDROOT
BRANCH   6  10
ATOM     10  C   UNL     1      48.705   4.819  19.663  0.00  0.00    +0.000 C 
ATOM     11  N   UNL     1      48.538   3.665  20.377  0.00  0.00    +0.000 N 
ATOM     12  O   UNL     1      49.127   5.822  20.226  0.00  0.00    +0.000 OA
ATOM     13  H   UNL     1      48.204   2.792  20.006  0.00  0.00    +0.000 HD
ATOM     14  H   UNL     1      48.790   3.697  21.357  0.00  0.00    +0.000 HD
ENDBRANCH   6  10
BRANCH   1  15
ATOM     15  C   UNL     1      46.139   4.402  13.449  0.00  0.00    +0.000 C 
BRANCH  15  19
ATOM     16  C   UNL     1      44.579   4.250  10.650  0.00  0.00    +0.000 C 
ATOM     17  C   UNL     1      43.288   4.397  11.452  0.00  0.00    +0.000 C 
ATOM     18  C   UNL     1      43.717   4.929  12.823  0.00  0.00    +0.000 C 
ATOM     19  C   UNL     1      45.190   5.370  12.698  0.00  0.00    +0.000 C 
ATOM     20  C   UNL     1      45.418   5.413  11.180  0.00  0.00    +0.000 C 
BRANCH  16  21
ATOM     21  C   UNL     1      44.342   4.267   9.141  0.00  0.00    +0.000 C 
BRANCH  21  22
ATOM     22  N   UNL     1      45.492   4.819   8.435  0.00  0.00    +0.000 NA
ATOM     23  H   UNL     1      45.283   4.876   7.439  0.00  0.00    +0.000 HD
ATOM     24  H   UNL     1      46.287   4.186   8.521  0.00  0.00    +0.000 HD
ENDBRANCH  21  22
ENDBRANCH  16  21
ENDBRANCH  15  19
ENDBRANCH   1  15
TORSDOF 5
ENDMDL
MODEL 6
REMARK VINA RESULT:    -6.234      3.784      6.063
REMARK INTER + INTRA:          -7.959
REMARK INTER:                  -7.234
REMARK INTRA:                  -0.725
REMARK UNBOUND:                -0.085
REMARK  Name = 
REMARK  5 active torsions:
REMARK  status: ('A' for Active; 'I' for Inactive)
REMARK    1  A    between atoms: N_1  and  C_2
REMARK    2  A    between atoms: C_2  and  C_3
REMARK    3  A    between atoms: C_6  and  C_7
REMARK    4  A    between atoms: C_7  and  N_8
REMARK    5  A    between atoms: C_13  and  C_14
REMARK                            x       y       z     vdW  Elec       q    Type
REMARK                         _______ _______ _______ _____ _____    ______ ____
ROOT
ATOM      1  N   UNL     1      47.806   7.174  13.754  0.00  0.00    +0.000 N 
ATOM      2  C   UNL     1      47.224   8.391  13.501  0.00  0.00    +0.000 A 
ATOM      3  C   UNL     1      45.992   8.167  12.934  0.00  0.00    +0.000 A 
ATOM      4  C   UNL     1      45.781   6.763  12.913  0.00  0.00    +0.000 A 
ATOM      5  C   UNL     1      44.732   5.956  12.419  0.00  0.00    +0.000 A 
ATOM      6  C   UNL     1      44.803   4.563  12.562  0.00  0.00    +0.000 A 
ATOM      7  C   UNL     1      45.889   3.999  13.251  0.00  0.00    +0.000 A 
ATOM      8  C   UNL     1      46.941   4.781  13.743  0.00  0.00    +0.000 A 
ATOM      9  C   UNL     1      46.889   6.168  13.517  0.00  0.00    +0.000 A 
ENDROOT
BRANCH   6  10
ATOM     10  C   UNL     1      43.786   3.632  11.995  0.00  0.00    +0.000 C 
ATOM     11  N   UNL     1      43.736   2.348  12.461  0.00  0.00    +0.000 N 
ATOM     12  O   UNL     1      42.991   3.994  11.136  0.00  0.00    +0.000 OA
ATOM     13  H   UNL     1      44.340   1.958  13.165  0.00  0.00    +0.000 HD
ATOM     14  H   UNL     1      43.018   1.750  12.070  0.00  0.00    +0.000 HD
ENDBRANCH   6  10
BRANCH   1  15
ATOM     15  C   UNL     1      49.195   7.009  14.165  0.00  0.00    +0.000 C 
BRANCH  15  19
ATOM     16  C   UNL     1      48.893   5.304  16.866  0.00  0.00    +0.000 C 
ATOM     17  C   UNL     1      50.389   5.524  17.079  0.00  0.00    +0.000 C 
ATOM     18  C   UNL     1      50.765   6.688  16.156  0.00  0.00    +0.000 C 
ATOM     19  C   UNL     1      49.448   7.320  15.662  0.00  0.00    +0.000 C 
ATOM     20  C   UNL     1      48.395   6.727  16.609  0.00  0.00    +0.000 C 
BRANCH  16  21
ATOM     21  C   UNL     1      48.227   4.597  18.045  0.00  0.00    +0.000 C 
BRANCH  21  22
ATOM     22  N   UNL     1      46.804   4.906  18.106  0.00  0.00    +0.000 NA
ATOM     23  H   UNL     1      46.424   4.943  17.161  0.00  0.00    +0.000 HD
ATOM     24  H   UNL     1      46.668   5.835  18.503  0.00  0.00    +0.000 HD
ENDBRANCH  21  22
ENDBRANCH  16  21
ENDBRANCH  15  19
ENDBRANCH   1  15
TORSDOF 5
ENDMDL
MODEL 7
REMARK VINA RESULT:    -5.910      3.496      5.346
REMARK INTER + INTRA:          -7.550
REMARK INTER:                  -7.190
REMARK INTRA:                  -0.360
REMARK UNBOUND:                -0.085
REMARK  Name = 
REMARK  5 active torsions:
REMARK  status: ('A' for Active; 'I' for Inactive)
REMARK    1  A    between atoms: N_1  and  C_2
REMARK    2  A    between atoms: C_2  and  C_3
REMARK    3  A    between atoms: C_6  and  C_7
REMARK    4  A    between atoms: C_7  and  N_8
REMARK    5  A    between atoms: C_13  and  C_14
REMARK                            x       y       z     vdW  Elec       q    Type
REMARK                         _______ _______ _______ _____ _____    ______ ____
ROOT
ATOM      1  N   UNL     1      46.096   7.720  12.874  0.00  0.00    +0.000 N 
ATOM      2  C   UNL     1      45.379   8.633  12.141  0.00  0.00    +0.000 A 
ATOM      3  C   UNL     1      44.510   7.944  11.329  0.00  0.00    +0.000 A 
ATOM      4  C   UNL     1      44.646   6.563  11.633  0.00  0.00    +0.000 A 
ATOM      5  C   UNL     1      44.052   5.398  11.101  0.00  0.00    +0.000 A 
ATOM      6  C   UNL     1      44.382   4.145  11.634  0.00  0.00    +0.000 A 
ATOM      7  C   UNL     1      45.256   4.076  12.732  0.00  0.00    +0.000 A 
ATOM      8  C   UNL     1      45.860   5.219  13.271  0.00  0.00    +0.000 A 
ATOM      9  C   UNL     1      45.576   6.457  12.669  0.00  0.00    +0.000 A 
ENDROOT
BRANCH   6  10
ATOM     10  C   UNL     1      43.871   2.860  11.077  0.00  0.00    +0.000 C 
ATOM     11  N   UNL     1      44.506   2.311   9.998  0.00  0.00    +0.000 N 
ATOM     12  O   UNL     1      42.909   2.283  11.570  0.00  0.00    +0.000 OA
ATOM     13  H   UNL     1      45.304   2.704   9.527  0.00  0.00    +0.000 HD
ATOM     14  H   UNL     1      44.146   1.427   9.661  0.00  0.00    +0.000 HD
ENDBRANCH   6  10
BRANCH   1  15
ATOM     15  C   UNL     1      47.251   8.065  13.694  0.00  0.00    +0.000 C 
BRANCH  15  19
ATOM     16  C   UNL     1      50.346   8.473  12.956  0.00  0.00    +0.000 C 
ATOM     17  C   UNL     1      50.670   7.855  14.314  0.00  0.00    +0.000 C 
ATOM     18  C   UNL     1      49.386   7.144  14.755  0.00  0.00    +0.000 C 
ATOM     19  C   UNL     1      48.450   7.096  13.531  0.00  0.00    +0.000 C 
ATOM     20  C   UNL     1      49.380   7.448  12.361  0.00  0.00    +0.000 C 
BRANCH  16  21
ATOM     21  C   UNL     1      51.594   8.739  12.116  0.00  0.00    +0.000 C 
BRANCH  21  22
ATOM     22  N   UNL     1      51.908   7.596  11.266  0.00  0.00    +0.000 NA
ATOM     23  H   UNL     1      52.919   7.525  11.154  0.00  0.00    +0.000 HD
ATOM     24  H   UNL     1      51.529   7.746  10.331  0.00  0.00    +0.000 HD
ENDBRANCH  21  22
ENDBRANCH  16  21
ENDBRANCH  15  19
ENDBRANCH   1  15
TORSDOF 5
ENDMDL
MODEL 8
REMARK VINA RESULT:    -5.837      3.448      5.083
REMARK INTER + INTRA:          -7.457
REMARK INTER:                  -7.167
REMARK INTRA:                  -0.290
REMARK UNBOUND:                -0.085
REMARK  Name = 
REMARK  5 active torsions:
REMARK  status: ('A' for Active; 'I' for Inactive)
REMARK    1  A    between atoms: N_1  and  C_2
REMARK    2  A    between atoms: C_2  and  C_3
REMARK    3  A    between atoms: C_6  and  C_7
REMARK    4  A    between atoms: C_7  and  N_8
REMARK    5  A    between atoms: C_13  and  C_14
REMARK                            x       y       z     vdW  Elec       q    Type
REMARK                         _______ _______ _______ _____ _____    ______ ____
ROOT
ATOM      1  N   UNL     1      46.955   6.919  13.264  0.00  0.00    +0.000 N 
ATOM      2  C   UNL     1      47.597   6.260  14.283  0.00  0.00    +0.000 A 
ATOM      3  C   UNL     1      47.195   4.945  14.262  0.00  0.00    +0.000 A 
ATOM      4  C   UNL     1      46.339   4.778  13.142  0.00  0.00    +0.000 A 
ATOM      5  C   UNL     1      45.608   3.676  12.647  0.00  0.00    +0.000 A 
ATOM      6  C   UNL     1      44.846   3.817  11.479  0.00  0.00    +0.000 A 
ATOM      7  C   UNL     1      44.874   5.039  10.786  0.00  0.00    +0.000 A 
ATOM      8  C   UNL     1      45.589   6.145  11.263  0.00  0.00    +0.000 A 
ATOM      9  C   UNL     1      46.280   6.004  12.479  0.00  0.00    +0.000 A 
ENDROOT
BRANCH   6  10
ATOM     10  C   UNL     1      43.975   2.735  10.936  0.00  0.00    +0.000 C 
ATOM     11  N   UNL     1      44.377   2.069   9.812  0.00  0.00    +0.000 N 
ATOM     12  O   UNL     1      42.923   2.423  11.480  0.00  0.00    +0.000 OA
ATOM     13  H   UNL     1      45.222   2.247   9.297  0.00  0.00    +0.000 HD
ATOM     14  H   UNL     1      43.772   1.325   9.485  0.00  0.00    +0.000 HD
ENDBRANCH   6  10
BRANCH   1  15
ATOM     15  C   UNL     1      46.973   8.367  13.097  0.00  0.00    +0.000 C 
BRANCH  15  19
ATOM     16  C   UNL     1      50.176   8.495  13.226  0.00  0.00    +0.000 C 
ATOM     17  C   UNL     1      50.182   7.602  11.987  0.00  0.00    +0.000 C 
ATOM     18  C   UNL     1      48.769   7.703  11.404  0.00  0.00    +0.000 C 
ATOM     19  C   UNL     1      48.065   8.873  12.120  0.00  0.00    +0.000 C 
ATOM     20  C   UNL     1      49.220   9.614  12.807  0.00  0.00    +0.000 C 
BRANCH  16  21
ATOM     21  C   UNL     1      51.574   8.963  13.623  0.00  0.00    +0.000 C 
BRANCH  21  22
ATOM     22  N   UNL     1      52.320   7.894  14.276  0.00  0.00    +0.000 NA
ATOM     23  H   UNL     1      53.094   8.294  14.805  0.00  0.00    +0.000 HD
ATOM     24  H   UNL     1      52.742   7.287  13.573  0.00  0.00    +0.000 HD
ENDBRANCH  21  22
ENDBRANCH  16  21
ENDBRANCH  15  19
ENDBRANCH   1  15
TORSDOF 5
ENDMDL
MODEL 9
REMARK VINA RESULT:    -5.805      3.863      6.428
REMARK INTER + INTRA:          -7.417
REMARK INTER:                  -6.827
REMARK INTRA:                  -0.590
REMARK UNBOUND:                -0.085
REMARK  Name = 
REMARK  5 active torsions:
REMARK  status: ('A' for Active; 'I' for Inactive)
REMARK    1  A    between atoms: N_1  and  C_2
REMARK    2  A    between atoms: C_2  and  C_3
REMARK    3  A    between atoms: C_6  and  C_7
REMARK    4  A    between atoms: C_7  and  N_8
REMARK    5  A    between atoms: C_13  and  C_14
REMARK                            x       y       z     vdW  Elec       q    Type
REMARK                         _______ _______ _______ _____ _____    ______ ____
ROOT
ATOM      1  N   UNL     1      45.650   7.465  12.488  0.00  0.00    +0.000 N 
ATOM      2  C   UNL     1      45.035   8.664  12.225  0.00  0.00    +0.000 A 
ATOM      3  C   UNL     1      46.010   9.622  12.077  0.00  0.00    +0.000 A 
ATOM      4  C   UNL     1      47.267   8.969  12.174  0.00  0.00    +0.000 A 
ATOM      5  C   UNL     1      48.598   9.439  12.141  0.00  0.00    +0.000 A 
ATOM      6  C   UNL     1      49.659   8.528  12.248  0.00  0.00    +0.000 A 
ATOM      7  C   UNL     1      49.375   7.154  12.325  0.00  0.00    +0.000 A 
ATOM      8  C   UNL     1      48.063   6.669  12.364  0.00  0.00    +0.000 A 
ATOM      9  C   UNL     1      47.015   7.606  12.337  0.00  0.00    +0.000 A 
ENDROOT
BRANCH   6  10
ATOM     10  C   UNL     1      51.089   8.944  12.311  0.00  0.00    +0.000 C 
ATOM     11  N   UNL     1      52.012   8.056  12.789  0.00  0.00    +0.000 N 
ATOM     12  O   UNL     1      51.454  10.050  11.933  0.00  0.00    +0.000 OA
ATOM     13  H   UNL     1      51.813   7.126  13.118  0.00  0.00    +0.000 HD
ATOM     14  H   UNL     1      52.977   8.363  12.796  0.00  0.00    +0.000 HD
ENDBRANCH   6  10
BRANCH   1  15
ATOM     15  C   UNL     1      44.938   6.262  12.903  0.00  0.00    +0.000 C 
BRANCH  15  19
ATOM     16  C   UNL     1      44.641   3.696  11.000  0.00  0.00    +0.000 C 
ATOM     17  C   UNL     1      43.360   3.374  11.767  0.00  0.00    +0.000 C 
ATOM     18  C   UNL     1      42.981   4.671  12.490  0.00  0.00    +0.000 C 
ATOM     19  C   UNL     1      43.855   5.794  11.897  0.00  0.00    +0.000 C 
ATOM     20  C   UNL     1      44.424   5.162  10.619  0.00  0.00    +0.000 C 
BRANCH  16  21
ATOM     21  C   UNL     1      44.873   2.756   9.819  0.00  0.00    +0.000 C 
BRANCH  21  22
ATOM     22  N   UNL     1      44.359   3.331   8.581  0.00  0.00    +0.000 NA
ATOM     23  H   UNL     1      44.737   4.270   8.462  0.00  0.00    +0.000 HD
ATOM     24  H   UNL     1      43.348   3.438   8.644  0.00  0.00    +0.000 HD
ENDBRANCH  21  22
ENDBRANCH  16  21
ENDBRANCH  15  19
ENDBRANCH   1  15
TORSDOF 5
ENDMDL
