MODEL 1
REMARK VINA RESULT:    -6.387      0.000      0.000
REMARK INTER + INTRA:          -8.215
REMARK INTER:                  -7.694
REMARK INTRA:                  -0.521
REMARK UNBOUND:                -0.521
REMARK  Name = 
REMARK  4 active torsions:
REMARK  status: ('A' for Active; 'I' for Inactive)
REMARK    1  A    between atoms: C_2  and  C_3
REMARK    2  A    between atoms: C_10  and  C_11
REMARK    3  A    between atoms: C_15  and  N_16
REMARK    4  A    between atoms: C_19  and  O_20
REMARK                            x       y       z     vdW  Elec       q    Type
REMARK                         _______ _______ _______ _____ _____    ______ ____
ROOT
ATOM      1  C   UNL     1      50.865   6.085  18.358  0.00  0.00    +0.000 A 
ATOM      2  C   UNL     1      49.700   6.798  18.599  0.00  0.00    +0.000 A 
ATOM      3  C   UNL     1      48.948   7.246  17.517  0.00  0.00    +0.000 A 
ATOM      4  C   UNL     1      49.366   6.972  16.212  0.00  0.00    +0.000 A 
ATOM      5  N   UNL     1      48.656   7.443  15.128  0.00  0.00    +0.000 N 
ATOM      6  C   UNL     1      48.648   6.644  13.904  0.00  0.00    +0.000 C 
ATOM      7  C   UNL     1      49.007   7.468  12.676  0.00  0.00    +0.000 C 
ATOM      8  C   UNL     1      48.319   8.837  12.615  0.00  0.00    +0.000 C 
ATOM      9  C   UNL     1      48.559   9.592  13.928  0.00  0.00    +0.000 C 
ATOM     10  C   UNL     1      48.131   8.804  15.160  0.00  0.00    +0.000 C 
ATOM     11  N   UNL     1      50.484   6.251  15.984  0.00  0.00    +0.000 NA
ATOM     12  C   UNL     1      51.212   5.835  17.044  0.00  0.00    +0.000 A 
ENDROOT
BRANCH   8  13
ATOM     13  C   UNL     1      46.844   8.826  12.226  0.00  0.00    +0.000 A 
ATOM     14  C   UNL     1      46.142   9.984  11.876  0.00  0.00    +0.000 A 
ATOM     15  C   UNL     1      44.841   9.926  11.400  0.00  0.00    +0.000 A 
ATOM     16  C   UNL     1      44.217   8.695  11.253  0.00  0.00    +0.000 A 
ATOM     17  C   UNL     1      44.865   7.500  11.587  0.00  0.00    +0.000 A 
ATOM     18  C   UNL     1      46.172   7.594  12.102  0.00  0.00    +0.000 A 
BRANCH  17  19
ATOM     19  N   UNL     1      44.258   6.277  11.373  0.00  0.00    +0.000 N 
ATOM     20  C   UNL     1      42.901   6.014  11.856  0.00  0.00    +0.000 C 
ATOM     21  C   UNL     1      42.918   4.877  12.871  0.00  0.00    +0.000 C 
ATOM     22  C   UNL     1      43.656   3.655  12.330  0.00  0.00    +0.000 C 
ATOM     23  C   UNL     1      45.046   4.013  11.803  0.00  0.00    +0.000 C 
ATOM     24  C   UNL     1      45.000   5.160  10.797  0.00  0.00    +0.000 C 
BRANCH  22  25
ATOM     25  O   UNL     1      42.885   3.011  11.317  0.00  0.00    +0.000 OA
ATOM     26  H   UNL     1      42.598   3.677  10.670  0.00  0.00    +0.000 HD
ENDBRANCH  22  25
ENDBRANCH  17  19
ENDBRANCH   8  13
BRANCH   1  28
ATOM     27  N   UNL     1      52.369   5.237  20.284  0.00  0.00    +0.000 NA
ATOM     28  C   UNL     1      51.687   5.619  19.421  0.00  0.00    +0.000 C 
ENDBRANCH   1  28
TORSDOF 4
ENDMDL
MODEL 2
REMARK VINA RESULT:    -5.859      3.123      7.692
REMARK INTER + INTRA:          -7.579
REMARK INTER:                  -7.161
REMARK INTRA:                  -0.417
REMARK UNBOUND:                -0.521
REMARK  Name = 
REMARK  4 active torsions:
REMARK  status: ('A' for Active; 'I' for Inactive)
REMARK    1  A    between atoms: C_2  and  C_3
REMARK    2  A    between atoms: C_10  and  C_11
REMARK    3  A    between atoms: C_15  and  N_16
REMARK    4  A    between atoms: C_19  and  O_20
REMARK                            x       y       z     vdW  Elec       q    Type
REMARK                         _______ _______ _______ _____ _____    ______ ____
ROOT
ATOM      1  C   UNL     1      45.143   4.030  10.830  0.00  0.00    +0.000 A 
ATOM      2  C   UNL     1      45.431   3.562  12.103  0.00  0.00    +0.000 A 
ATOM      3  C   UNL     1      46.017   4.428  13.022  0.00  0.00    +0.000 A 
ATOM      4  C   UNL     1      46.302   5.747  12.660  0.00  0.00    +0.000 A 
ATOM      5  N   UNL     1      46.920   6.607  13.543  0.00  0.00    +0.000 N 
ATOM      6  C   UNL     1      46.596   8.030  13.468  0.00  0.00    +0.000 C 
ATOM      7  C   UNL     1      47.842   8.902  13.406  0.00  0.00    +0.000 C 
ATOM      8  C   UNL     1      48.944   8.493  14.391  0.00  0.00    +0.000 C 
ATOM      9  C   UNL     1      49.254   7.000  14.225  0.00  0.00    +0.000 C 
ATOM     10  C   UNL     1      48.023   6.113  14.361  0.00  0.00    +0.000 C 
ATOM     11  N   UNL     1      45.991   6.206  11.429  0.00  0.00    +0.000 NA
ATOM     12  C   UNL     1      45.436   5.350  10.542  0.00  0.00    +0.000 A 
ENDROOT
BRANCH   8  13
ATOM     13  C   UNL     1      48.706   8.866  15.851  0.00  0.00    +0.000 A 
ATOM     14  C   UNL     1      48.390  10.165  16.261  0.00  0.00    +0.000 A 
ATOM     15  C   UNL     1      48.050  10.447  17.576  0.00  0.00    +0.000 A 
ATOM     16  C   UNL     1      48.008   9.422  18.510  0.00  0.00    +0.000 A 
ATOM     17  C   UNL     1      48.314   8.101  18.162  0.00  0.00    +0.000 A 
ATOM     18  C   UNL     1      48.692   7.852  16.829  0.00  0.00    +0.000 A 
BRANCH  17  19
ATOM     19  N   UNL     1      48.204   7.078  19.086  0.00  0.00    +0.000 N 
ATOM     20  C   UNL     1      49.163   6.944  20.182  0.00  0.00    +0.000 C 
ATOM     21  C   UNL     1      49.911   5.622  20.066  0.00  0.00    +0.000 C 
ATOM     22  C   UNL     1      48.949   4.447  19.908  0.00  0.00    +0.000 C 
ATOM     23  C   UNL     1      47.948   4.675  18.774  0.00  0.00    +0.000 C 
ATOM     24  C   UNL     1      47.222   6.011  18.911  0.00  0.00    +0.000 C 
BRANCH  22  25
ATOM     25  O   UNL     1      48.268   4.188  21.134  0.00  0.00    +0.000 OA
ATOM     26  H   UNL     1      47.528   3.581  20.961  0.00  0.00    +0.000 HD
ENDBRANCH  22  25
ENDBRANCH  17  19
ENDBRANCH   8  13
BRANCH   1  28
ATOM     27  N   UNL     1      44.099   2.492   9.032  0.00  0.00    +0.000 NA
ATOM     28  C   UNL     1      44.565   3.188   9.840  0.00  0.00    +0.000 C 
ENDBRANCH   1  28
TORSDOF 4
ENDMDL
MODEL 3
REMARK VINA RESULT:    -5.698      2.096      2.289
REMARK INTER + INTRA:          -7.385
REMARK INTER:                  -6.742
REMARK INTRA:                  -0.644
REMARK UNBOUND:                -0.521
REMARK  Name = 
REMARK  4 active torsions:
REMARK  status: ('A' for Active; 'I' for Inactive)
REMARK    1  A    between atoms: C_2  and  C_3
REMARK    2  A    between atoms: C_10  and  C_11
REMARK    3  A    between atoms: C_15  and  N_16
REMARK    4  A    between atoms: C_19  and  O_20
REMARK                            x       y       z     vdW  Elec       q    Type
REMARK                         _______ _______ _______ _____ _____    ______ ____
ROOT
ATOM      1  C   UNL     1      52.916   8.998  17.258  0.00  0.00    +0.000 A 
ATOM      2  C   UNL     1      51.889   9.930  17.272  0.00  0.00    +0.000 A 
ATOM      3  C   UNL     1      50.829   9.777  16.383  0.00  0.00    +0.000 A 
ATOM      4  C   UNL     1      50.806   8.696  15.499  0.00  0.00    +0.000 A 
ATOM      5  N   UNL     1      49.785   8.550  14.584  0.00  0.00    +0.000 N 
ATOM      6  C   UNL     1      49.386   7.198  14.198  0.00  0.00    +0.000 C 
ATOM      7  C   UNL     1      49.330   7.022  12.687  0.00  0.00    +0.000 C 
ATOM      8  C   UNL     1      48.657   8.183  11.944  0.00  0.00    +0.000 C 
ATOM      9  C   UNL     1      49.304   9.508  12.366  0.00  0.00    +0.000 C 
ATOM     10  C   UNL     1      49.295   9.727  13.873  0.00  0.00    +0.000 C 
ATOM     11  N   UNL     1      51.793   7.775  15.511  0.00  0.00    +0.000 NA
ATOM     12  C   UNL     1      52.823   7.944  16.369  0.00  0.00    +0.000 A 
ENDROOT
BRANCH   8  13
ATOM     13  C   UNL     1      47.135   8.238  12.034  0.00  0.00    +0.000 A 
ATOM     14  C   UNL     1      46.410   9.428  11.914  0.00  0.00    +0.000 A 
ATOM     15  C   UNL     1      45.024   9.431  11.867  0.00  0.00    +0.000 A 
ATOM     16  C   UNL     1      44.332   8.229  11.930  0.00  0.00    +0.000 A 
ATOM     17  C   UNL     1      45.000   7.005  12.052  0.00  0.00    +0.000 A 
ATOM     18  C   UNL     1      46.405   7.038  12.133  0.00  0.00    +0.000 A 
BRANCH  17  19
ATOM     19  N   UNL     1      44.303   5.810  12.044  0.00  0.00    +0.000 N 
ATOM     20  C   UNL     1      44.680   4.713  12.936  0.00  0.00    +0.000 C 
ATOM     21  C   UNL     1      45.103   3.497  12.121  0.00  0.00    +0.000 C 
ATOM     22  C   UNL     1      44.059   3.139  11.067  0.00  0.00    +0.000 C 
ATOM     23  C   UNL     1      43.682   4.343  10.202  0.00  0.00    +0.000 C 
ATOM     24  C   UNL     1      43.272   5.548  11.045  0.00  0.00    +0.000 C 
BRANCH  22  25
ATOM     25  O   UNL     1      42.898   2.578  11.680  0.00  0.00    +0.000 OA
ATOM     26  H   UNL     1      42.850   1.633  11.455  0.00  0.00    +0.000 HD
ENDBRANCH  22  25
ENDBRANCH  17  19
ENDBRANCH   8  13
BRANCH   1  28
ATOM     27  N   UNL     1      54.948   9.202  18.845  0.00  0.00    +0.000 NA
ATOM     28  C   UNL     1      54.037   9.112  18.126  0.00  0.00    +0.000 C 
ENDBRANCH   1  28
TORSDOF 4
ENDMDL
MODEL 4
REMARK VINA RESULT:    -5.495      3.938      9.300
REMARK INTER + INTRA:          -7.141
REMARK INTER:                  -6.499
REMARK INTRA:                  -0.642
REMARK UNBOUND:                -0.521
REMARK  Name = 
REMARK  4 active torsions:
REMARK  status: ('A' for Active; 'I' for Inactive)
REMARK    1  A    between atoms: C_2  and  C_3
REMARK    2  A    between atoms: C_10  and  C_11
REMARK    3  A    between atoms: C_15  and  N_16
REMARK    4  A    between atoms: C_19  and  O_20
REMARK                            x       y       z     vdW  Elec       q    Type
REMARK                         _______ _______ _______ _____ _____    ______ ____
ROOT
ATOM      1  C   UNL     1      44.976   5.261  12.051  0.00  0.00    +0.000 A 
ATOM      2  C   UNL     1      46.170   5.906  11.765  0.00  0.00    +0.000 A 
ATOM      3  C   UNL     1      47.178   5.912  12.725  0.00  0.00    +0.000 A 
ATOM      4  C   UNL     1      46.984   5.270  13.950  0.00  0.00    +0.000 A 
ATOM      5  N   UNL     1      47.955   5.300  14.928  0.00  0.00    +0.000 N 
ATOM      6  C   UNL     1      48.074   4.151  15.824  0.00  0.00    +0.000 C 
ATOM      7  C   UNL     1      48.094   4.563  17.289  0.00  0.00    +0.000 C 
ATOM      8  C   UNL     1      48.989   5.771  17.589  0.00  0.00    +0.000 C 
ATOM      9  C   UNL     1      48.622   6.928  16.651  0.00  0.00    +0.000 C 
ATOM     10  C   UNL     1      48.673   6.545  15.177  0.00  0.00    +0.000 C 
ATOM     11  N   UNL     1      45.831   4.617  14.210  0.00  0.00    +0.000 NA
ATOM     12  C   UNL     1      44.855   4.632  13.276  0.00  0.00    +0.000 A 
ENDROOT
BRANCH   8  13
ATOM     13  C   UNL     1      50.491   5.503  17.602  0.00  0.00    +0.000 A 
ATOM     14  C   UNL     1      51.445   6.514  17.445  0.00  0.00    +0.000 A 
ATOM     15  C   UNL     1      52.800   6.261  17.593  0.00  0.00    +0.000 A 
ATOM     16  C   UNL     1      53.229   4.981  17.914  0.00  0.00    +0.000 A 
ATOM     17  C   UNL     1      52.324   3.926  18.083  0.00  0.00    +0.000 A 
ATOM     18  C   UNL     1      50.958   4.206  17.890  0.00  0.00    +0.000 A 
BRANCH  17  19
ATOM     19  N   UNL     1      52.758   2.671  18.470  0.00  0.00    +0.000 N 
ATOM     20  C   UNL     1      53.878   2.514  19.399  0.00  0.00    +0.000 C 
ATOM     21  C   UNL     1      55.023   1.773  18.719  0.00  0.00    +0.000 C 
ATOM     22  C   UNL     1      54.542   0.479  18.066  0.00  0.00    +0.000 C 
ATOM     23  C   UNL     1      53.344   0.713  17.145  0.00  0.00    +0.000 C 
ATOM     24  C   UNL     1      52.218   1.465  17.850  0.00  0.00    +0.000 C 
BRANCH  22  25
ATOM     25  O   UNL     1      54.229  -0.498  19.058  0.00  0.00    +0.000 OA
ATOM     26  H   UNL     1      53.740  -1.226  18.639  0.00  0.00    +0.000 HD
ENDBRANCH  22  25
ENDBRANCH  17  19
ENDBRANCH   8  13
BRANCH   1  28
ATOM     27  N   UNL     1      43.023   5.211  10.356  0.00  0.00    +0.000 NA
ATOM     28  C   UNL     1      43.900   5.239  11.120  0.00  0.00    +0.000 C 
ENDBRANCH   1  28
TORSDOF 4
ENDMDL
MODEL 5
REMARK VINA RESULT:    -5.407      3.826      5.875
REMARK INTER + INTRA:          -7.035
REMARK INTER:                  -6.424
REMARK INTRA:                  -0.611
REMARK UNBOUND:                -0.521
REMARK  Name = 
REMARK  4 active torsions:
REMARK  status: ('A' for Active; 'I' for Inactive)
REMARK    1  A    between atoms: C_2  and  C_3
REMARK    2  A    between atoms: C_10  and  C_11
REMARK    3  A    between atoms: C_15  and  N_16
REMARK    4  A    between atoms: C_19  and  O_20
REMARK                            x       y       z     vdW  Elec       q    Type
REMARK                         _______ _______ _______ _____ _____    ______ ____
ROOT
ATOM      1  C   UNL     1      53.864  10.183  10.053  0.00  0.00    +0.000 A 
ATOM      2  C   UNL     1      54.154   9.237  11.024  0.00  0.00    +0.000 A 
ATOM      3  C   UNL     1      53.105   8.636  11.714  0.00  0.00    +0.000 A 
ATOM      4  C   UNL     1      51.784   8.983  11.421  0.00  0.00    +0.000 A 
ATOM      5  N   UNL     1      50.733   8.429  12.121  0.00  0.00    +0.000 N 
ATOM      6  C   UNL     1      49.464   8.229  11.425  0.00  0.00    +0.000 C 
ATOM      7  C   UNL     1      48.285   8.800  12.201  0.00  0.00    +0.000 C 
ATOM      8  C   UNL     1      48.311   8.487  13.702  0.00  0.00    +0.000 C 
ATOM      9  C   UNL     1      49.666   8.897  14.291  0.00  0.00    +0.000 C 
ATOM     10  C   UNL     1      50.850   8.269  13.567  0.00  0.00    +0.000 C 
ATOM     11  N   UNL     1      51.506   9.882  10.452  0.00  0.00    +0.000 NA
ATOM     12  C   UNL     1      52.536  10.468   9.802  0.00  0.00    +0.000 A 
ENDROOT
BRANCH   8  13
ATOM     13  C   UNL     1      47.929   7.062  14.092  0.00  0.00    +0.000 A 
ATOM     14  C   UNL     1      48.495   6.395  15.184  0.00  0.00    +0.000 A 
ATOM     15  C   UNL     1      48.034   5.153  15.593  0.00  0.00    +0.000 A 
ATOM     16  C   UNL     1      46.980   4.555  14.917  0.00  0.00    +0.000 A 
ATOM     17  C   UNL     1      46.372   5.170  13.817  0.00  0.00    +0.000 A 
ATOM     18  C   UNL     1      46.886   6.413  13.403  0.00  0.00    +0.000 A 
BRANCH  17  19
ATOM     19  N   UNL     1      45.279   4.595  13.194  0.00  0.00    +0.000 N 
ATOM     20  C   UNL     1      45.367   3.264  12.592  0.00  0.00    +0.000 C 
ATOM     21  C   UNL     1      45.113   3.349  11.092  0.00  0.00    +0.000 C 
ATOM     22  C   UNL     1      43.824   4.108  10.786  0.00  0.00    +0.000 C 
ATOM     23  C   UNL     1      43.782   5.469  11.483  0.00  0.00    +0.000 C 
ATOM     24  C   UNL     1      44.050   5.354  12.981  0.00  0.00    +0.000 C 
BRANCH  22  25
ATOM     25  O   UNL     1      42.684   3.326  11.142  0.00  0.00    +0.000 OA
ATOM     26  H   UNL     1      42.044   3.896  11.601  0.00  0.00    +0.000 HD
ENDBRANCH  22  25
ENDBRANCH  17  19
ENDBRANCH   8  13
BRANCH   1  28
ATOM     27  N   UNL     1      55.727  11.398   8.734  0.00  0.00    +0.000 NA
ATOM     28  C   UNL     1      54.893  10.847   9.329  0.00  0.00    +0.000 C 
ENDBRANCH   1  28
TORSDOF 4
ENDMDL
MODEL 6
REMARK VINA RESULT:    -5.208      4.193      7.811
REMARK INTER + INTRA:          -6.795
REMARK INTER:                  -6.510
REMARK INTRA:                  -0.286
REMARK UNBOUND:                -0.521
REMARK  Name = 
REMARK  4 active torsions:
REMARK  status: ('A' for Active; 'I' for Inactive)
REMARK    1  A    between atoms: C_2  and  C_3
REMARK    2  A    between atoms: C_10  and  C_11
REMARK    3  A    between atoms: C_15  and  N_16
REMARK    4  A    between atoms: C_19  and  O_20
REMARK                            x       y       z     vdW  Elec       q    Type
REMARK                         _______ _______ _______ _____ _____    ______ ____
ROOT
ATOM      1  C   UNL     1      44.784   4.032  11.881  0.00  0.00    +0.000 A 
ATOM      2  C   UNL     1      44.844   5.046  10.937  0.00  0.00    +0.000 A 
ATOM      3  C   UNL     1      45.821   6.029  11.065  0.00  0.00    +0.000 A 
ATOM      4  C   UNL     1      46.727   5.983  12.127  0.00  0.00    +0.000 A 
ATOM      5  N   UNL     1      47.675   6.969  12.294  0.00  0.00    +0.000 N 
ATOM      6  C   UNL     1      48.959   6.605  12.889  0.00  0.00    +0.000 C 
ATOM      7  C   UNL     1      49.344   7.526  14.038  0.00  0.00    +0.000 C 
ATOM      8  C   UNL     1      49.109   9.014  13.755  0.00  0.00    +0.000 C 
ATOM      9  C   UNL     1      47.666   9.226  13.281  0.00  0.00    +0.000 C 
ATOM     10  C   UNL     1      47.295   8.362  12.082  0.00  0.00    +0.000 C 
ATOM     11  N   UNL     1      46.684   4.976  13.026  0.00  0.00    +0.000 NA
ATOM     12  C   UNL     1      45.720   4.037  12.898  0.00  0.00    +0.000 A 
ENDROOT
BRANCH   8  13
ATOM     13  C   UNL     1      50.117   9.684  12.827  0.00  0.00    +0.000 A 
ATOM     14  C   UNL     1      50.608  10.976  13.044  0.00  0.00    +0.000 A 
ATOM     15  C   UNL     1      51.620  11.508  12.260  0.00  0.00    +0.000 A 
ATOM     16  C   UNL     1      52.173  10.745  11.241  0.00  0.00    +0.000 A 
ATOM     17  C   UNL     1      51.725   9.446  10.972  0.00  0.00    +0.000 A 
ATOM     18  C   UNL     1      50.671   8.948  11.762  0.00  0.00    +0.000 A 
BRANCH  17  19
ATOM     19  N   UNL     1      52.329   8.671   9.999  0.00  0.00    +0.000 N 
ATOM     20  C   UNL     1      52.053   7.237   9.899  0.00  0.00    +0.000 C 
ATOM     21  C   UNL     1      53.331   6.441  10.131  0.00  0.00    +0.000 C 
ATOM     22  C   UNL     1      54.470   6.940   9.246  0.00  0.00    +0.000 C 
ATOM     23  C   UNL     1      54.671   8.451   9.368  0.00  0.00    +0.000 C 
ATOM     24  C   UNL     1      53.373   9.222   9.141  0.00  0.00    +0.000 C 
BRANCH  22  25
ATOM     25  O   UNL     1      54.247   6.572   7.885  0.00  0.00    +0.000 OA
ATOM     26  H   UNL     1      54.922   5.926   7.619  0.00  0.00    +0.000 HD
ENDBRANCH  22  25
ENDBRANCH  17  19
ENDBRANCH   8  13
BRANCH   1  28
ATOM     27  N   UNL     1      42.991   2.172  11.756  0.00  0.00    +0.000 NA
ATOM     28  C   UNL     1      43.795   3.011  11.817  0.00  0.00    +0.000 C 
ENDBRANCH   1  28
TORSDOF 4
ENDMDL
MODEL 7
REMARK VINA RESULT:    -5.146      4.010      9.581
REMARK INTER + INTRA:          -6.720
REMARK INTER:                  -6.073
REMARK INTRA:                  -0.646
REMARK UNBOUND:                -0.521
REMARK  Name = 
REMARK  4 active torsions:
REMARK  status: ('A' for Active; 'I' for Inactive)
REMARK    1  A    between atoms: C_2  and  C_3
REMARK    2  A    between atoms: C_10  and  C_11
REMARK    3  A    between atoms: C_15  and  N_16
REMARK    4  A    between atoms: C_19  and  O_20
REMARK                            x       y       z     vdW  Elec       q    Type
REMARK                         _______ _______ _______ _____ _____    ______ ____
ROOT
ATOM      1  C   UNL     1      45.022   5.947  12.445  0.00  0.00    +0.000 A 
ATOM      2  C   UNL     1      46.256   6.565  12.574  0.00  0.00    +0.000 A 
ATOM      3  C   UNL     1      47.147   6.097  13.535  0.00  0.00    +0.000 A 
ATOM      4  C   UNL     1      46.797   5.017  14.349  0.00  0.00    +0.000 A 
ATOM      5  N   UNL     1      47.649   4.565  15.334  0.00  0.00    +0.000 N 
ATOM      6  C   UNL     1      47.635   3.142  15.665  0.00  0.00    +0.000 C 
ATOM      7  C   UNL     1      47.496   2.900  17.162  0.00  0.00    +0.000 C 
ATOM      8  C   UNL     1      48.380   3.805  18.028  0.00  0.00    +0.000 C 
ATOM      9  C   UNL     1      48.154   5.271  17.639  0.00  0.00    +0.000 C 
ATOM     10  C   UNL     1      48.364   5.537  16.154  0.00  0.00    +0.000 C 
ATOM     11  N   UNL     1      45.606   4.399  14.198  0.00  0.00    +0.000 NA
ATOM     12  C   UNL     1      44.745   4.874  13.271  0.00  0.00    +0.000 A 
ENDROOT
BRANCH   8  13
ATOM     13  C   UNL     1      49.863   3.449  18.067  0.00  0.00    +0.000 A 
ATOM     14  C   UNL     1      50.372   2.254  17.548  0.00  0.00    +0.000 A 
ATOM     15  C   UNL     1      51.737   2.017  17.479  0.00  0.00    +0.000 A 
ATOM     16  C   UNL     1      52.626   2.986  17.921  0.00  0.00    +0.000 A 
ATOM     17  C   UNL     1      52.180   4.202  18.451  0.00  0.00    +0.000 A 
ATOM     18  C   UNL     1      50.789   4.398  18.543  0.00  0.00    +0.000 A 
BRANCH  17  19
ATOM     19  N   UNL     1      53.076   5.187  18.825  0.00  0.00    +0.000 N 
ATOM     20  C   UNL     1      52.672   6.273  19.719  0.00  0.00    +0.000 C 
ATOM     21  C   UNL     1      52.796   7.613  19.004  0.00  0.00    +0.000 C 
ATOM     22  C   UNL     1      54.173   7.783  18.368  0.00  0.00    +0.000 C 
ATOM     23  C   UNL     1      54.546   6.592  17.484  0.00  0.00    +0.000 C 
ATOM     24  C   UNL     1      54.403   5.263  18.223  0.00  0.00    +0.000 C 
BRANCH  22  25
ATOM     25  O   UNL     1      55.166   7.995  19.370  0.00  0.00    +0.000 OA
ATOM     26  H   UNL     1      56.003   7.601  19.070  0.00  0.00    +0.000 HD
ENDBRANCH  22  25
ENDBRANCH  17  19
ENDBRANCH   8  13
BRANCH   1  28
ATOM     27  N   UNL     1      43.272   6.749  10.717  0.00  0.00    +0.000 NA
ATOM     28  C   UNL     1      44.060   6.394  11.497  0.00  0.00    +0.000 C 
ENDBRANCH   1  28
TORSDOF 4
ENDMDL
MODEL 8
REMARK VINA RESULT:    -4.549      3.947      8.284
REMARK INTER + INTRA:          -6.001
REMARK INTER:                  -5.350
REMARK INTRA:                  -0.651
REMARK UNBOUND:                -0.521
REMARK  Name = 
REMARK  4 active torsions:
REMARK  status: ('A' for Active; 'I' for Inactive)
REMARK    1  A    between atoms: C_2  and  C_3
REMARK    2  A    between atoms: C_10  and  C_11
REMARK    3  A    between atoms: C_15  and  N_16
REMARK    4  A    between atoms: C_19  and  O_20
REMARK                            x       y       z     vdW  Elec       q    Type
REMARK                         _______ _______ _______ _____ _____    ______ ____
ROOT
ATOM      1  C   UNL     1      44.721   4.084  11.885  0.00  0.00    +0.000 A 
ATOM      2  C   UNL     1      45.288   4.792  10.836  0.00  0.00    +0.000 A 
ATOM      3  C   UNL     1      46.213   5.792  11.121  0.00  0.00    +0.000 A 
ATOM      4  C   UNL     1      46.562   6.068  12.445  0.00  0.00    +0.000 A 
ATOM      5  N   UNL     1      47.445   7.082  12.749  0.00  0.00    +0.000 N 
ATOM      6  C   UNL     1      48.301   6.929  13.924  0.00  0.00    +0.000 C 
ATOM      7  C   UNL     1      48.249   8.145  14.838  0.00  0.00    +0.000 C 
ATOM      8  C   UNL     1      48.317   9.487  14.101  0.00  0.00    +0.000 C 
ATOM      9  C   UNL     1      47.250   9.525  12.999  0.00  0.00    +0.000 C 
ATOM     10  C   UNL     1      47.343   8.350  12.034  0.00  0.00    +0.000 C 
ATOM     11  N   UNL     1      46.030   5.355  13.461  0.00  0.00    +0.000 NA
ATOM     12  C   UNL     1      45.122   4.397  13.170  0.00  0.00    +0.000 A 
ENDROOT
BRANCH   8  13
ATOM     13  C   UNL     1      49.692   9.891  13.576  0.00  0.00    +0.000 A 
ATOM     14  C   UNL     1      49.880  10.932  12.661  0.00  0.00    +0.000 A 
ATOM     15  C   UNL     1      51.149  11.362  12.304  0.00  0.00    +0.000 A 
ATOM     16  C   UNL     1      52.263  10.759  12.869  0.00  0.00    +0.000 A 
ATOM     17  C   UNL     1      52.142   9.711  13.790  0.00  0.00    +0.000 A 
ATOM     18  C   UNL     1      50.841   9.273  14.104  0.00  0.00    +0.000 A 
BRANCH  17  19
ATOM     19  N   UNL     1      53.257   9.164  14.397  0.00  0.00    +0.000 N 
ATOM     20  C   UNL     1      53.612   7.759  14.195  0.00  0.00    +0.000 C 
ATOM     21  C   UNL     1      53.565   7.011  15.522  0.00  0.00    +0.000 C 
ATOM     22  C   UNL     1      54.374   7.730  16.598  0.00  0.00    +0.000 C 
ATOM     23  C   UNL     1      53.981   9.202  16.723  0.00  0.00    +0.000 C 
ATOM     24  C   UNL     1      54.027   9.923  15.378  0.00  0.00    +0.000 C 
BRANCH  22  25
ATOM     25  O   UNL     1      55.773   7.604  16.344  0.00  0.00    +0.000 OA
ATOM     26  H   UNL     1      56.263   7.915  17.124  0.00  0.00    +0.000 HD
ENDBRANCH  22  25
ENDBRANCH  17  19
ENDBRANCH   8  13
BRANCH   1  28
ATOM     27  N   UNL     1      42.969   2.228  11.468  0.00  0.00    +0.000 NA
ATOM     28  C   UNL     1      43.754   3.065  11.660  0.00  0.00    +0.000 C 
ENDBRANCH   1  28
TORSDOF 4
ENDMDL
MODEL 9
REMARK VINA RESULT:    -4.547      3.011      3.471
REMARK INTER + INTRA:          -5.998
REMARK INTER:                  -5.783
REMARK INTRA:                  -0.215
REMARK UNBOUND:                -0.521
REMARK  Name = 
REMARK  4 active torsions:
REMARK  status: ('A' for Active; 'I' for Inactive)
REMARK    1  A    between atoms: C_2  and  C_3
REMARK    2  A    between atoms: C_10  and  C_11
REMARK    3  A    between atoms: C_15  and  N_16
REMARK    4  A    between atoms: C_19  and  O_20
REMARK                            x       y       z     vdW  Elec       q    Type
REMARK                         _______ _______ _______ _____ _____    ______ ____
ROOT
ATOM      1  C   UNL     1      53.459  10.632  18.802  0.00  0.00    +0.000 A 
ATOM      2  C   UNL     1      52.862  11.448  17.853  0.00  0.00    +0.000 A 
ATOM      3  C   UNL     1      51.897  10.906  17.009  0.00  0.00    +0.000 A 
ATOM      4  C   UNL     1      51.539   9.561  17.127  0.00  0.00    +0.000 A 
ATOM      5  N   UNL     1      50.616   8.995  16.273  0.00  0.00    +0.000 N 
ATOM      6  C   UNL     1      49.769   7.918  16.782  0.00  0.00    +0.000 C 
ATOM      7  C   UNL     1      49.773   6.701  15.867  0.00  0.00    +0.000 C 
ATOM      8  C   UNL     1      49.649   7.036  14.376  0.00  0.00    +0.000 C 
ATOM      9  C   UNL     1      50.711   8.073  13.991  0.00  0.00    +0.000 C 
ATOM     10  C   UNL     1      50.665   9.328  14.854  0.00  0.00    +0.000 C 
ATOM     11  N   UNL     1      52.102   8.779  18.073  0.00  0.00    +0.000 NA
ATOM     12  C   UNL     1      53.047   9.315  18.875  0.00  0.00    +0.000 A 
ENDROOT
BRANCH   8  13
ATOM     13  C   UNL     1      48.258   7.442  13.897  0.00  0.00    +0.000 A 
ATOM     14  C   UNL     1      47.859   8.776  13.764  0.00  0.00    +0.000 A 
ATOM     15  C   UNL     1      46.638   9.115  13.202  0.00  0.00    +0.000 A 
ATOM     16  C   UNL     1      45.790   8.115  12.748  0.00  0.00    +0.000 A 
ATOM     17  C   UNL     1      46.130   6.761  12.854  0.00  0.00    +0.000 A 
ATOM     18  C   UNL     1      47.360   6.448  13.462  0.00  0.00    +0.000 A 
BRANCH  17  19
ATOM     19  N   UNL     1      45.307   5.777  12.336  0.00  0.00    +0.000 N 
ATOM     20  C   UNL     1      44.760   5.887  10.984  0.00  0.00    +0.000 C 
ATOM     21  C   UNL     1      43.238   5.949  11.038  0.00  0.00    +0.000 C 
ATOM     22  C   UNL     1      42.661   4.809  11.875  0.00  0.00    +0.000 C 
ATOM     23  C   UNL     1      43.311   4.728  13.257  0.00  0.00    +0.000 C 
ATOM     24  C   UNL     1      44.835   4.677  13.172  0.00  0.00    +0.000 C 
BRANCH  22  25
ATOM     25  O   UNL     1      42.790   3.566  11.186  0.00  0.00    +0.000 OA
ATOM     26  H   UNL     1      43.717   3.278  11.228  0.00  0.00    +0.000 HD
ENDBRANCH  22  25
ENDBRANCH  17  19
ENDBRANCH   8  13
BRANCH   1  28
ATOM     27  N   UNL     1      55.293  11.513  20.398  0.00  0.00    +0.000 NA
ATOM     28  C   UNL     1      54.467  11.123  19.678  0.00  0.00    +0.000 C 
ENDBRANCH   1  28
TORSDOF 4
ENDMDL
