MODEL 1
REMARK VINA RESULT:    -8.511      0.000      0.000
REMARK INTER + INTRA:         -11.673
REMARK INTER:                 -10.999
REMARK INTRA:                  -0.674
REMARK UNBOUND:                -0.674
REMARK  Name = 
REMARK  5 active torsions:
REMARK  status: ('A' for Active; 'I' for Inactive)
REMARK    1  A    between atoms: C_2  and  C_4
REMARK    2  A    between atoms: C_7  and  C_8
REMARK    3  A    between atoms: C_8  and  S_9
REMARK    4  A    between atoms: S_9  and  C_10
REMARK    5  A    between atoms: C_14  and  N_15
REMARK                            x       y       z     vdW  Elec       q    Type
REMARK                         _______ _______ _______ _____ _____    ______ ____
ROOT
ATOM      1  S   UNL     1      43.613   3.724  12.007  0.00  0.00    +0.000 S 
ENDROOT
BRANCH   1   2
ATOM      2  C   UNL     1      45.104   4.391  12.705  0.00  0.00    +0.000 A 
ATOM      3  N   UNL     1      45.867   3.637  13.505  0.00  0.00    +0.000 NA
ATOM      4  C   UNL     1      46.965   4.243  13.985  0.00  0.00    +0.000 A 
ATOM      5  C   UNL     1      47.314   5.547  13.695  0.00  0.00    +0.000 A 
ATOM      6  C   UNL     1      46.472   6.263  12.868  0.00  0.00    +0.000 A 
ATOM      7  N   UNL     1      45.370   5.668  12.378  0.00  0.00    +0.000 NA
BRANCH   6   8
ATOM      8  N   UNL     1      46.661   7.612  12.602  0.00  0.00    +0.000 N 
ATOM      9  C   UNL     1      45.638   8.628  12.899  0.00  0.00    +0.000 C 
ATOM     10  C   UNL     1      45.899   9.876  12.035  0.00  0.00    +0.000 C 
ATOM     11  O   UNL     1      47.227  10.391  12.222  0.00  0.00    +0.000 OA
ATOM     12  C   UNL     1      48.200   9.386  11.889  0.00  0.00    +0.000 C 
ATOM     13  C   UNL     1      48.034   8.134  12.765  0.00  0.00    +0.000 C 
ENDBRANCH   6   8
ENDBRANCH   1   2
BRANCH   1  14
ATOM     14  C   UNL     1      43.625   4.477  10.353  0.00  0.00    +0.000 C 
BRANCH  14  18
ATOM     15  C   UNL     1      46.453   2.477   7.739  0.00  0.00    +0.000 A 
ATOM     16  C   UNL     1      46.312   3.870   7.692  0.00  0.00    +0.000 A 
ATOM     17  C   UNL     1      45.405   4.515   8.543  0.00  0.00    +0.000 A 
ATOM     18  C   UNL     1      44.629   3.781   9.454  0.00  0.00    +0.000 A 
ATOM     19  C   UNL     1      44.762   2.384   9.481  0.00  0.00    +0.000 A 
ATOM     20  C   UNL     1      45.663   1.738   8.628  0.00  0.00    +0.000 A 
BRANCH  15  22
ATOM     21  N   UNL     1      48.511   2.417   6.434  0.00  0.00    +0.000 N 
ATOM     22  C   UNL     1      47.395   1.747   6.856  0.00  0.00    +0.000 C 
ATOM     23  O   UNL     1      47.214   0.576   6.544  0.00  0.00    +0.000 OA
ATOM     24  H   UNL     1      49.196   1.867   5.930  0.00  0.00    +0.000 HD
ATOM     25  H   UNL     1      48.825   3.271   6.870  0.00  0.00    +0.000 HD
ENDBRANCH  15  22
ENDBRANCH  14  18
ENDBRANCH   1  14
TORSDOF 5
ENDMDL
MODEL 2
REMARK VINA RESULT:    -8.414      2.417      3.845
REMARK INTER + INTRA:         -11.547
REMARK INTER:                 -11.084
REMARK INTRA:                  -0.463
REMARK UNBOUND:                -0.674
REMARK  Name = 
REMARK  5 active torsions:
REMARK  status: ('A' for Active; 'I' for Inactive)
REMARK    1  A    between atoms: C_2  and  C_4
REMARK    2  A    between atoms: C_7  and  C_8
REMARK    3  A    between atoms: C_8  and  S_9
REMARK    4  A    between atoms: S_9  and  C_10
REMARK    5  A    between atoms: C_14  and  N_15
REMARK                            x       y       z     vdW  Elec       q    Type
REMARK                         _______ _______ _______ _____ _____    ______ ____
ROOT
ATOM      1  S   UNL     1      43.950   3.863  12.064  0.00  0.00    +0.000 S 
ENDROOT
BRANCH   1   2
ATOM      2  C   UNL     1      45.373   4.759  12.637  0.00  0.00    +0.000 A 
ATOM      3  N   UNL     1      45.934   5.696  11.863  0.00  0.00    +0.000 NA
ATOM      4  C   UNL     1      47.009   6.303  12.390  0.00  0.00    +0.000 A 
ATOM      5  C   UNL     1      47.525   6.012  13.636  0.00  0.00    +0.000 A 
ATOM      6  C   UNL     1      46.896   5.028  14.372  0.00  0.00    +0.000 A 
ATOM      7  N   UNL     1      45.816   4.412  13.858  0.00  0.00    +0.000 NA
BRANCH   6   8
ATOM      8  N   UNL     1      47.394   4.572  15.585  0.00  0.00    +0.000 N 
ATOM      9  C   UNL     1      47.696   3.153  15.833  0.00  0.00    +0.000 C 
ATOM     10  C   UNL     1      47.704   2.896  17.352  0.00  0.00    +0.000 C 
ATOM     11  O   UNL     1      48.623   3.761  18.039  0.00  0.00    +0.000 OA
ATOM     12  C   UNL     1      48.278   5.137  17.804  0.00  0.00    +0.000 C 
ATOM     13  C   UNL     1      48.315   5.476  16.306  0.00  0.00    +0.000 C 
ENDBRANCH   6   8
ENDBRANCH   1   2
BRANCH   1  14
ATOM     14  C   UNL     1      43.770   4.518  10.378  0.00  0.00    +0.000 C 
BRANCH  14  18
ATOM     15  C   UNL     1      46.465   2.453   7.676  0.00  0.00    +0.000 A 
ATOM     16  C   UNL     1      45.724   1.732   8.621  0.00  0.00    +0.000 A 
ATOM     17  C   UNL     1      44.847   2.400   9.487  0.00  0.00    +0.000 A 
ATOM     18  C   UNL     1      44.695   3.794   9.419  0.00  0.00    +0.000 A 
ATOM     19  C   UNL     1      45.456   4.511   8.483  0.00  0.00    +0.000 A 
ATOM     20  C   UNL     1      46.336   3.847   7.622  0.00  0.00    +0.000 A 
BRANCH  15  22
ATOM     21  N   UNL     1      48.529   2.491   6.381  0.00  0.00    +0.000 N 
ATOM     22  C   UNL     1      47.409   1.794   6.741  0.00  0.00    +0.000 C 
ATOM     23  O   UNL     1      47.225   0.654   6.333  0.00  0.00    +0.000 OA
ATOM     24  H   UNL     1      49.215   1.982   5.837  0.00  0.00    +0.000 HD
ATOM     25  H   UNL     1      48.845   3.306   6.887  0.00  0.00    +0.000 HD
ENDBRANCH  15  22
ENDBRANCH  14  18
ENDBRANCH   1  14
TORSDOF 5
ENDMDL
MODEL 3
REMARK VINA RESULT:    -8.381      0.704      1.562
REMARK INTER + INTRA:         -11.505
REMARK INTER:                 -10.821
REMARK INTRA:                  -0.684
REMARK UNBOUND:                -0.674
REMARK  Name = 
REMARK  5 active torsions:
REMARK  status: ('A' for Active; 'I' for Inactive)
REMARK    1  A    between atoms: C_2  and  C_4
REMARK    2  A    between atoms: C_7  and  C_8
REMARK    3  A    between atoms: C_8  and  S_9
REMARK    4  A    between atoms: S_9  and  C_10
REMARK    5  A    between atoms: C_14  and  N_15
REMARK                            x       y       z     vdW  Elec       q    Type
REMARK                         _______ _______ _______ _____ _____    ______ ____
ROOT
ATOM      1  S   UNL     1      43.792   3.228  12.121  0.00  0.00    +0.000 S 
ENDROOT
BRANCH   1   2
ATOM      2  C   UNL     1      45.228   4.064  12.750  0.00  0.00    +0.000 A 
ATOM      3  N   UNL     1      46.124   3.399  13.488  0.00  0.00    +0.000 NA
ATOM      4  C   UNL     1      47.163   4.131  13.920  0.00  0.00    +0.000 A 
ATOM      5  C   UNL     1      47.331   5.472  13.642  0.00  0.00    +0.000 A 
ATOM      6  C   UNL     1      46.360   6.090  12.880  0.00  0.00    +0.000 A 
ATOM      7  N   UNL     1      45.313   5.369  12.438  0.00  0.00    +0.000 NA
BRANCH   6   8
ATOM      8  N   UNL     1      46.364   7.457  12.635  0.00  0.00    +0.000 N 
ATOM      9  C   UNL     1      47.593   8.200  12.315  0.00  0.00    +0.000 C 
ATOM     10  C   UNL     1      47.377   9.693  12.626  0.00  0.00    +0.000 C 
ATOM     11  O   UNL     1      46.238  10.227  11.931  0.00  0.00    +0.000 OA
ATOM     12  C   UNL     1      45.051   9.502  12.295  0.00  0.00    +0.000 C 
ATOM     13  C   UNL     1      45.178   8.010  11.948  0.00  0.00    +0.000 C 
ENDBRANCH   6   8
ENDBRANCH   1   2
BRANCH   1  14
ATOM     14  C   UNL     1      43.545   4.084  10.537  0.00  0.00    +0.000 C 
BRANCH  14  18
ATOM     15  C   UNL     1      46.449   2.700   7.624  0.00  0.00    +0.000 A 
ATOM     16  C   UNL     1      45.747   1.780   8.414  0.00  0.00    +0.000 A 
ATOM     17  C   UNL     1      44.804   2.228   9.347  0.00  0.00    +0.000 A 
ATOM     18  C   UNL     1      44.544   3.599   9.504  0.00  0.00    +0.000 A 
ATOM     19  C   UNL     1      45.265   4.515   8.723  0.00  0.00    +0.000 A 
ATOM     20  C   UNL     1      46.211   4.070   7.794  0.00  0.00    +0.000 A 
BRANCH  15  22
ATOM     21  N   UNL     1      47.446   2.902   5.410  0.00  0.00    +0.000 N 
ATOM     22  C   UNL     1      47.461   2.277   6.626  0.00  0.00    +0.000 C 
ATOM     23  O   UNL     1      48.308   1.430   6.884  0.00  0.00    +0.000 OA
ATOM     24  H   UNL     1      48.214   2.682   4.787  0.00  0.00    +0.000 HD
ATOM     25  H   UNL     1      46.949   3.766   5.252  0.00  0.00    +0.000 HD
ENDBRANCH  15  22
ENDBRANCH  14  18
ENDBRANCH   1  14
TORSDOF 5
ENDMDL
MODEL 4
REMARK VINA RESULT:    -7.813      1.803      2.803
REMARK INTER + INTRA:         -10.770
REMARK INTER:                 -10.184
REMARK INTRA:                  -0.587
REMARK UNBOUND:                -0.674
REMARK  Name = 
REMARK  5 active torsions:
REMARK  status: ('A' for Active; 'I' for Inactive)
REMARK    1  A    between atoms: C_2  and  C_4
REMARK    2  A    between atoms: C_7  and  C_8
REMARK    3  A    between atoms: C_8  and  S_9
REMARK    4  A    between atoms: S_9  and  C_10
REMARK    5  A    between atoms: C_14  and  N_15
REMARK                            x       y       z     vdW  Elec       q    Type
REMARK                         _______ _______ _______ _____ _____    ______ ____
ROOT
ATOM      1  S   UNL     1      44.465   3.817  12.218  0.00  0.00    +0.000 S 
ENDROOT
BRANCH   1   2
ATOM      2  C   UNL     1      45.127   5.461  12.341  0.00  0.00    +0.000 A 
ATOM      3  N   UNL     1      44.550   6.469  11.677  0.00  0.00    +0.000 NA
ATOM      4  C   UNL     1      45.138   7.666  11.833  0.00  0.00    +0.000 A 
ATOM      5  C   UNL     1      46.255   7.880  12.614  0.00  0.00    +0.000 A 
ATOM      6  C   UNL     1      46.798   6.789  13.263  0.00  0.00    +0.000 A 
ATOM      7  N   UNL     1      46.218   5.583  13.117  0.00  0.00    +0.000 NA
BRANCH   6   8
ATOM      8  N   UNL     1      47.984   6.863  13.980  0.00  0.00    +0.000 N 
ATOM      9  C   UNL     1      48.261   6.004  15.142  0.00  0.00    +0.000 C 
ATOM     10  C   UNL     1      49.351   6.662  16.009  0.00  0.00    +0.000 C 
ATOM     11  O   UNL     1      50.543   6.937  15.257  0.00  0.00    +0.000 OA
ATOM     12  C   UNL     1      50.243   7.806  14.152  0.00  0.00    +0.000 C 
ATOM     13  C   UNL     1      49.206   7.176  13.209  0.00  0.00    +0.000 C 
ENDBRANCH   6   8
ENDBRANCH   1   2
BRANCH   1  14
ATOM     14  C   UNL     1      43.673   3.872  10.583  0.00  0.00    +0.000 C 
BRANCH  14  18
ATOM     15  C   UNL     1      46.514   2.684   7.525  0.00  0.00    +0.000 A 
ATOM     16  C   UNL     1      45.940   1.723   8.368  0.00  0.00    +0.000 A 
ATOM     17  C   UNL     1      45.016   2.107   9.348  0.00  0.00    +0.000 A 
ATOM     18  C   UNL     1      44.649   3.454   9.500  0.00  0.00    +0.000 A 
ATOM     19  C   UNL     1      45.243   4.413   8.665  0.00  0.00    +0.000 A 
ATOM     20  C   UNL     1      46.170   4.032   7.689  0.00  0.00    +0.000 A 
BRANCH  15  22
ATOM     21  N   UNL     1      47.518   3.095   5.343  0.00  0.00    +0.000 N 
ATOM     22  C   UNL     1      47.500   2.329   6.475  0.00  0.00    +0.000 C 
ATOM     23  O   UNL     1      48.300   1.413   6.623  0.00  0.00    +0.000 OA
ATOM     24  H   UNL     1      48.272   2.910   4.692  0.00  0.00    +0.000 HD
ATOM     25  H   UNL     1      47.069   3.998   5.294  0.00  0.00    +0.000 HD
ENDBRANCH  15  22
ENDBRANCH  14  18
ENDBRANCH   1  14
TORSDOF 5
ENDMDL
MODEL 5
REMARK VINA RESULT:    -7.675      1.725      2.196
REMARK INTER + INTRA:         -10.593
REMARK INTER:                  -9.930
REMARK INTRA:                  -0.662
REMARK UNBOUND:                -0.674
REMARK  Name = 
REMARK  5 active torsions:
REMARK  status: ('A' for Active; 'I' for Inactive)
REMARK    1  A    between atoms: C_2  and  C_4
REMARK    2  A    between atoms: C_7  and  C_8
REMARK    3  A    between atoms: C_8  and  S_9
REMARK    4  A    between atoms: S_9  and  C_10
REMARK    5  A    between atoms: C_14  and  N_15
REMARK                            x       y       z     vdW  Elec       q    Type
REMARK                         _______ _______ _______ _____ _____    ______ ____
ROOT
ATOM      1  S   UNL     1      44.285   3.958  12.263  0.00  0.00    +0.000 S 
ENDROOT
BRANCH   1   2
ATOM      2  C   UNL     1      45.286   5.426  12.225  0.00  0.00    +0.000 A 
ATOM      3  N   UNL     1      46.558   5.382  12.635  0.00  0.00    +0.000 NA
ATOM      4  C   UNL     1      47.218   6.550  12.574  0.00  0.00    +0.000 A 
ATOM      5  C   UNL     1      46.659   7.729  12.125  0.00  0.00    +0.000 A 
ATOM      6  C   UNL     1      45.338   7.695  11.725  0.00  0.00    +0.000 A 
ATOM      7  N   UNL     1      44.664   6.531  11.780  0.00  0.00    +0.000 NA
BRANCH   6   8
ATOM      8  N   UNL     1      44.639   8.840  11.366  0.00  0.00    +0.000 N 
ATOM      9  C   UNL     1      43.232   8.806  10.939  0.00  0.00    +0.000 C 
ATOM     10  C   UNL     1      42.920  10.076  10.123  0.00  0.00    +0.000 C 
ATOM     11  O   UNL     1      43.223  11.273  10.856  0.00  0.00    +0.000 OA
ATOM     12  C   UNL     1      44.612  11.290  11.227  0.00  0.00    +0.000 C 
ATOM     13  C   UNL     1      44.974  10.078  12.100  0.00  0.00    +0.000 C 
ENDBRANCH   6   8
ENDBRANCH   1   2
BRANCH   1  14
ATOM     14  C   UNL     1      43.568   3.971  10.593  0.00  0.00    +0.000 C 
BRANCH  14  18
ATOM     15  C   UNL     1      46.464   2.732   7.609  0.00  0.00    +0.000 A 
ATOM     16  C   UNL     1      46.143   4.087   7.761  0.00  0.00    +0.000 A 
ATOM     17  C   UNL     1      45.215   4.486   8.732  0.00  0.00    +0.000 A 
ATOM     18  C   UNL     1      44.596   3.541   9.565  0.00  0.00    +0.000 A 
ATOM     19  C   UNL     1      44.908   2.183   9.393  0.00  0.00    +0.000 A 
ATOM     20  C   UNL     1      45.831   1.782   8.421  0.00  0.00    +0.000 A 
BRANCH  15  22
ATOM     21  N   UNL     1      47.529   2.971   5.430  0.00  0.00    +0.000 N 
ATOM     22  C   UNL     1      47.436   2.258   6.594  0.00  0.00    +0.000 C 
ATOM     23  O   UNL     1      48.163   1.293   6.796  0.00  0.00    +0.000 OA
ATOM     24  H   UNL     1      48.277   2.701   4.802  0.00  0.00    +0.000 HD
ATOM     25  H   UNL     1      47.150   3.901   5.334  0.00  0.00    +0.000 HD
ENDBRANCH  15  22
ENDBRANCH  14  18
ENDBRANCH   1  14
TORSDOF 5
ENDMDL
MODEL 6
REMARK VINA RESULT:    -6.992      5.448      8.265
REMARK INTER + INTRA:          -9.709
REMARK INTER:                  -9.245
REMARK INTRA:                  -0.464
REMARK UNBOUND:                -0.674
REMARK  Name = 
REMARK  5 active torsions:
REMARK  status: ('A' for Active; 'I' for Inactive)
REMARK    1  A    between atoms: C_2  and  C_4
REMARK    2  A    between atoms: C_7  and  C_8
REMARK    3  A    between atoms: C_8  and  S_9
REMARK    4  A    between atoms: S_9  and  C_10
REMARK    5  A    between atoms: C_14  and  N_15
REMARK                            x       y       z     vdW  Elec       q    Type
REMARK                         _______ _______ _______ _____ _____    ______ ____
ROOT
ATOM      1  S   UNL     1      47.540   3.853  16.919  0.00  0.00    +0.000 S 
ENDROOT
BRANCH   1   2
ATOM      2  C   UNL     1      47.379   4.750  15.394  0.00  0.00    +0.000 A 
ATOM      3  N   UNL     1      48.232   5.738  15.102  0.00  0.00    +0.000 NA
ATOM      4  C   UNL     1      48.012   6.355  13.930  0.00  0.00    +0.000 A 
ATOM      5  C   UNL     1      46.992   6.021  13.063  0.00  0.00    +0.000 A 
ATOM      6  C   UNL     1      46.148   4.996  13.437  0.00  0.00    +0.000 A 
ATOM      7  N   UNL     1      46.357   4.366  14.608  0.00  0.00    +0.000 NA
BRANCH   6   8
ATOM      8  N   UNL     1      45.022   4.652  12.701  0.00  0.00    +0.000 N 
ATOM      9  C   UNL     1      44.330   5.607  11.821  0.00  0.00    +0.000 C 
ATOM     10  C   UNL     1      42.885   5.124  11.588  0.00  0.00    +0.000 C 
ATOM     11  O   UNL     1      42.844   3.789  11.059  0.00  0.00    +0.000 OA
ATOM     12  C   UNL     1      43.496   2.878  11.959  0.00  0.00    +0.000 C 
ATOM     13  C   UNL     1      44.966   3.268  12.183  0.00  0.00    +0.000 C 
ENDBRANCH   6   8
ENDBRANCH   1   2
BRANCH   1  14
ATOM     14  C   UNL     1      49.020   4.627  17.634  0.00  0.00    +0.000 C 
BRANCH  14  18
ATOM     15  C   UNL     1      52.327   1.818  17.707  0.00  0.00    +0.000 A 
ATOM     16  C   UNL     1      52.523   3.150  18.095  0.00  0.00    +0.000 A 
ATOM     17  C   UNL     1      51.452   4.053  18.080  0.00  0.00    +0.000 A 
ATOM     18  C   UNL     1      50.171   3.640  17.681  0.00  0.00    +0.000 A 
ATOM     19  C   UNL     1      49.987   2.310  17.274  0.00  0.00    +0.000 A 
ATOM     20  C   UNL     1      51.057   1.407  17.284  0.00  0.00    +0.000 A 
BRANCH  15  22
ATOM     21  N   UNL     1      53.187  -0.388  18.286  0.00  0.00    +0.000 N 
ATOM     22  C   UNL     1      53.429   0.825  17.702  0.00  0.00    +0.000 C 
ATOM     23  O   UNL     1      54.504   1.055  17.160  0.00  0.00    +0.000 OA
ATOM     24  H   UNL     1      53.909  -1.090  18.170  0.00  0.00    +0.000 HD
ATOM     25  H   UNL     1      52.255  -0.707  18.504  0.00  0.00    +0.000 HD
ENDBRANCH  15  22
ENDBRANCH  14  18
ENDBRANCH   1  14
TORSDOF 5
ENDMDL
MODEL 7
REMARK VINA RESULT:    -6.333      4.049      5.774
REMARK INTER + INTRA:          -8.858
REMARK INTER:                  -8.194
REMARK INTRA:                  -0.664
REMARK UNBOUND:                -0.674
REMARK  Name = 
REMARK  5 active torsions:
REMARK  status: ('A' for Active; 'I' for Inactive)
REMARK    1  A    between atoms: C_2  and  C_4
REMARK    2  A    between atoms: C_7  and  C_8
REMARK    3  A    between atoms: C_8  and  S_9
REMARK    4  A    between atoms: S_9  and  C_10
REMARK    5  A    between atoms: C_14  and  N_15
REMARK                            x       y       z     vdW  Elec       q    Type
REMARK                         _______ _______ _______ _____ _____    ______ ____
ROOT
ATOM      1  S   UNL     1      48.665   7.579  12.303  0.00  0.00    +0.000 S 
ENDROOT
BRANCH   1   2
ATOM      2  C   UNL     1      49.483   7.377  13.867  0.00  0.00    +0.000 A 
ATOM      3  N   UNL     1      50.597   8.067  14.136  0.00  0.00    +0.000 NA
ATOM      4  C   UNL     1      51.138   7.829  15.342  0.00  0.00    +0.000 A 
ATOM      5  C   UNL     1      50.612   6.947  16.263  0.00  0.00    +0.000 A 
ATOM      6  C   UNL     1      49.464   6.266  15.909  0.00  0.00    +0.000 A 
ATOM      7  N   UNL     1      48.909   6.495  14.704  0.00  0.00    +0.000 NA
BRANCH   6   8
ATOM      8  N   UNL     1      48.913   5.272  16.705  0.00  0.00    +0.000 N 
ATOM      9  C   UNL     1      47.869   4.356  16.218  0.00  0.00    +0.000 C 
ATOM     10  C   UNL     1      47.110   3.767  17.423  0.00  0.00    +0.000 C 
ATOM     11  O   UNL     1      47.995   3.117  18.349  0.00  0.00    +0.000 OA
ATOM     12  C   UNL     1      48.979   4.048  18.832  0.00  0.00    +0.000 C 
ATOM     13  C   UNL     1      49.817   4.625  17.680  0.00  0.00    +0.000 C 
ENDBRANCH   6   8
ENDBRANCH   1   2
BRANCH   1  14
ATOM     14  C   UNL     1      46.920   7.596  12.813  0.00  0.00    +0.000 C 
BRANCH  14  18
ATOM     15  C   UNL     1      44.796   4.118  11.323  0.00  0.00    +0.000 A 
ATOM     16  C   UNL     1      45.213   5.122  10.440  0.00  0.00    +0.000 A 
ATOM     17  C   UNL     1      45.907   6.239  10.922  0.00  0.00    +0.000 A 
ATOM     18  C   UNL     1      46.197   6.370  12.289  0.00  0.00    +0.000 A 
ATOM     19  C   UNL     1      45.757   5.370  13.170  0.00  0.00    +0.000 A 
ATOM     20  C   UNL     1      45.060   4.256  12.692  0.00  0.00    +0.000 A 
BRANCH  15  22
ATOM     21  N   UNL     1      44.608   2.185   9.851  0.00  0.00    +0.000 N 
ATOM     22  C   UNL     1      44.054   2.918  10.864  0.00  0.00    +0.000 C 
ATOM     23  O   UNL     1      43.007   2.564  11.391  0.00  0.00    +0.000 OA
ATOM     24  H   UNL     1      44.148   1.309   9.631  0.00  0.00    +0.000 HD
ATOM     25  H   UNL     1      45.573   2.287   9.574  0.00  0.00    +0.000 HD
ENDBRANCH  15  22
ENDBRANCH  14  18
ENDBRANCH   1  14
TORSDOF 5
ENDMDL
MODEL 8
REMARK VINA RESULT:    -5.682      5.368      7.109
REMARK INTER + INTRA:          -8.017
REMARK INTER:                  -7.603
REMARK INTRA:                  -0.413
REMARK UNBOUND:                -0.674
REMARK  Name = 
REMARK  5 active torsions:
REMARK  status: ('A' for Active; 'I' for Inactive)
REMARK    1  A    between atoms: C_2  and  C_4
REMARK    2  A    between atoms: C_7  and  C_8
REMARK    3  A    between atoms: C_8  and  S_9
REMARK    4  A    between atoms: S_9  and  C_10
REMARK    5  A    between atoms: C_14  and  N_15
REMARK                            x       y       z     vdW  Elec       q    Type
REMARK                         _______ _______ _______ _____ _____    ______ ____
ROOT
ATOM      1  S   UNL     1      47.226   4.114  15.801  0.00  0.00    +0.000 S 
ENDROOT
BRANCH   1   2
ATOM      2  C   UNL     1      48.627   4.588  16.786  0.00  0.00    +0.000 A 
ATOM      3  N   UNL     1      48.735   5.842  17.239  0.00  0.00    +0.000 NA
ATOM      4  C   UNL     1      49.837   6.094  17.964  0.00  0.00    +0.000 A 
ATOM      5  C   UNL     1      50.807   5.153  18.244  0.00  0.00    +0.000 A 
ATOM      6  C   UNL     1      50.628   3.883  17.735  0.00  0.00    +0.000 A 
ATOM      7  N   UNL     1      49.527   3.615  17.008  0.00  0.00    +0.000 NA
BRANCH   6   8
ATOM      8  N   UNL     1      51.591   2.890  17.854  0.00  0.00    +0.000 N 
ATOM      9  C   UNL     1      51.456   1.575  17.208  0.00  0.00    +0.000 C 
ATOM     10  C   UNL     1      52.358   0.559  17.935  0.00  0.00    +0.000 C 
ATOM     11  O   UNL     1      53.728   0.991  17.976  0.00  0.00    +0.000 OA
ATOM     12  C   UNL     1      53.828   2.260  18.645  0.00  0.00    +0.000 C 
ATOM     13  C   UNL     1      52.998   3.337  17.928  0.00  0.00    +0.000 C 
ENDBRANCH   6   8
ENDBRANCH   1   2
BRANCH   1  14
ATOM     14  C   UNL     1      47.251   5.389  14.506  0.00  0.00    +0.000 C 
BRANCH  14  18
ATOM     15  C   UNL     1      45.106   4.046  10.982  0.00  0.00    +0.000 A 
ATOM     16  C   UNL     1      45.262   3.192  12.082  0.00  0.00    +0.000 A 
ATOM     17  C   UNL     1      45.947   3.631  13.222  0.00  0.00    +0.000 A 
ATOM     18  C   UNL     1      46.482   4.927  13.283  0.00  0.00    +0.000 A 
ATOM     19  C   UNL     1      46.340   5.770  12.170  0.00  0.00    +0.000 A 
ATOM     20  C   UNL     1      45.660   5.331  11.028  0.00  0.00    +0.000 A 
BRANCH  15  22
ATOM     21  N   UNL     1      43.931   4.614   8.923  0.00  0.00    +0.000 N 
ATOM     22  C   UNL     1      44.394   3.628   9.750  0.00  0.00    +0.000 C 
ATOM     23  O   UNL     1      44.256   2.447   9.452  0.00  0.00    +0.000 OA
ATOM     24  H   UNL     1      43.552   4.309   8.034  0.00  0.00    +0.000 HD
ATOM     25  H   UNL     1      44.246   5.571   8.994  0.00  0.00    +0.000 HD
ENDBRANCH  15  22
ENDBRANCH  14  18
ENDBRANCH   1  14
TORSDOF 5
ENDMDL
