MODEL 1
REMARK VINA RESULT:    -8.349      0.000      0.000
REMARK INTER + INTRA:         -10.184
REMARK INTER:                  -9.813
REMARK INTRA:                  -0.371
REMARK UNBOUND:                -0.371
REMARK  Name = 
REMARK  3 active torsions:
REMARK  status: ('A' for Active; 'I' for Inactive)
REMARK    1  A    between atoms: C_2  and  C_4
REMARK    2  A    between atoms: N_8  and  C_9
REMARK    3  A    between atoms: C_9  and  C_10
REMARK                            x       y       z     vdW  Elec       q    Type
REMARK                         _______ _______ _______ _____ _____    ______ ____
ROOT
ATOM      1  C   UNL     1      46.417   2.309   7.732  0.00  0.00    +0.000 A 
ATOM      2  C   UNL     1      45.557   1.817   8.708  0.00  0.00    +0.000 A 
ATOM      3  C   UNL     1      44.703   2.701   9.366  0.00  0.00    +0.000 A 
ATOM      4  C   UNL     1      44.737   4.057   9.057  0.00  0.00    +0.000 A 
ATOM      5  N   UNL     1      43.865   4.976   9.594  0.00  0.00    +0.000 N 
ATOM      6  N   UNL     1      45.584   4.546   8.131  0.00  0.00    +0.000 NA
ATOM      7  C   UNL     1      46.408   3.674   7.494  0.00  0.00    +0.000 A 
ATOM      8  H   UNL     1      44.123   5.906   9.277  0.00  0.00    +0.000 HD
ENDROOT
BRANCH   1  10
ATOM      9  N   UNL     1      48.464   2.018   6.464  0.00  0.00    +0.000 N 
ATOM     10  C   UNL     1      47.323   1.444   6.952  0.00  0.00    +0.000 C 
ATOM     11  O   UNL     1      47.084   0.257   6.780  0.00  0.00    +0.000 OA
ATOM     12  H   UNL     1      49.132   1.391   6.031  0.00  0.00    +0.000 HD
ATOM     13  H   UNL     1      48.815   2.903   6.803  0.00  0.00    +0.000 HD
ENDBRANCH   1  10
BRANCH   5  14
ATOM     14  C   UNL     1      43.394   4.884  10.961  0.00  0.00    +0.000 C 
BRANCH  14  15
ATOM     15  C   UNL     1      44.531   5.033  11.938  0.00  0.00    +0.000 A 
ATOM     16  C   UNL     1      45.364   6.157  11.898  0.00  0.00    +0.000 A 
ATOM     17  C   UNL     1      46.441   6.255  12.776  0.00  0.00    +0.000 A 
ATOM     18  C   UNL     1      46.663   5.217  13.663  0.00  0.00    +0.000 A 
ATOM     19  N   UNL     1      45.896   4.110  13.724  0.00  0.00    +0.000 NA
ATOM     20  C   UNL     1      44.852   4.046  12.866  0.00  0.00    +0.000 A 
ENDBRANCH  14  15
ENDBRANCH   5  14
TORSDOF 3
ENDMDL
MODEL 2
REMARK VINA RESULT:    -7.472      2.785      6.048
REMARK INTER + INTRA:          -9.154
REMARK INTER:                  -8.747
REMARK INTRA:                  -0.406
REMARK UNBOUND:                -0.371
REMARK  Name = 
REMARK  3 active torsions:
REMARK  status: ('A' for Active; 'I' for Inactive)
REMARK    1  A    between atoms: C_2  and  C_4
REMARK    2  A    between atoms: N_8  and  C_9
REMARK    3  A    between atoms: C_9  and  C_10
REMARK                            x       y       z     vdW  Elec       q    Type
REMARK                         _______ _______ _______ _____ _____    ______ ____
ROOT
ATOM      1  C   UNL     1      46.677   5.579  12.910  0.00  0.00    +0.000 A 
ATOM      2  C   UNL     1      46.500   6.253  11.706  0.00  0.00    +0.000 A 
ATOM      3  C   UNL     1      45.697   5.681  10.721  0.00  0.00    +0.000 A 
ATOM      4  C   UNL     1      45.106   4.441  10.943  0.00  0.00    +0.000 A 
ATOM      5  N   UNL     1      44.228   3.854  10.060  0.00  0.00    +0.000 N 
ATOM      6  N   UNL     1      45.291   3.769  12.095  0.00  0.00    +0.000 NA
ATOM      7  C   UNL     1      46.072   4.340  13.049  0.00  0.00    +0.000 A 
ATOM      8  H   UNL     1      43.982   2.929  10.400  0.00  0.00    +0.000 HD
ENDROOT
BRANCH   1  10
ATOM      9  N   UNL     1      47.616   7.486  14.078  0.00  0.00    +0.000 N 
ATOM     10  C   UNL     1      47.471   6.127  14.026  0.00  0.00    +0.000 C 
ATOM     11  O   UNL     1      47.949   5.402  14.888  0.00  0.00    +0.000 OA
ATOM     12  H   UNL     1      48.064   7.858  14.907  0.00  0.00    +0.000 HD
ATOM     13  H   UNL     1      47.029   8.116  13.549  0.00  0.00    +0.000 HD
ENDBRANCH   1  10
BRANCH   5  14
ATOM     14  C   UNL     1      44.381   3.978   8.625  0.00  0.00    +0.000 C 
BRANCH  14  15
ATOM     15  C   UNL     1      45.451   3.052   8.110  0.00  0.00    +0.000 A 
ATOM     16  C   UNL     1      46.316   3.459   7.088  0.00  0.00    +0.000 A 
ATOM     17  C   UNL     1      47.268   2.573   6.590  0.00  0.00    +0.000 A 
ATOM     18  C   UNL     1      47.319   1.295   7.119  0.00  0.00    +0.000 A 
ATOM     19  N   UNL     1      46.494   0.856   8.091  0.00  0.00    +0.000 NA
ATOM     20  C   UNL     1      45.586   1.742   8.563  0.00  0.00    +0.000 A 
ENDBRANCH  14  15
ENDBRANCH   5  14
TORSDOF 3
ENDMDL
MODEL 3
REMARK VINA RESULT:    -7.223      1.392      1.756
REMARK INTER + INTRA:          -8.861
REMARK INTER:                  -8.529
REMARK INTRA:                  -0.331
REMARK UNBOUND:                -0.371
REMARK  Name = 
REMARK  3 active torsions:
REMARK  status: ('A' for Active; 'I' for Inactive)
REMARK    1  A    between atoms: C_2  and  C_4
REMARK    2  A    between atoms: N_8  and  C_9
REMARK    3  A    between atoms: C_9  and  C_10
REMARK                            x       y       z     vdW  Elec       q    Type
REMARK                         _______ _______ _______ _____ _____    ______ ____
ROOT
ATOM      1  C   UNL     1      46.527   2.304   7.575  0.00  0.00    +0.000 A 
ATOM      2  C   UNL     1      45.815   1.910   8.702  0.00  0.00    +0.000 A 
ATOM      3  C   UNL     1      45.122   2.871   9.436  0.00  0.00    +0.000 A 
ATOM      4  C   UNL     1      45.172   4.207   9.049  0.00  0.00    +0.000 A 
ATOM      5  N   UNL     1      44.444   5.199   9.664  0.00  0.00    +0.000 N 
ATOM      6  N   UNL     1      45.880   4.602   7.973  0.00  0.00    +0.000 NA
ATOM      7  C   UNL     1      46.546   3.654   7.264  0.00  0.00    +0.000 A 
ATOM      8  H   UNL     1      44.692   6.097   9.257  0.00  0.00    +0.000 HD
ENDROOT
BRANCH   1  10
ATOM      9  N   UNL     1      48.229   1.863   5.903  0.00  0.00    +0.000 N 
ATOM     10  C   UNL     1      47.252   1.351   6.712  0.00  0.00    +0.000 C 
ATOM     11  O   UNL     1      47.016   0.151   6.744  0.00  0.00    +0.000 OA
ATOM     12  H   UNL     1      48.795   1.190   5.402  0.00  0.00    +0.000 HD
ATOM     13  H   UNL     1      48.621   2.784   6.041  0.00  0.00    +0.000 HD
ENDBRANCH   1  10
BRANCH   5  14
ATOM     14  C   UNL     1      44.197   5.202  11.091  0.00  0.00    +0.000 C 
BRANCH  14  15
ATOM     15  C   UNL     1      45.003   6.272  11.780  0.00  0.00    +0.000 A 
ATOM     16  C   UNL     1      46.068   5.933  12.623  0.00  0.00    +0.000 A 
ATOM     17  C   UNL     1      46.771   6.932  13.291  0.00  0.00    +0.000 A 
ATOM     18  C   UNL     1      46.379   8.247  13.108  0.00  0.00    +0.000 A 
ATOM     19  N   UNL     1      45.350   8.616  12.320  0.00  0.00    +0.000 NA
ATOM     20  C   UNL     1      44.691   7.625  11.676  0.00  0.00    +0.000 A 
ENDBRANCH  14  15
ENDBRANCH   5  14
TORSDOF 3
ENDMDL
MODEL 4
REMARK VINA RESULT:    -7.135      1.590      1.948
REMARK INTER + INTRA:          -8.757
REMARK INTER:                  -8.485
REMARK INTRA:                  -0.272
REMARK UNBOUND:                -0.371
REMARK  Name = 
REMARK  3 active torsions:
REMARK  status: ('A' for Active; 'I' for Inactive)
REMARK    1  A    between atoms: C_2  and  C_4
REMARK    2  A    between atoms: N_8  and  C_9
REMARK    3  A    between atoms: C_9  and  C_10
REMARK                            x       y       z     vdW  Elec       q    Type
REMARK                         _______ _______ _______ _____ _____    ______ ____
ROOT
ATOM      1  C   UNL     1      46.666   2.514   7.195  0.00  0.00    +0.000 A 
ATOM      2  C   UNL     1      46.265   3.757   7.673  0.00  0.00    +0.000 A 
ATOM      3  C   UNL     1      45.493   3.820   8.832  0.00  0.00    +0.000 A 
ATOM      4  C   UNL     1      45.116   2.647   9.477  0.00  0.00    +0.000 A 
ATOM      5  N   UNL     1      44.435   2.628  10.673  0.00  0.00    +0.000 N 
ATOM      6  N   UNL     1      45.478   1.438   9.008  0.00  0.00    +0.000 NA
ATOM      7  C   UNL     1      46.234   1.390   7.881  0.00  0.00    +0.000 A 
ATOM      8  H   UNL     1      44.211   1.667  10.915  0.00  0.00    +0.000 HD
ENDROOT
BRANCH   1  10
ATOM      9  N   UNL     1      47.378   3.274   5.004  0.00  0.00    +0.000 N 
ATOM     10  C   UNL     1      47.521   2.352   6.003  0.00  0.00    +0.000 C 
ATOM     11  O   UNL     1      48.349   1.454   5.927  0.00  0.00    +0.000 OA
ATOM     12  H   UNL     1      48.046   3.221   4.245  0.00  0.00    +0.000 HD
ATOM     13  H   UNL     1      46.907   4.158   5.143  0.00  0.00    +0.000 HD
ENDBRANCH   1  10
BRANCH   5  14
ATOM     14  C   UNL     1      43.423   3.612  10.998  0.00  0.00    +0.000 C 
BRANCH  14  15
ATOM     15  C   UNL     1      44.035   4.830  11.641  0.00  0.00    +0.000 A 
ATOM     16  C   UNL     1      43.781   6.109  11.133  0.00  0.00    +0.000 A 
ATOM     17  C   UNL     1      44.395   7.219  11.708  0.00  0.00    +0.000 A 
ATOM     18  C   UNL     1      45.260   7.017  12.769  0.00  0.00    +0.000 A 
ATOM     19  N   UNL     1      45.546   5.802  13.278  0.00  0.00    +0.000 NA
ATOM     20  C   UNL     1      44.928   4.742  12.706  0.00  0.00    +0.000 A 
ENDBRANCH  14  15
ENDBRANCH   5  14
TORSDOF 3
ENDMDL
MODEL 5
REMARK VINA RESULT:    -6.919      3.220      6.423
REMARK INTER + INTRA:          -8.503
REMARK INTER:                  -8.172
REMARK INTRA:                  -0.331
REMARK UNBOUND:                -0.371
REMARK  Name = 
REMARK  3 active torsions:
REMARK  status: ('A' for Active; 'I' for Inactive)
REMARK    1  A    between atoms: C_2  and  C_4
REMARK    2  A    between atoms: N_8  and  C_9
REMARK    3  A    between atoms: C_9  and  C_10
REMARK                            x       y       z     vdW  Elec       q    Type
REMARK                         _______ _______ _______ _____ _____    ______ ____
ROOT
ATOM      1  C   UNL     1      45.392   7.402  12.378  0.00  0.00    +0.000 A 
ATOM      2  C   UNL     1      44.271   7.108  11.609  0.00  0.00    +0.000 A 
ATOM      3  C   UNL     1      44.054   5.792  11.204  0.00  0.00    +0.000 A 
ATOM      4  C   UNL     1      44.967   4.801  11.550  0.00  0.00    +0.000 A 
ATOM      5  N   UNL     1      44.777   3.467  11.269  0.00  0.00    +0.000 N 
ATOM      6  N   UNL     1      46.068   5.080  12.273  0.00  0.00    +0.000 NA
ATOM      7  C   UNL     1      46.266   6.366  12.666  0.00  0.00    +0.000 A 
ATOM      8  H   UNL     1      45.601   2.945  11.555  0.00  0.00    +0.000 HD
ENDROOT
BRANCH   1  10
ATOM      9  N   UNL     1      46.563   8.854  13.929  0.00  0.00    +0.000 N 
ATOM     10  C   UNL     1      45.679   8.756  12.889  0.00  0.00    +0.000 C 
ATOM     11  O   UNL     1      45.179   9.751  12.384  0.00  0.00    +0.000 OA
ATOM     12  H   UNL     1      46.840   9.790  14.196  0.00  0.00    +0.000 HD
ATOM     13  H   UNL     1      47.181   8.097  14.189  0.00  0.00    +0.000 HD
ENDBRANCH   1  10
BRANCH   5  14
ATOM     14  C   UNL     1      44.141   3.021  10.047  0.00  0.00    +0.000 C 
BRANCH  14  15
ATOM     15  C   UNL     1      45.138   2.915   8.922  0.00  0.00    +0.000 A 
ATOM     16  C   UNL     1      45.774   1.700   8.644  0.00  0.00    +0.000 A 
ATOM     17  C   UNL     1      46.730   1.632   7.634  0.00  0.00    +0.000 A 
ATOM     18  C   UNL     1      47.035   2.788   6.937  0.00  0.00    +0.000 A 
ATOM     19  N   UNL     1      46.460   3.982   7.183  0.00  0.00    +0.000 NA
ATOM     20  C   UNL     1      45.527   4.016   8.163  0.00  0.00    +0.000 A 
ENDBRANCH  14  15
ENDBRANCH   5  14
TORSDOF 3
ENDMDL
MODEL 6
REMARK VINA RESULT:    -6.669      2.879      6.091
REMARK INTER + INTRA:          -8.210
REMARK INTER:                  -8.050
REMARK INTRA:                  -0.160
REMARK UNBOUND:                -0.371
REMARK  Name = 
REMARK  3 active torsions:
REMARK  status: ('A' for Active; 'I' for Inactive)
REMARK    1  A    between atoms: C_2  and  C_4
REMARK    2  A    between atoms: N_8  and  C_9
REMARK    3  A    between atoms: C_9  and  C_10
REMARK                            x       y       z     vdW  Elec       q    Type
REMARK                         _______ _______ _______ _____ _____    ______ ____
ROOT
ATOM      1  C   UNL     1      46.474   4.690  13.968  0.00  0.00    +0.000 A 
ATOM      2  C   UNL     1      46.420   3.564  13.154  0.00  0.00    +0.000 A 
ATOM      3  C   UNL     1      45.916   3.688  11.860  0.00  0.00    +0.000 A 
ATOM      4  C   UNL     1      45.454   4.922  11.412  0.00  0.00    +0.000 A 
ATOM      5  N   UNL     1      45.029   5.146  10.122  0.00  0.00    +0.000 N 
ATOM      6  N   UNL     1      45.480   6.012  12.202  0.00  0.00    +0.000 NA
ATOM      7  C   UNL     1      45.978   5.879  13.459  0.00  0.00    +0.000 A 
ATOM      8  H   UNL     1      44.677   6.096  10.047  0.00  0.00    +0.000 HD
ENDROOT
BRANCH   1  10
ATOM      9  N   UNL     1      47.837   5.709  15.697  0.00  0.00    +0.000 N 
ATOM     10  C   UNL     1      47.033   4.664  15.334  0.00  0.00    +0.000 C 
ATOM     11  O   UNL     1      46.761   3.767  16.120  0.00  0.00    +0.000 OA
ATOM     12  H   UNL     1      48.121   5.740  16.668  0.00  0.00    +0.000 HD
ATOM     13  H   UNL     1      47.868   6.576  15.179  0.00  0.00    +0.000 HD
ENDBRANCH   1  10
BRANCH   5  14
ATOM     14  C   UNL     1      44.307   4.145   9.364  0.00  0.00    +0.000 C 
BRANCH  14  15
ATOM     15  C   UNL     1      45.255   3.241   8.619  0.00  0.00    +0.000 A 
ATOM     16  C   UNL     1      46.012   3.728   7.548  0.00  0.00    +0.000 A 
ATOM     17  C   UNL     1      46.846   2.868   6.837  0.00  0.00    +0.000 A 
ATOM     18  C   UNL     1      46.888   1.536   7.211  0.00  0.00    +0.000 A 
ATOM     19  N   UNL     1      46.163   1.021   8.224  0.00  0.00    +0.000 NA
ATOM     20  C   UNL     1      45.370   1.882   8.902  0.00  0.00    +0.000 A 
ENDBRANCH  14  15
ENDBRANCH   5  14
TORSDOF 3
ENDMDL
MODEL 7
REMARK VINA RESULT:    -5.857      3.492      6.628
REMARK INTER + INTRA:          -7.256
REMARK INTER:                  -6.932
REMARK INTRA:                  -0.324
REMARK UNBOUND:                -0.371
REMARK  Name = 
REMARK  3 active torsions:
REMARK  status: ('A' for Active; 'I' for Inactive)
REMARK    1  A    between atoms: C_2  and  C_4
REMARK    2  A    between atoms: N_8  and  C_9
REMARK    3  A    between atoms: C_9  and  C_10
REMARK                            x       y       z     vdW  Elec       q    Type
REMARK                         _______ _______ _______ _____ _____    ______ ____
ROOT
ATOM      1  C   UNL     1      47.774   5.435  15.223  0.00  0.00    +0.000 A 
ATOM      2  C   UNL     1      46.759   4.637  14.706  0.00  0.00    +0.000 A 
ATOM      3  C   UNL     1      46.277   4.900  13.425  0.00  0.00    +0.000 A 
ATOM      4  C   UNL     1      46.796   5.965  12.695  0.00  0.00    +0.000 A 
ATOM      5  N   UNL     1      46.439   6.233  11.393  0.00  0.00    +0.000 N 
ATOM      6  N   UNL     1      47.761   6.759  13.197  0.00  0.00    +0.000 NA
ATOM      7  C   UNL     1      48.225   6.489  14.445  0.00  0.00    +0.000 A 
ATOM      8  H   UNL     1      46.892   7.092  11.093  0.00  0.00    +0.000 HD
ENDROOT
BRANCH   1  10
ATOM      9  N   UNL     1      47.552   5.307  17.636  0.00  0.00    +0.000 N 
ATOM     10  C   UNL     1      48.377   5.204  16.550  0.00  0.00    +0.000 C 
ATOM     11  O   UNL     1      49.555   4.898  16.673  0.00  0.00    +0.000 OA
ATOM     12  H   UNL     1      47.948   5.035  18.527  0.00  0.00    +0.000 HD
ATOM     13  H   UNL     1      46.545   5.296  17.555  0.00  0.00    +0.000 HD
ENDBRANCH   1  10
BRANCH   5  14
ATOM     14  C   UNL     1      45.091   6.028  10.906  0.00  0.00    +0.000 C 
BRANCH  14  15
ATOM     15  C   UNL     1      44.987   4.748  10.118  0.00  0.00    +0.000 A 
ATOM     16  C   UNL     1      45.597   4.630   8.864  0.00  0.00    +0.000 A 
ATOM     17  C   UNL     1      45.450   3.458   8.126  0.00  0.00    +0.000 A 
ATOM     18  C   UNL     1      44.682   2.438   8.659  0.00  0.00    +0.000 A 
ATOM     19  N   UNL     1      44.063   2.515   9.854  0.00  0.00    +0.000 NA
ATOM     20  C   UNL     1      44.232   3.661  10.553  0.00  0.00    +0.000 A 
ENDBRANCH  14  15
ENDBRANCH   5  14
TORSDOF 3
ENDMDL
MODEL 8
REMARK VINA RESULT:    -5.580      3.663      5.412
REMARK INTER + INTRA:          -6.930
REMARK INTER:                  -6.595
REMARK INTRA:                  -0.336
REMARK UNBOUND:                -0.371
REMARK  Name = 
REMARK  3 active torsions:
REMARK  status: ('A' for Active; 'I' for Inactive)
REMARK    1  A    between atoms: C_2  and  C_4
REMARK    2  A    between atoms: N_8  and  C_9
REMARK    3  A    between atoms: C_9  and  C_10
REMARK                            x       y       z     vdW  Elec       q    Type
REMARK                         _______ _______ _______ _____ _____    ______ ____
ROOT
ATOM      1  C   UNL     1      44.584   4.104  11.465  0.00  0.00    +0.000 A 
ATOM      2  C   UNL     1      45.094   5.100  10.639  0.00  0.00    +0.000 A 
ATOM      3  C   UNL     1      45.702   6.214  11.216  0.00  0.00    +0.000 A 
ATOM      4  C   UNL     1      45.768   6.326  12.601  0.00  0.00    +0.000 A 
ATOM      5  N   UNL     1      46.430   7.346  13.245  0.00  0.00    +0.000 N 
ATOM      6  N   UNL     1      45.255   5.379  13.410  0.00  0.00    +0.000 NA
ATOM      7  C   UNL     1      44.670   4.296  12.835  0.00  0.00    +0.000 A 
ATOM      8  H   UNL     1      46.287   7.258  14.247  0.00  0.00    +0.000 HD
ENDROOT
BRANCH   1  10
ATOM      9  N   UNL     1      44.594   2.252   9.899  0.00  0.00    +0.000 N 
ATOM     10  C   UNL     1      43.966   2.869  10.945  0.00  0.00    +0.000 C 
ATOM     11  O   UNL     1      42.955   2.398  11.448  0.00  0.00    +0.000 OA
ATOM     12  H   UNL     1      44.228   1.348   9.625  0.00  0.00    +0.000 HD
ATOM     13  H   UNL     1      45.549   2.460   9.639  0.00  0.00    +0.000 HD
ENDBRANCH   1  10
BRANCH   5  14
ATOM     14  C   UNL     1      46.450   8.699  12.728  0.00  0.00    +0.000 C 
BRANCH  14  15
ATOM     15  C   UNL     1      47.804   9.047  12.167  0.00  0.00    +0.000 A 
ATOM     16  C   UNL     1      48.830   8.096  12.139  0.00  0.00    +0.000 A 
ATOM     17  C   UNL     1      50.091   8.448  11.663  0.00  0.00    +0.000 A 
ATOM     18  C   UNL     1      50.294   9.750  11.239  0.00  0.00    +0.000 A 
ATOM     19  N   UNL     1      49.340  10.701  11.265  0.00  0.00    +0.000 NA
ATOM     20  C   UNL     1      48.122  10.328  11.723  0.00  0.00    +0.000 A 
ENDBRANCH  14  15
ENDBRANCH   5  14
TORSDOF 3
ENDMDL
MODEL 9
REMARK VINA RESULT:    -5.506      4.818      8.416
REMARK INTER + INTRA:          -6.843
REMARK INTER:                  -6.615
REMARK INTRA:                  -0.227
REMARK UNBOUND:                -0.371
REMARK  Name = 
REMARK  3 active torsions:
REMARK  status: ('A' for Active; 'I' for Inactive)
REMARK    1  A    between atoms: C_2  and  C_4
REMARK    2  A    between atoms: N_8  and  C_9
REMARK    3  A    between atoms: C_9  and  C_10
REMARK                            x       y       z     vdW  Elec       q    Type
REMARK                         _______ _______ _______ _____ _____    ______ ____
ROOT
ATOM      1  C   UNL     1      48.657   4.410  18.203  0.00  0.00    +0.000 A 
ATOM      2  C   UNL     1      48.729   5.460  17.293  0.00  0.00    +0.000 A 
ATOM      3  C   UNL     1      48.014   5.372  16.100  0.00  0.00    +0.000 A 
ATOM      4  C   UNL     1      47.263   4.234  15.825  0.00  0.00    +0.000 A 
ATOM      5  N   UNL     1      46.458   4.110  14.715  0.00  0.00    +0.000 N 
ATOM      6  N   UNL     1      47.207   3.202  16.688  0.00  0.00    +0.000 NA
ATOM      7  C   UNL     1      47.904   3.302  17.850  0.00  0.00    +0.000 A 
ATOM      8  H   UNL     1      46.064   3.173  14.691  0.00  0.00    +0.000 HD
ENDROOT
BRANCH   1  10
ATOM      9  N   UNL     1      48.649   3.952  20.585  0.00  0.00    +0.000 N 
ATOM     10  C   UNL     1      49.342   4.434  19.510  0.00  0.00    +0.000 C 
ATOM     11  O   UNL     1      50.493   4.834  19.622  0.00  0.00    +0.000 OA
ATOM     12  H   UNL     1      49.167   3.867  21.451  0.00  0.00    +0.000 HD
ATOM     13  H   UNL     1      47.819   3.383  20.486  0.00  0.00    +0.000 HD
ENDBRANCH   1  10
BRANCH   5  14
ATOM     14  C   UNL     1      46.824   4.672  13.432  0.00  0.00    +0.000 C 
BRANCH  14  15
ATOM     15  C   UNL     1      45.663   4.635  12.472  0.00  0.00    +0.000 A 
ATOM     16  C   UNL     1      45.131   3.415  12.043  0.00  0.00    +0.000 A 
ATOM     17  C   UNL     1      44.090   3.398  11.117  0.00  0.00    +0.000 A 
ATOM     18  C   UNL     1      43.620   4.606  10.634  0.00  0.00    +0.000 A 
ATOM     19  N   UNL     1      44.115   5.803  11.007  0.00  0.00    +0.000 NA
ATOM     20  C   UNL     1      45.118   5.790  11.915  0.00  0.00    +0.000 A 
ENDBRANCH  14  15
ENDBRANCH   5  14
TORSDOF 3
ENDMDL
