MODEL 1
REMARK VINA RESULT:    -8.842      0.000      0.000
REMARK INTER + INTRA:         -11.627
REMARK INTER:                 -10.909
REMARK INTRA:                  -0.717
REMARK UNBOUND:                -0.717
REMARK  Name = 
REMARK  4 active torsions:
REMARK  status: ('A' for Active; 'I' for Inactive)
REMARK    1  A    between atoms: C_2  and  C_4
REMARK    2  A    between atoms: N_8  and  C_9
REMARK    3  A    between atoms: C_9  and  C_10
REMARK    4  A    between atoms: C_14  and  C_15
REMARK                            x       y       z     vdW  Elec       q    Type
REMARK                         _______ _______ _______ _____ _____    ______ ____
ROOT
ATOM      1  C   UNL     1      43.460   3.718  11.153  0.00  0.00    +0.000 C 
ENDROOT
BRANCH   1   6
ATOM      2  C   UNL     1      46.589   2.511   7.216  0.00  0.00    +0.000 A 
ATOM      3  C   UNL     1      45.985   3.720   7.545  0.00  0.00    +0.000 A 
ATOM      4  C   UNL     1      45.160   3.783   8.669  0.00  0.00    +0.000 A 
ATOM      5  C   UNL     1      44.947   2.644   9.438  0.00  0.00    +0.000 A 
ATOM      6  N   UNL     1      44.220   2.629  10.592  0.00  0.00    +0.000 N 
ATOM      7  N   UNL     1      45.501   1.462   9.103  0.00  0.00    +0.000 NA
ATOM      8  C   UNL     1      46.300   1.413   8.007  0.00  0.00    +0.000 A 
ATOM      9  H   UNL     1      44.091   1.696  10.961  0.00  0.00    +0.000 HD
BRANCH   2  11
ATOM     10  N   UNL     1      47.457   3.316   5.098  0.00  0.00    +0.000 N 
ATOM     11  C   UNL     1      47.516   2.359   6.073  0.00  0.00    +0.000 C 
ATOM     12  O   UNL     1      48.334   1.451   6.027  0.00  0.00    +0.000 OA
ATOM     13  H   UNL     1      48.169   3.269   4.379  0.00  0.00    +0.000 HD
ATOM     14  H   UNL     1      46.988   4.204   5.227  0.00  0.00    +0.000 HD
ENDBRANCH   2  11
ENDBRANCH   1   6
BRANCH   1  15
ATOM     15  C   UNL     1      44.349   4.818  11.677  0.00  0.00    +0.000 A 
ATOM     16  C   UNL     1      44.174   6.140  11.256  0.00  0.00    +0.000 A 
ATOM     17  C   UNL     1      44.967   7.155  11.784  0.00  0.00    +0.000 A 
ATOM     18  C   UNL     1      45.929   6.861  12.754  0.00  0.00    +0.000 A 
ATOM     19  C   UNL     1      46.107   5.554  13.237  0.00  0.00    +0.000 A 
ATOM     20  C   UNL     1      45.320   4.541  12.657  0.00  0.00    +0.000 A 
BRANCH  19  21
ATOM     21  C   UNL     1      47.003   5.260  14.382  0.00  0.00    +0.000 A 
ATOM     22  C   UNL     1      47.980   6.193  14.790  0.00  0.00    +0.000 A 
ATOM     23  C   UNL     1      48.755   5.997  15.938  0.00  0.00    +0.000 A 
ATOM     24  C   UNL     1      48.567   4.858  16.711  0.00  0.00    +0.000 A 
ATOM     25  C   UNL     1      47.629   3.917  16.313  0.00  0.00    +0.000 A 
ATOM     26  F   UNL     1      47.437   2.823  17.064  0.00  0.00    +0.000 F 
ATOM     27  C   UNL     1      46.863   4.099  15.162  0.00  0.00    +0.000 A 
ENDBRANCH  19  21
ENDBRANCH   1  15
TORSDOF 4
ENDMDL
MODEL 2
REMARK VINA RESULT:    -8.749      2.776      4.294
REMARK INTER + INTRA:         -11.512
REMARK INTER:                 -10.725
REMARK INTRA:                  -0.786
REMARK UNBOUND:                -0.717
REMARK  Name = 
REMARK  4 active torsions:
REMARK  status: ('A' for Active; 'I' for Inactive)
REMARK    1  A    between atoms: C_2  and  C_4
REMARK    2  A    between atoms: N_8  and  C_9
REMARK    3  A    between atoms: C_9  and  C_10
REMARK    4  A    between atoms: C_14  and  C_15
REMARK                            x       y       z     vdW  Elec       q    Type
REMARK                         _______ _______ _______ _____ _____    ______ ____
ROOT
ATOM      1  C   UNL     1      43.461   3.716  11.229  0.00  0.00    +0.000 C 
ENDROOT
BRANCH   1   6
ATOM      2  C   UNL     1      46.583   2.521   7.282  0.00  0.00    +0.000 A 
ATOM      3  C   UNL     1      46.071   3.751   7.682  0.00  0.00    +0.000 A 
ATOM      4  C   UNL     1      45.225   3.807   8.791  0.00  0.00    +0.000 A 
ATOM      5  C   UNL     1      44.900   2.640   9.474  0.00  0.00    +0.000 A 
ATOM      6  N   UNL     1      44.144   2.608  10.610  0.00  0.00    +0.000 N 
ATOM      7  N   UNL     1      45.364   1.441   9.069  0.00  0.00    +0.000 NA
ATOM      8  C   UNL     1      46.184   1.400   7.989  0.00  0.00    +0.000 A 
ATOM      9  H   UNL     1      43.930   1.666  10.910  0.00  0.00    +0.000 HD
BRANCH   2  11
ATOM     10  N   UNL     1      47.438   3.296   5.148  0.00  0.00    +0.000 N 
ATOM     11  C   UNL     1      47.523   2.369   6.151  0.00  0.00    +0.000 C 
ATOM     12  O   UNL     1      48.374   1.490   6.137  0.00  0.00    +0.000 OA
ATOM     13  H   UNL     1      48.157   3.253   4.435  0.00  0.00    +0.000 HD
ATOM     14  H   UNL     1      46.936   4.169   5.248  0.00  0.00    +0.000 HD
ENDBRANCH   2  11
ENDBRANCH   1   6
BRANCH   1  15
ATOM     15  C   UNL     1      44.415   4.643  11.940  0.00  0.00    +0.000 A 
ATOM     16  C   UNL     1      45.440   4.134  12.745  0.00  0.00    +0.000 A 
ATOM     17  C   UNL     1      46.345   4.996  13.357  0.00  0.00    +0.000 A 
ATOM     18  C   UNL     1      46.249   6.376  13.151  0.00  0.00    +0.000 A 
ATOM     19  C   UNL     1      45.263   6.925  12.314  0.00  0.00    +0.000 A 
ATOM     20  C   UNL     1      44.336   6.033  11.741  0.00  0.00    +0.000 A 
BRANCH  19  21
ATOM     21  C   UNL     1      45.257   8.364  11.956  0.00  0.00    +0.000 A 
ATOM     22  C   UNL     1      46.331   9.202  12.322  0.00  0.00    +0.000 A 
ATOM     23  C   UNL     1      46.411  10.531  11.894  0.00  0.00    +0.000 A 
ATOM     24  C   UNL     1      45.412  11.056  11.084  0.00  0.00    +0.000 A 
ATOM     25  C   UNL     1      44.335  10.256  10.733  0.00  0.00    +0.000 A 
ATOM     26  F   UNL     1      43.376  10.755   9.941  0.00  0.00    +0.000 F 
ATOM     27  C   UNL     1      44.242   8.934  11.168  0.00  0.00    +0.000 A 
ENDBRANCH  19  21
ENDBRANCH   1  15
TORSDOF 4
ENDMDL
MODEL 3
REMARK VINA RESULT:    -8.221      4.432      8.293
REMARK INTER + INTRA:         -10.861
REMARK INTER:                 -10.308
REMARK INTRA:                  -0.553
REMARK UNBOUND:                -0.717
REMARK  Name = 
REMARK  4 active torsions:
REMARK  status: ('A' for Active; 'I' for Inactive)
REMARK    1  A    between atoms: C_2  and  C_4
REMARK    2  A    between atoms: N_8  and  C_9
REMARK    3  A    between atoms: C_9  and  C_10
REMARK    4  A    between atoms: C_14  and  C_15
REMARK                            x       y       z     vdW  Elec       q    Type
REMARK                         _______ _______ _______ _____ _____    ______ ____
ROOT
ATOM      1  C   UNL     1      46.137   5.580  13.297  0.00  0.00    +0.000 C 
ENDROOT
BRANCH   1   6
ATOM      2  C   UNL     1      48.609   4.355  17.672  0.00  0.00    +0.000 A 
ATOM      3  C   UNL     1      48.843   5.383  16.766  0.00  0.00    +0.000 A 
ATOM      4  C   UNL     1      48.030   5.493  15.637  0.00  0.00    +0.000 A 
ATOM      5  C   UNL     1      47.006   4.575  15.428  0.00  0.00    +0.000 A 
ATOM      6  N   UNL     1      46.117   4.647  14.396  0.00  0.00    +0.000 N 
ATOM      7  N   UNL     1      46.798   3.554  16.284  0.00  0.00    +0.000 NA
ATOM      8  C   UNL     1      47.596   3.458  17.377  0.00  0.00    +0.000 A 
ATOM      9  H   UNL     1      45.507   3.842  14.349  0.00  0.00    +0.000 HD
BRANCH   2  11
ATOM     10  N   UNL     1      48.699   3.763  20.024  0.00  0.00    +0.000 N 
ATOM     11  C   UNL     1      49.386   4.187  18.919  0.00  0.00    +0.000 C 
ATOM     12  O   UNL     1      50.596   4.365  18.950  0.00  0.00    +0.000 OA
ATOM     13  H   UNL     1      49.256   3.541  20.840  0.00  0.00    +0.000 HD
ATOM     14  H   UNL     1      47.771   3.362  19.972  0.00  0.00    +0.000 HD
ENDBRANCH   2  11
ENDBRANCH   1   6
BRANCH   1  15
ATOM     15  C   UNL     1      45.235   5.144  12.169  0.00  0.00    +0.000 A 
ATOM     16  C   UNL     1      43.912   5.592  12.098  0.00  0.00    +0.000 A 
ATOM     17  C   UNL     1      43.104   5.224  11.026  0.00  0.00    +0.000 A 
ATOM     18  C   UNL     1      43.617   4.422  10.003  0.00  0.00    +0.000 A 
ATOM     19  C   UNL     1      44.953   3.986  10.013  0.00  0.00    +0.000 A 
ATOM     20  C   UNL     1      45.736   4.340  11.129  0.00  0.00    +0.000 A 
BRANCH  19  21
ATOM     21  C   UNL     1      45.553   3.281   8.855  0.00  0.00    +0.000 A 
ATOM     22  C   UNL     1      46.105   4.005   7.778  0.00  0.00    +0.000 A 
ATOM     23  C   UNL     1      46.784   3.371   6.731  0.00  0.00    +0.000 A 
ATOM     24  C   UNL     1      46.929   1.990   6.741  0.00  0.00    +0.000 A 
ATOM     25  C   UNL     1      46.371   1.257   7.778  0.00  0.00    +0.000 A 
ATOM     26  F   UNL     1      46.520  -0.075   7.797  0.00  0.00    +0.000 F 
ATOM     27  C   UNL     1      45.681   1.881   8.816  0.00  0.00    +0.000 A 
ENDBRANCH  19  21
ENDBRANCH   1  15
TORSDOF 4
ENDMDL
MODEL 4
REMARK VINA RESULT:    -8.195      4.210      7.292
REMARK INTER + INTRA:         -10.829
REMARK INTER:                  -9.978
REMARK INTRA:                  -0.851
REMARK UNBOUND:                -0.717
REMARK  Name = 
REMARK  4 active torsions:
REMARK  status: ('A' for Active; 'I' for Inactive)
REMARK    1  A    between atoms: C_2  and  C_4
REMARK    2  A    between atoms: N_8  and  C_9
REMARK    3  A    between atoms: C_9  and  C_10
REMARK    4  A    between atoms: C_14  and  C_15
REMARK                            x       y       z     vdW  Elec       q    Type
REMARK                         _______ _______ _______ _____ _____    ______ ____
ROOT
ATOM      1  C   UNL     1      44.618   6.511  12.122  0.00  0.00    +0.000 C 
ENDROOT
BRANCH   1   6
ATOM      2  C   UNL     1      49.597   7.778  12.715  0.00  0.00    +0.000 A 
ATOM      3  C   UNL     1      48.798   7.785  11.577  0.00  0.00    +0.000 A 
ATOM      4  C   UNL     1      47.466   7.378  11.679  0.00  0.00    +0.000 A 
ATOM      5  C   UNL     1      46.959   6.966  12.907  0.00  0.00    +0.000 A 
ATOM      6  N   UNL     1      45.655   6.625  13.116  0.00  0.00    +0.000 N 
ATOM      7  N   UNL     1      47.739   6.922  14.005  0.00  0.00    +0.000 NA
ATOM      8  C   UNL     1      49.032   7.319  13.893  0.00  0.00    +0.000 A 
ATOM      9  H   UNL     1      45.492   6.258  14.045  0.00  0.00    +0.000 HD
BRANCH   2  11
ATOM     10  N   UNL     1      51.795   7.802  13.744  0.00  0.00    +0.000 N 
ATOM     11  C   UNL     1      51.003   8.235  12.715  0.00  0.00    +0.000 C 
ATOM     12  O   UNL     1      51.454   8.924  11.810  0.00  0.00    +0.000 OA
ATOM     13  H   UNL     1      52.781   8.024  13.676  0.00  0.00    +0.000 HD
ATOM     14  H   UNL     1      51.534   7.036  14.352  0.00  0.00    +0.000 HD
ENDBRANCH   2  11
ENDBRANCH   1   6
BRANCH   1  15
ATOM     15  C   UNL     1      44.443   5.090  11.647  0.00  0.00    +0.000 A 
ATOM     16  C   UNL     1      43.514   4.242  12.258  0.00  0.00    +0.000 A 
ATOM     17  C   UNL     1      43.325   2.948  11.780  0.00  0.00    +0.000 A 
ATOM     18  C   UNL     1      44.048   2.497  10.672  0.00  0.00    +0.000 A 
ATOM     19  C   UNL     1      44.959   3.331  10.002  0.00  0.00    +0.000 A 
ATOM     20  C   UNL     1      45.159   4.621  10.531  0.00  0.00    +0.000 A 
BRANCH  19  21
ATOM     21  C   UNL     1      45.602   2.921   8.730  0.00  0.00    +0.000 A 
ATOM     22  C   UNL     1      45.972   3.884   7.768  0.00  0.00    +0.000 A 
ATOM     23  C   UNL     1      46.688   3.541   6.616  0.00  0.00    +0.000 A 
ATOM     24  C   UNL     1      47.054   2.218   6.400  0.00  0.00    +0.000 A 
ATOM     25  C   UNL     1      46.676   1.252   7.322  0.00  0.00    +0.000 A 
ATOM     26  F   UNL     1      47.038  -0.023   7.123  0.00  0.00    +0.000 F 
ATOM     27  C   UNL     1      45.951   1.586   8.465  0.00  0.00    +0.000 A 
ENDBRANCH  19  21
ENDBRANCH   1  15
TORSDOF 4
ENDMDL
MODEL 5
REMARK VINA RESULT:    -7.850      3.927      7.466
REMARK INTER + INTRA:         -10.403
REMARK INTER:                 -10.452
REMARK INTRA:                   0.048
REMARK UNBOUND:                -0.717
REMARK  Name = 
REMARK  4 active torsions:
REMARK  status: ('A' for Active; 'I' for Inactive)
REMARK    1  A    between atoms: C_2  and  C_4
REMARK    2  A    between atoms: N_8  and  C_9
REMARK    3  A    between atoms: C_9  and  C_10
REMARK    4  A    between atoms: C_14  and  C_15
REMARK                            x       y       z     vdW  Elec       q    Type
REMARK                         _______ _______ _______ _____ _____    ______ ____
ROOT
ATOM      1  C   UNL     1      45.179   7.247  11.341  0.00  0.00    +0.000 C 
ENDROOT
BRANCH   1   6
ATOM      2  C   UNL     1      47.471   4.811  15.286  0.00  0.00    +0.000 A 
ATOM      3  C   UNL     1      46.251   4.564  14.664  0.00  0.00    +0.000 A 
ATOM      4  C   UNL     1      45.846   5.387  13.613  0.00  0.00    +0.000 A 
ATOM      5  C   UNL     1      46.655   6.443  13.206  0.00  0.00    +0.000 A 
ATOM      6  N   UNL     1      46.377   7.250  12.143  0.00  0.00    +0.000 N 
ATOM      7  N   UNL     1      47.821   6.709  13.829  0.00  0.00    +0.000 NA
ATOM      8  C   UNL     1      48.204   5.902  14.850  0.00  0.00    +0.000 A 
ATOM      9  H   UNL     1      47.025   8.022  12.057  0.00  0.00    +0.000 HD
BRANCH   2  11
ATOM     10  N   UNL     1      47.114   3.158  17.026  0.00  0.00    +0.000 N 
ATOM     11  C   UNL     1      48.007   3.965  16.374  0.00  0.00    +0.000 C 
ATOM     12  O   UNL     1      49.199   3.946  16.645  0.00  0.00    +0.000 OA
ATOM     13  H   UNL     1      47.506   2.501  17.690  0.00  0.00    +0.000 HD
ATOM     14  H   UNL     1      46.190   2.957  16.665  0.00  0.00    +0.000 HD
ENDBRANCH   2  11
ENDBRANCH   1   6
BRANCH   1  15
ATOM     15  C   UNL     1      44.726   5.847  11.005  0.00  0.00    +0.000 A 
ATOM     16  C   UNL     1      43.554   5.323  11.559  0.00  0.00    +0.000 A 
ATOM     17  C   UNL     1      43.119   4.050  11.204  0.00  0.00    +0.000 A 
ATOM     18  C   UNL     1      43.841   3.295  10.274  0.00  0.00    +0.000 A 
ATOM     19  C   UNL     1      45.000   3.801   9.661  0.00  0.00    +0.000 A 
ATOM     20  C   UNL     1      45.439   5.076  10.069  0.00  0.00    +0.000 A 
BRANCH  19  21
ATOM     21  C   UNL     1      45.674   3.082   8.554  0.00  0.00    +0.000 A 
ATOM     22  C   UNL     1      46.221   3.789   7.463  0.00  0.00    +0.000 A 
ATOM     23  C   UNL     1      46.967   3.150   6.467  0.00  0.00    +0.000 A 
ATOM     24  C   UNL     1      47.187   1.781   6.542  0.00  0.00    +0.000 A 
ATOM     25  C   UNL     1      46.637   1.063   7.594  0.00  0.00    +0.000 A 
ATOM     26  F   UNL     1      46.858  -0.257   7.676  0.00  0.00    +0.000 F 
ATOM     27  C   UNL     1      45.880   1.691   8.582  0.00  0.00    +0.000 A 
ENDBRANCH  19  21
ENDBRANCH   1  15
TORSDOF 4
ENDMDL
MODEL 6
REMARK VINA RESULT:    -7.172      4.580      8.188
REMARK INTER + INTRA:          -9.567
REMARK INTER:                  -9.003
REMARK INTRA:                  -0.564
REMARK UNBOUND:                -0.717
REMARK  Name = 
REMARK  4 active torsions:
REMARK  status: ('A' for Active; 'I' for Inactive)
REMARK    1  A    between atoms: C_2  and  C_4
REMARK    2  A    between atoms: N_8  and  C_9
REMARK    3  A    between atoms: C_9  and  C_10
REMARK    4  A    between atoms: C_14  and  C_15
REMARK                            x       y       z     vdW  Elec       q    Type
REMARK                         _______ _______ _______ _____ _____    ______ ____
ROOT
ATOM      1  C   UNL     1      45.858   4.472  13.925  0.00  0.00    +0.000 C 
ENDROOT
BRANCH   1   6
ATOM      2  C   UNL     1      49.893   6.354  16.557  0.00  0.00    +0.000 A 
ATOM      3  C   UNL     1      48.933   5.419  16.931  0.00  0.00    +0.000 A 
ATOM      4  C   UNL     1      47.922   5.085  16.029  0.00  0.00    +0.000 A 
ATOM      5  C   UNL     1      47.880   5.692  14.778  0.00  0.00    +0.000 A 
ATOM      6  N   UNL     1      46.977   5.373  13.807  0.00  0.00    +0.000 N 
ATOM      7  N   UNL     1      48.786   6.624  14.424  0.00  0.00    +0.000 NA
ATOM      8  C   UNL     1      49.764   6.941  15.310  0.00  0.00    +0.000 A 
ATOM      9  H   UNL     1      47.036   5.984  13.003  0.00  0.00    +0.000 HD
BRANCH   2  11
ATOM     10  N   UNL     1      51.307   8.071  17.526  0.00  0.00    +0.000 N 
ATOM     11  C   UNL     1      51.028   6.735  17.425  0.00  0.00    +0.000 C 
ATOM     12  O   UNL     1      51.654   5.902  18.066  0.00  0.00    +0.000 OA
ATOM     13  H   UNL     1      52.009   8.332  18.209  0.00  0.00    +0.000 HD
ATOM     14  H   UNL     1      50.662   8.791  17.226  0.00  0.00    +0.000 HD
ENDBRANCH   2  11
ENDBRANCH   1   6
BRANCH   1  15
ATOM     15  C   UNL     1      45.029   4.432  12.665  0.00  0.00    +0.000 A 
ATOM     16  C   UNL     1      43.813   5.119  12.587  0.00  0.00    +0.000 A 
ATOM     17  C   UNL     1      43.080   5.116  11.404  0.00  0.00    +0.000 A 
ATOM     18  C   UNL     1      43.566   4.444  10.279  0.00  0.00    +0.000 A 
ATOM     19  C   UNL     1      44.804   3.778  10.301  0.00  0.00    +0.000 A 
ATOM     20  C   UNL     1      45.504   3.763  11.523  0.00  0.00    +0.000 A 
BRANCH  19  21
ATOM     21  C   UNL     1      45.405   3.209   9.071  0.00  0.00    +0.000 A 
ATOM     22  C   UNL     1      45.849   4.052   8.030  0.00  0.00    +0.000 A 
ATOM     23  C   UNL     1      46.529   3.552   6.914  0.00  0.00    +0.000 A 
ATOM     24  C   UNL     1      46.784   2.191   6.814  0.00  0.00    +0.000 A 
ATOM     25  C   UNL     1      46.334   1.343   7.816  0.00  0.00    +0.000 A 
ATOM     26  F   UNL     1      46.590   0.029   7.729  0.00  0.00    +0.000 F 
ATOM     27  C   UNL     1      45.643   1.831   8.923  0.00  0.00    +0.000 A 
ENDBRANCH  19  21
ENDBRANCH   1  15
TORSDOF 4
ENDMDL
MODEL 7
REMARK VINA RESULT:    -7.006      4.533      7.480
REMARK INTER + INTRA:          -9.362
REMARK INTER:                  -8.559
REMARK INTRA:                  -0.802
REMARK UNBOUND:                -0.717
REMARK  Name = 
REMARK  4 active torsions:
REMARK  status: ('A' for Active; 'I' for Inactive)
REMARK    1  A    between atoms: C_2  and  C_4
REMARK    2  A    between atoms: N_8  and  C_9
REMARK    3  A    between atoms: C_9  and  C_10
REMARK    4  A    between atoms: C_14  and  C_15
REMARK                            x       y       z     vdW  Elec       q    Type
REMARK                         _______ _______ _______ _____ _____    ______ ____
ROOT
ATOM      1  C   UNL     1      45.887   4.875  13.346  0.00  0.00    +0.000 C 
ENDROOT
BRANCH   1   6
ATOM      2  C   UNL     1      48.601   9.053  11.961  0.00  0.00    +0.000 A 
ATOM      3  C   UNL     1      48.659   7.747  11.487  0.00  0.00    +0.000 A 
ATOM      4  C   UNL     1      47.817   6.784  12.044  0.00  0.00    +0.000 A 
ATOM      5  C   UNL     1      46.941   7.137  13.065  0.00  0.00    +0.000 A 
ATOM      6  N   UNL     1      46.030   6.283  13.616  0.00  0.00    +0.000 N 
ATOM      7  N   UNL     1      46.907   8.392  13.553  0.00  0.00    +0.000 NA
ATOM      8  C   UNL     1      47.731   9.319  13.004  0.00  0.00    +0.000 A 
ATOM      9  H   UNL     1      45.549   6.684  14.410  0.00  0.00    +0.000 HD
BRANCH   2  11
ATOM     10  N   UNL     1      48.796  11.355  11.217  0.00  0.00    +0.000 N 
ATOM     11  C   UNL     1      49.420  10.151  11.401  0.00  0.00    +0.000 C 
ATOM     12  O   UNL     1      50.611  10.007  11.163  0.00  0.00    +0.000 OA
ATOM     13  H   UNL     1      49.389  12.130  10.942  0.00  0.00    +0.000 HD
ATOM     14  H   UNL     1      47.904  11.581  11.638  0.00  0.00    +0.000 HD
ENDBRANCH   2  11
ENDBRANCH   1   6
BRANCH   1  15
ATOM     15  C   UNL     1      45.121   4.618  12.072  0.00  0.00    +0.000 A 
ATOM     16  C   UNL     1      43.863   5.192  11.867  0.00  0.00    +0.000 A 
ATOM     17  C   UNL     1      43.186   4.990  10.668  0.00  0.00    +0.000 A 
ATOM     18  C   UNL     1      43.771   4.228   9.652  0.00  0.00    +0.000 A 
ATOM     19  C   UNL     1      45.052   3.670   9.800  0.00  0.00    +0.000 A 
ATOM     20  C   UNL     1      45.696   3.857  11.038  0.00  0.00    +0.000 A 
BRANCH  19  21
ATOM     21  C   UNL     1      45.749   3.006   8.672  0.00  0.00    +0.000 A 
ATOM     22  C   UNL     1      46.002   1.619   8.698  0.00  0.00    +0.000 A 
ATOM     23  C   UNL     1      46.547   0.946   7.599  0.00  0.00    +0.000 A 
ATOM     24  C   UNL     1      46.851   1.651   6.440  0.00  0.00    +0.000 A 
ATOM     25  C   UNL     1      46.632   3.020   6.404  0.00  0.00    +0.000 A 
ATOM     26  F   UNL     1      46.912   3.701   5.283  0.00  0.00    +0.000 F 
ATOM     27  C   UNL     1      46.103   3.699   7.501  0.00  0.00    +0.000 A 
ENDBRANCH  19  21
ENDBRANCH   1  15
TORSDOF 4
ENDMDL
MODEL 8
REMARK VINA RESULT:    -6.869      5.071      8.746
REMARK INTER + INTRA:          -9.193
REMARK INTER:                  -8.527
REMARK INTRA:                  -0.666
REMARK UNBOUND:                -0.717
REMARK  Name = 
REMARK  4 active torsions:
REMARK  status: ('A' for Active; 'I' for Inactive)
REMARK    1  A    between atoms: C_2  and  C_4
REMARK    2  A    between atoms: N_8  and  C_9
REMARK    3  A    between atoms: C_9  and  C_10
REMARK    4  A    between atoms: C_14  and  C_15
REMARK                            x       y       z     vdW  Elec       q    Type
REMARK                         _______ _______ _______ _____ _____    ______ ____
ROOT
ATOM      1  C   UNL     1      48.268   7.557  13.998  0.00  0.00    +0.000 C 
ENDROOT
BRANCH   1   6
ATOM      2  C   UNL     1      48.727   5.499  18.721  0.00  0.00    +0.000 A 
ATOM      3  C   UNL     1      48.518   6.818  18.332  0.00  0.00    +0.000 A 
ATOM      4  C   UNL     1      48.443   7.122  16.972  0.00  0.00    +0.000 A 
ATOM      5  C   UNL     1      48.586   6.111  16.027  0.00  0.00    +0.000 A 
ATOM      6  N   UNL     1      48.452   6.302  14.683  0.00  0.00    +0.000 N 
ATOM      7  N   UNL     1      48.825   4.838  16.397  0.00  0.00    +0.000 NA
ATOM      8  C   UNL     1      48.896   4.555  17.722  0.00  0.00    +0.000 A 
ATOM      9  H   UNL     1      48.687   5.477  14.146  0.00  0.00    +0.000 HD
BRANCH   2  11
ATOM     10  N   UNL     1      48.633   3.735  20.385  0.00  0.00    +0.000 N 
ATOM     11  C   UNL     1      48.772   5.074  20.136  0.00  0.00    +0.000 C 
ATOM     12  O   UNL     1      48.979   5.872  21.040  0.00  0.00    +0.000 OA
ATOM     13  H   UNL     1      48.780   3.439  21.342  0.00  0.00    +0.000 HD
ATOM     14  H   UNL     1      48.722   3.031  19.663  0.00  0.00    +0.000 HD
ENDBRANCH   2  11
ENDBRANCH   1   6
BRANCH   1  15
ATOM     15  C   UNL     1      47.043   7.546  13.117  0.00  0.00    +0.000 A 
ATOM     16  C   UNL     1      46.309   8.716  12.899  0.00  0.00    +0.000 A 
ATOM     17  C   UNL     1      45.211   8.706  12.045  0.00  0.00    +0.000 A 
ATOM     18  C   UNL     1      44.847   7.530  11.382  0.00  0.00    +0.000 A 
ATOM     19  C   UNL     1      45.583   6.343  11.539  0.00  0.00    +0.000 A 
ATOM     20  C   UNL     1      46.665   6.372  12.440  0.00  0.00    +0.000 A 
BRANCH  19  21
ATOM     21  C   UNL     1      45.310   5.141  10.715  0.00  0.00    +0.000 A 
ATOM     22  C   UNL     1      44.584   4.054  11.246  0.00  0.00    +0.000 A 
ATOM     23  C   UNL     1      44.207   2.961  10.458  0.00  0.00    +0.000 A 
ATOM     24  C   UNL     1      44.548   2.932   9.111  0.00  0.00    +0.000 A 
ATOM     25  C   UNL     1      45.283   3.980   8.576  0.00  0.00    +0.000 A 
ATOM     26  F   UNL     1      45.603   3.961   7.275  0.00  0.00    +0.000 F 
ATOM     27  C   UNL     1      45.675   5.065   9.360  0.00  0.00    +0.000 A 
ENDBRANCH  19  21
ENDBRANCH   1  15
TORSDOF 4
ENDMDL
MODEL 9
REMARK VINA RESULT:    -6.810      5.122      8.695
REMARK INTER + INTRA:          -9.120
REMARK INTER:                  -8.362
REMARK INTRA:                  -0.758
REMARK UNBOUND:                -0.717
REMARK  Name = 
REMARK  4 active torsions:
REMARK  status: ('A' for Active; 'I' for Inactive)
REMARK    1  A    between atoms: C_2  and  C_4
REMARK    2  A    between atoms: N_8  and  C_9
REMARK    3  A    between atoms: C_9  and  C_10
REMARK    4  A    between atoms: C_14  and  C_15
REMARK                            x       y       z     vdW  Elec       q    Type
REMARK                         _______ _______ _______ _____ _____    ______ ____
ROOT
ATOM      1  C   UNL     1      49.027   7.120  13.711  0.00  0.00    +0.000 C 
ENDROOT
BRANCH   1   6
ATOM      2  C   UNL     1      48.460   5.629  18.631  0.00  0.00    +0.000 A 
ATOM      3  C   UNL     1      48.338   4.901  17.452  0.00  0.00    +0.000 A 
ATOM      4  C   UNL     1      48.530   5.549  16.231  0.00  0.00    +0.000 A 
ATOM      5  C   UNL     1      48.831   6.906  16.206  0.00  0.00    +0.000 A 
ATOM      6  N   UNL     1      49.109   7.604  15.067  0.00  0.00    +0.000 N 
ATOM      7  N   UNL     1      48.915   7.624  17.343  0.00  0.00    +0.000 NA
ATOM      8  C   UNL     1      48.725   6.983  18.524  0.00  0.00    +0.000 A 
ATOM      9  H   UNL     1      49.208   8.597  15.231  0.00  0.00    +0.000 HD
BRANCH   2  11
ATOM     10  N   UNL     1      48.544   3.673  20.065  0.00  0.00    +0.000 N 
ATOM     11  C   UNL     1      48.322   5.020  19.972  0.00  0.00    +0.000 C 
ATOM     12  O   UNL     1      48.075   5.696  20.962  0.00  0.00    +0.000 OA
ATOM     13  H   UNL     1      48.560   3.285  21.001  0.00  0.00    +0.000 HD
ATOM     14  H   UNL     1      48.996   3.139  19.334  0.00  0.00    +0.000 HD
ENDBRANCH   2  11
ENDBRANCH   1   6
BRANCH   1  15
ATOM     15  C   UNL     1      47.639   7.268  13.141  0.00  0.00    +0.000 A 
ATOM     16  C   UNL     1      46.936   8.469  13.273  0.00  0.00    +0.000 A 
ATOM     17  C   UNL     1      45.675   8.612  12.701  0.00  0.00    +0.000 A 
ATOM     18  C   UNL     1      45.114   7.561  11.970  0.00  0.00    +0.000 A 
ATOM     19  C   UNL     1      45.805   6.353  11.775  0.00  0.00    +0.000 A 
ATOM     20  C   UNL     1      47.060   6.221  12.400  0.00  0.00    +0.000 A 
BRANCH  19  21
ATOM     21  C   UNL     1      45.294   5.300  10.864  0.00  0.00    +0.000 A 
ATOM     22  C   UNL     1      45.674   5.276   9.506  0.00  0.00    +0.000 A 
ATOM     23  C   UNL     1      45.306   4.230   8.653  0.00  0.00    +0.000 A 
ATOM     24  C   UNL     1      44.547   3.175   9.144  0.00  0.00    +0.000 A 
ATOM     25  C   UNL     1      44.142   3.192  10.471  0.00  0.00    +0.000 A 
ATOM     26  F   UNL     1      43.420   2.170  10.950  0.00  0.00    +0.000 F 
ATOM     27  C   UNL     1      44.492   4.239  11.322  0.00  0.00    +0.000 A 
ENDBRANCH  19  21
ENDBRANCH   1  15
TORSDOF 4
ENDMDL
