MODEL 1
REMARK VINA RESULT:    -8.663      0.000      0.000
REMARK INTER + INTRA:         -10.796
REMARK INTER:                 -10.182
REMARK INTRA:                  -0.614
REMARK UNBOUND:                -0.614
REMARK  Name = 
REMARK  3 active torsions:
REMARK  status: ('A' for Active; 'I' for Inactive)
REMARK    1  A    between atoms: C_2  and  C_4
REMARK    2  A    between atoms: N_8  and  C_9
REMARK    3  A    between atoms: C_9  and  C_10
REMARK                            x       y       z     vdW  Elec       q    Type
REMARK                         _______ _______ _______ _____ _____    ______ ____
ROOT
ATOM      1  C   UNL     1      46.561   2.701   7.510  0.00  0.00    +0.000 A 
ATOM      2  C   UNL     1      46.221   4.041   7.666  0.00  0.00    +0.000 A 
ATOM      3  C   UNL     1      45.360   4.413   8.703  0.00  0.00    +0.000 A 
ATOM      4  C   UNL     1      44.845   3.442   9.554  0.00  0.00    +0.000 A 
ATOM      5  N   UNL     1      43.898   3.714  10.545  0.00  0.00    +0.000 N 
ATOM      6  N   UNL     1      45.169   2.139   9.412  0.00  0.00    +0.000 NA
ATOM      7  C   UNL     1      46.009   1.794   8.400  0.00  0.00    +0.000 A 
ATOM      8  H   UNL     1      43.761   2.836  11.045  0.00  0.00    +0.000 HD
ENDROOT
BRANCH   1  10
ATOM      9  N   UNL     1      47.697   3.061   5.391  0.00  0.00    +0.000 N 
ATOM     10  C   UNL     1      47.431   2.208   6.425  0.00  0.00    +0.000 C 
ATOM     11  O   UNL     1      47.916   1.083   6.454  0.00  0.00    +0.000 OA
ATOM     12  H   UNL     1      48.361   2.737   4.696  0.00  0.00    +0.000 HD
ATOM     13  H   UNL     1      47.521   4.054   5.437  0.00  0.00    +0.000 HD
ENDBRANCH   1  10
BRANCH   5  14
ATOM     14  C   UNL     1      43.859   4.943  11.352  0.00  0.00    +0.000 C 
ATOM     15  C   UNL     1      42.581   5.147  12.160  0.00  0.00    +0.000 C 
ATOM     16  C   UNL     1      42.908   6.085  11.048  0.00  0.00    +0.000 C 
BRANCH  14  17
ATOM     17  C   UNL     1      45.185   5.260  12.043  0.00  0.00    +0.000 A 
ATOM     18  C   UNL     1      45.965   6.371  11.656  0.00  0.00    +0.000 A 
ATOM     19  C   UNL     1      47.167   6.686  12.300  0.00  0.00    +0.000 A 
ATOM     20  C   UNL     1      47.602   5.895  13.356  0.00  0.00    +0.000 A 
ATOM     21  F   UNL     1      48.747   6.201  13.979  0.00  0.00    +0.000 F 
ATOM     22  C   UNL     1      46.851   4.799  13.758  0.00  0.00    +0.000 A 
ATOM     23  F   UNL     1      47.271   4.035  14.777  0.00  0.00    +0.000 F 
ATOM     24  C   UNL     1      45.659   4.481  13.113  0.00  0.00    +0.000 A 
ENDBRANCH  14  17
ENDBRANCH   5  14
TORSDOF 3
ENDMDL
MODEL 2
REMARK VINA RESULT:    -6.770      4.177      6.420
REMARK INTER + INTRA:          -8.571
REMARK INTER:                  -8.812
REMARK INTRA:                   0.241
REMARK UNBOUND:                -0.614
REMARK  Name = 
REMARK  3 active torsions:
REMARK  status: ('A' for Active; 'I' for Inactive)
REMARK    1  A    between atoms: C_2  and  C_4
REMARK    2  A    between atoms: N_8  and  C_9
REMARK    3  A    between atoms: C_9  and  C_10
REMARK                            x       y       z     vdW  Elec       q    Type
REMARK                         _______ _______ _______ _____ _____    ______ ____
ROOT
ATOM      1  C   UNL     1      47.854   5.966  14.497  0.00  0.00    +0.000 A 
ATOM      2  C   UNL     1      47.536   6.205  13.163  0.00  0.00    +0.000 A 
ATOM      3  C   UNL     1      46.703   5.310  12.488  0.00  0.00    +0.000 A 
ATOM      4  C   UNL     1      46.212   4.190  13.149  0.00  0.00    +0.000 A 
ATOM      5  N   UNL     1      45.462   3.193  12.519  0.00  0.00    +0.000 N 
ATOM      6  N   UNL     1      46.513   3.949  14.443  0.00  0.00    +0.000 NA
ATOM      7  C   UNL     1      47.325   4.830  15.087  0.00  0.00    +0.000 A 
ATOM      8  H   UNL     1      45.191   2.544  13.255  0.00  0.00    +0.000 HD
ENDROOT
BRANCH   1  10
ATOM      9  N   UNL     1      48.245   8.006  15.761  0.00  0.00    +0.000 N 
ATOM     10  C   UNL     1      48.756   6.833  15.282  0.00  0.00    +0.000 C 
ATOM     11  O   UNL     1      49.913   6.507  15.516  0.00  0.00    +0.000 OA
ATOM     12  H   UNL     1      48.851   8.550  16.366  0.00  0.00    +0.000 HD
ATOM     13  H   UNL     1      47.255   8.202  15.798  0.00  0.00    +0.000 HD
ENDBRANCH   1  10
BRANCH   5  14
ATOM     14  C   UNL     1      44.472   3.434  11.457  0.00  0.00    +0.000 C 
ATOM     15  C   UNL     1      43.487   4.564  11.737  0.00  0.00    +0.000 C 
ATOM     16  C   UNL     1      42.993   3.160  11.649  0.00  0.00    +0.000 C 
BRANCH  14  17
ATOM     17  C   UNL     1      45.055   3.342  10.048  0.00  0.00    +0.000 A 
ATOM     18  C   UNL     1      45.364   4.501   9.305  0.00  0.00    +0.000 A 
ATOM     19  C   UNL     1      45.923   4.428   8.024  0.00  0.00    +0.000 A 
ATOM     20  C   UNL     1      46.196   3.184   7.470  0.00  0.00    +0.000 A 
ATOM     21  F   UNL     1      46.741   3.112   6.249  0.00  0.00    +0.000 F 
ATOM     22  C   UNL     1      45.905   2.028   8.181  0.00  0.00    +0.000 A 
ATOM     23  F   UNL     1      46.167   0.826   7.646  0.00  0.00    +0.000 F 
ATOM     24  C   UNL     1      45.341   2.100   9.453  0.00  0.00    +0.000 A 
ENDBRANCH  14  17
ENDBRANCH   5  14
TORSDOF 3
ENDMDL
MODEL 3
REMARK VINA RESULT:    -5.754      2.154      2.959
REMARK INTER + INTRA:          -7.377
REMARK INTER:                  -7.625
REMARK INTRA:                   0.248
REMARK UNBOUND:                -0.614
REMARK  Name = 
REMARK  3 active torsions:
REMARK  status: ('A' for Active; 'I' for Inactive)
REMARK    1  A    between atoms: C_2  and  C_4
REMARK    2  A    between atoms: N_8  and  C_9
REMARK    3  A    between atoms: C_9  and  C_10
REMARK                            x       y       z     vdW  Elec       q    Type
REMARK                         _______ _______ _______ _____ _____    ______ ____
ROOT
ATOM      1  C   UNL     1      46.304   3.276   7.464  0.00  0.00    +0.000 A 
ATOM      2  C   UNL     1      46.412   4.482   8.148  0.00  0.00    +0.000 A 
ATOM      3  C   UNL     1      45.561   4.735   9.228  0.00  0.00    +0.000 A 
ATOM      4  C   UNL     1      44.614   3.786   9.597  0.00  0.00    +0.000 A 
ATOM      5  N   UNL     1      43.657   4.004  10.593  0.00  0.00    +0.000 N 
ATOM      6  N   UNL     1      44.501   2.612   8.940  0.00  0.00    +0.000 NA
ATOM      7  C   UNL     1      45.337   2.382   7.893  0.00  0.00    +0.000 A 
ATOM      8  H   UNL     1      43.152   3.124  10.687  0.00  0.00    +0.000 HD
ENDROOT
BRANCH   1  10
ATOM      9  N   UNL     1      48.448   2.644   6.507  0.00  0.00    +0.000 N 
ATOM     10  C   UNL     1      47.131   2.935   6.289  0.00  0.00    +0.000 C 
ATOM     11  O   UNL     1      46.655   2.893   5.161  0.00  0.00    +0.000 OA
ATOM     12  H   UNL     1      48.982   2.333   5.703  0.00  0.00    +0.000 HD
ATOM     13  H   UNL     1      48.822   2.436   7.421  0.00  0.00    +0.000 HD
ENDBRANCH   1  10
BRANCH   5  14
ATOM     14  C   UNL     1      43.895   4.761  11.832  0.00  0.00    +0.000 C 
ATOM     15  C   UNL     1      44.815   4.079  12.840  0.00  0.00    +0.000 C 
ATOM     16  C   UNL     1      43.379   4.295  13.180  0.00  0.00    +0.000 C 
BRANCH  14  17
ATOM     17  C   UNL     1      44.090   6.259  11.603  0.00  0.00    +0.000 A 
ATOM     18  C   UNL     1      43.055   7.061  11.076  0.00  0.00    +0.000 A 
ATOM     19  C   UNL     1      43.215   8.438  10.887  0.00  0.00    +0.000 A 
ATOM     20  C   UNL     1      44.417   9.039  11.237  0.00  0.00    +0.000 A 
ATOM     21  F   UNL     1      44.567  10.359  11.067  0.00  0.00    +0.000 F 
ATOM     22  C   UNL     1      45.450   8.274  11.761  0.00  0.00    +0.000 A 
ATOM     23  F   UNL     1      46.611   8.854  12.098  0.00  0.00    +0.000 F 
ATOM     24  C   UNL     1      45.294   6.902  11.942  0.00  0.00    +0.000 A 
ENDBRANCH  14  17
ENDBRANCH   5  14
TORSDOF 3
ENDMDL
