MODEL 1
REMARK VINA RESULT:    -8.067      0.000      0.000
REMARK INTER + INTRA:         -11.755
REMARK INTER:                 -10.897
REMARK INTRA:                  -0.858
REMARK UNBOUND:                -0.858
REMARK  Name = 
REMARK  7 active torsions:
REMARK  status: ('A' for Active; 'I' for Inactive)
REMARK    1  A    between atoms: C_1  and  C_2
REMARK    2  A    between atoms: C_2  and  N_3
REMARK    3  A    between atoms: C_2  and  C_18
REMARK    4  A    between atoms: N_3  and  C_4
REMARK    5  A    between atoms: C_7  and  C_8
REMARK    6  A    between atoms: C_8  and  O_9
REMARK    7  A    between atoms: O_9  and  C_10
REMARK                            x       y       z     vdW  Elec       q    Type
REMARK                         _______ _______ _______ _____ _____    ______ ____
ROOT
ATOM      1  N   UNL     1      46.561   6.056  13.734  0.00  0.00    +0.000 N 
ATOM      2  H   UNL     1      45.978   6.043  14.576  0.00  0.00    +0.000 HD
ENDROOT
BRANCH   1   3
ATOM      3  C   UNL     1      46.043   5.247  12.722  0.00  0.00    +0.000 A 
ATOM      4  C   UNL     1      45.776   5.834  11.484  0.00  0.00    +0.000 A 
ATOM      5  C   UNL     1      45.247   5.085  10.427  0.00  0.00    +0.000 A 
ATOM      6  C   UNL     1      44.942   3.744  10.631  0.00  0.00    +0.000 A 
ATOM      7  N   UNL     1      45.156   3.144  11.828  0.00  0.00    +0.000 NA
ATOM      8  C   UNL     1      45.702   3.900  12.826  0.00  0.00    +0.000 A 
BRANCH   6   9
ATOM      9  C   UNL     1      44.350   2.916   9.504  0.00  0.00    +0.000 C 
BRANCH   9  10
ATOM     10  O   UNL     1      45.270   1.891   9.123  0.00  0.00    +0.000 OA
BRANCH  10  11
ATOM     11  C   UNL     1      46.027   2.118   8.005  0.00  0.00    +0.000 A 
ATOM     12  C   UNL     1      46.007   3.213   7.170  0.00  0.00    +0.000 A 
ATOM     13  N   UNL     1      46.817   3.356   6.093  0.00  0.00    +0.000 NA
ATOM     14  C   UNL     1      47.675   2.348   5.867  0.00  0.00    +0.000 A 
ATOM     15  N   UNL     1      47.789   1.234   6.603  0.00  0.00    +0.000 NA
ATOM     16  C   UNL     1      46.947   1.150   7.663  0.00  0.00    +0.000 A 
ENDBRANCH  10  11
ENDBRANCH   9  10
ENDBRANCH   6   9
ENDBRANCH   1   3
BRANCH   1  18
ATOM     17  C   UNL     1      48.664   7.118  13.149  0.00  0.00    +0.000 C 
ATOM     18  C   UNL     1      47.993   6.083  14.058  0.00  0.00    +0.000 C 
BRANCH  18  19
ATOM     19  C   UNL     1      48.400   6.263  15.508  0.00  0.00    +0.000 A 
ATOM     20  C   UNL     1      48.978   7.425  15.994  0.00  0.00    +0.000 A 
ATOM     21  S   UNL     1      49.701   7.211  17.528  0.00  0.00    +0.000 S 
ATOM     22  C   UNL     1      49.132   5.610  17.630  0.00  0.00    +0.000 A 
ATOM     23  N   UNL     1      49.473   4.796  18.664  0.00  0.00    +0.000 NA
ATOM     24  C   UNL     1      48.872   3.651  18.654  0.00  0.00    +0.000 A 
ATOM     25  N   UNL     1      47.932   3.266  17.729  0.00  0.00    +0.000 N 
ATOM     26  C   UNL     1      47.577   4.046  16.651  0.00  0.00    +0.000 A 
ATOM     27  O   UNL     1      46.697   3.711  15.863  0.00  0.00    +0.000 OA
ATOM     28  C   UNL     1      48.303   5.297  16.570  0.00  0.00    +0.000 A 
ATOM     29  H   UNL     1      47.438   2.392  17.834  0.00  0.00    +0.000 HD
ENDBRANCH  18  19
ENDBRANCH   1  18
TORSDOF 6
ENDMDL
MODEL 2
REMARK VINA RESULT:    -7.075      3.060      8.556
REMARK INTER + INTRA:         -10.415
REMARK INTER:                  -9.868
REMARK INTRA:                  -0.547
REMARK UNBOUND:                -0.858
REMARK  Name = 
REMARK  7 active torsions:
REMARK  status: ('A' for Active; 'I' for Inactive)
REMARK    1  A    between atoms: C_1  and  C_2
REMARK    2  A    between atoms: C_2  and  N_3
REMARK    3  A    between atoms: C_2  and  C_18
REMARK    4  A    between atoms: N_3  and  C_4
REMARK    5  A    between atoms: C_7  and  C_8
REMARK    6  A    between atoms: C_8  and  O_9
REMARK    7  A    between atoms: O_9  and  C_10
REMARK                            x       y       z     vdW  Elec       q    Type
REMARK                         _______ _______ _______ _____ _____    ______ ____
ROOT
ATOM      1  N   UNL     1      46.710   5.960  12.498  0.00  0.00    +0.000 N 
ATOM      2  H   UNL     1      47.183   5.474  11.730  0.00  0.00    +0.000 HD
ENDROOT
BRANCH   1   3
ATOM      3  C   UNL     1      47.270   5.657  13.739  0.00  0.00    +0.000 A 
ATOM      4  C   UNL     1      46.768   4.556  14.436  0.00  0.00    +0.000 A 
ATOM      5  C   UNL     1      47.276   4.200  15.690  0.00  0.00    +0.000 A 
ATOM      6  C   UNL     1      48.268   4.984  16.268  0.00  0.00    +0.000 A 
ATOM      7  N   UNL     1      48.762   6.079  15.638  0.00  0.00    +0.000 NA
ATOM      8  C   UNL     1      48.261   6.377  14.403  0.00  0.00    +0.000 A 
BRANCH   6   9
ATOM      9  C   UNL     1      48.823   4.626  17.636  0.00  0.00    +0.000 C 
BRANCH   9  10
ATOM     10  O   UNL     1      50.251   4.646  17.598  0.00  0.00    +0.000 OA
BRANCH  10  11
ATOM     11  C   UNL     1      50.892   3.437  17.626  0.00  0.00    +0.000 A 
ATOM     12  C   UNL     1      50.406   2.206  17.245  0.00  0.00    +0.000 A 
ATOM     13  N   UNL     1      51.130   1.061  17.287  0.00  0.00    +0.000 NA
ATOM     14  C   UNL     1      52.391   1.183  17.733  0.00  0.00    +0.000 A 
ATOM     15  N   UNL     1      52.976   2.320  18.134  0.00  0.00    +0.000 NA
ATOM     16  C   UNL     1      52.197   3.427  18.070  0.00  0.00    +0.000 A 
ENDBRANCH  10  11
ENDBRANCH   9  10
ENDBRANCH   6   9
ENDBRANCH   1   3
BRANCH   1  18
ATOM     17  C   UNL     1      44.947   7.332  11.546  0.00  0.00    +0.000 C 
ATOM     18  C   UNL     1      45.257   6.030  12.292  0.00  0.00    +0.000 C 
BRANCH  18  19
ATOM     19  C   UNL     1      44.562   4.841  11.656  0.00  0.00    +0.000 A 
ATOM     20  C   UNL     1      43.538   4.142  12.276  0.00  0.00    +0.000 A 
ATOM     21  S   UNL     1      43.228   2.633  11.536  0.00  0.00    +0.000 S 
ATOM     22  C   UNL     1      44.352   2.949  10.297  0.00  0.00    +0.000 A 
ATOM     23  N   UNL     1      44.660   2.017   9.357  0.00  0.00    +0.000 NA
ATOM     24  C   UNL     1      45.443   2.449   8.424  0.00  0.00    +0.000 A 
ATOM     25  N   UNL     1      45.911   3.737   8.325  0.00  0.00    +0.000 N 
ATOM     26  C   UNL     1      45.648   4.705   9.268  0.00  0.00    +0.000 A 
ATOM     27  O   UNL     1      46.028   5.866   9.139  0.00  0.00    +0.000 OA
ATOM     28  C   UNL     1      44.854   4.234  10.385  0.00  0.00    +0.000 A 
ATOM     29  H   UNL     1      46.448   4.028   7.521  0.00  0.00    +0.000 HD
ENDBRANCH  18  19
ENDBRANCH   1  18
TORSDOF 6
ENDMDL
MODEL 3
REMARK VINA RESULT:    -7.043      1.359      1.876
REMARK INTER + INTRA:         -10.372
REMARK INTER:                  -9.575
REMARK INTRA:                  -0.797
REMARK UNBOUND:                -0.858
REMARK  Name = 
REMARK  7 active torsions:
REMARK  status: ('A' for Active; 'I' for Inactive)
REMARK    1  A    between atoms: C_1  and  C_2
REMARK    2  A    between atoms: C_2  and  N_3
REMARK    3  A    between atoms: C_2  and  C_18
REMARK    4  A    between atoms: N_3  and  C_4
REMARK    5  A    between atoms: C_7  and  C_8
REMARK    6  A    between atoms: C_8  and  O_9
REMARK    7  A    between atoms: O_9  and  C_10
REMARK                            x       y       z     vdW  Elec       q    Type
REMARK                         _______ _______ _______ _____ _____    ______ ____
ROOT
ATOM      1  N   UNL     1      47.117   7.018  14.064  0.00  0.00    +0.000 N 
ATOM      2  H   UNL     1      46.701   7.094  14.998  0.00  0.00    +0.000 HD
ENDROOT
BRANCH   1   3
ATOM      3  C   UNL     1      46.242   6.445  13.142  0.00  0.00    +0.000 A 
ATOM      4  C   UNL     1      46.227   5.054  13.026  0.00  0.00    +0.000 A 
ATOM      5  C   UNL     1      45.381   4.412  12.115  0.00  0.00    +0.000 A 
ATOM      6  C   UNL     1      44.576   5.179  11.281  0.00  0.00    +0.000 A 
ATOM      7  N   UNL     1      44.583   6.533  11.339  0.00  0.00    +0.000 NA
ATOM      8  C   UNL     1      45.399   7.122  12.262  0.00  0.00    +0.000 A 
BRANCH   6   9
ATOM      9  C   UNL     1      43.663   4.504  10.271  0.00  0.00    +0.000 C 
BRANCH   9  10
ATOM     10  O   UNL     1      44.091   3.158  10.056  0.00  0.00    +0.000 OA
BRANCH  10  11
ATOM     11  C   UNL     1      45.003   2.946   9.059  0.00  0.00    +0.000 A 
ATOM     12  C   UNL     1      45.653   1.776   8.732  0.00  0.00    +0.000 A 
ATOM     13  N   UNL     1      46.528   1.660   7.704  0.00  0.00    +0.000 NA
ATOM     14  C   UNL     1      46.742   2.775   6.988  0.00  0.00    +0.000 A 
ATOM     15  N   UNL     1      46.175   3.970   7.207  0.00  0.00    +0.000 NA
ATOM     16  C   UNL     1      45.312   4.020   8.252  0.00  0.00    +0.000 A 
ENDBRANCH  10  11
ENDBRANCH   9  10
ENDBRANCH   6   9
ENDBRANCH   1   3
BRANCH   1  18
ATOM     17  C   UNL     1      49.265   7.397  12.998  0.00  0.00    +0.000 C 
ATOM     18  C   UNL     1      48.539   6.655  14.125  0.00  0.00    +0.000 C 
BRANCH  18  19
ATOM     19  C   UNL     1      49.263   6.800  15.449  0.00  0.00    +0.000 A 
ATOM     20  C   UNL     1      50.154   7.827  15.716  0.00  0.00    +0.000 A 
ATOM     21  S   UNL     1      51.118   7.522  17.095  0.00  0.00    +0.000 S 
ATOM     22  C   UNL     1      50.267   6.088  17.438  0.00  0.00    +0.000 A 
ATOM     23  N   UNL     1      50.640   5.261  18.450  0.00  0.00    +0.000 NA
ATOM     24  C   UNL     1      49.828   4.276  18.651  0.00  0.00    +0.000 A 
ATOM     25  N   UNL     1      48.659   4.067  17.960  0.00  0.00    +0.000 N 
ATOM     26  C   UNL     1      48.257   4.862  16.909  0.00  0.00    +0.000 A 
ATOM     27  O   UNL     1      47.184   4.696  16.336  0.00  0.00    +0.000 OA
ATOM     28  C   UNL     1      49.192   5.921  16.586  0.00  0.00    +0.000 A 
ATOM     29  H   UNL     1      48.029   3.326  18.229  0.00  0.00    +0.000 HD
ENDBRANCH  18  19
ENDBRANCH   1  18
TORSDOF 6
ENDMDL
MODEL 4
REMARK VINA RESULT:    -6.968      2.082      2.957
REMARK INTER + INTRA:         -10.270
REMARK INTER:                  -9.772
REMARK INTRA:                  -0.498
REMARK UNBOUND:                -0.858
REMARK  Name = 
REMARK  7 active torsions:
REMARK  status: ('A' for Active; 'I' for Inactive)
REMARK    1  A    between atoms: C_1  and  C_2
REMARK    2  A    between atoms: C_2  and  N_3
REMARK    3  A    between atoms: C_2  and  C_18
REMARK    4  A    between atoms: N_3  and  C_4
REMARK    5  A    between atoms: C_7  and  C_8
REMARK    6  A    between atoms: C_8  and  O_9
REMARK    7  A    between atoms: O_9  and  C_10
REMARK                            x       y       z     vdW  Elec       q    Type
REMARK                         _______ _______ _______ _____ _____    ______ ____
ROOT
ATOM      1  N   UNL     1      47.464   5.059  14.876  0.00  0.00    +0.000 N 
ATOM      2  H   UNL     1      47.825   6.017  14.893  0.00  0.00    +0.000 HD
ENDROOT
BRANCH   1   3
ATOM      3  C   UNL     1      46.485   4.881  13.899  0.00  0.00    +0.000 A 
ATOM      4  C   UNL     1      46.271   3.590  13.410  0.00  0.00    +0.000 A 
ATOM      5  C   UNL     1      45.312   3.339  12.423  0.00  0.00    +0.000 A 
ATOM      6  C   UNL     1      44.594   4.403  11.889  0.00  0.00    +0.000 A 
ATOM      7  N   UNL     1      44.793   5.676  12.313  0.00  0.00    +0.000 NA
ATOM      8  C   UNL     1      45.716   5.876  13.299  0.00  0.00    +0.000 A 
BRANCH   6   9
ATOM      9  C   UNL     1      43.560   4.157  10.804  0.00  0.00    +0.000 C 
BRANCH   9  10
ATOM     10  O   UNL     1      43.852   2.933  10.127  0.00  0.00    +0.000 OA
BRANCH  10  11
ATOM     11  C   UNL     1      44.770   2.986   9.113  0.00  0.00    +0.000 A 
ATOM     12  C   UNL     1      45.095   4.058   8.311  0.00  0.00    +0.000 A 
ATOM     13  N   UNL     1      46.042   4.017   7.343  0.00  0.00    +0.000 NA
ATOM     14  C   UNL     1      46.676   2.843   7.193  0.00  0.00    +0.000 A 
ATOM     15  N   UNL     1      46.450   1.731   7.906  0.00  0.00    +0.000 NA
ATOM     16  C   UNL     1      45.488   1.838   8.856  0.00  0.00    +0.000 A 
ENDBRANCH  10  11
ENDBRANCH   9  10
ENDBRANCH   6   9
ENDBRANCH   1   3
BRANCH   1  18
ATOM     17  C   UNL     1      48.057   3.149  16.254  0.00  0.00    +0.000 C 
ATOM     18  C   UNL     1      47.332   4.499  16.228  0.00  0.00    +0.000 C 
BRANCH  18  19
ATOM     19  C   UNL     1      47.722   5.367  17.408  0.00  0.00    +0.000 A 
ATOM     20  C   UNL     1      47.210   5.186  18.683  0.00  0.00    +0.000 A 
ATOM     21  S   UNL     1      47.491   6.528  19.703  0.00  0.00    +0.000 S 
ATOM     22  C   UNL     1      48.420   7.308  18.510  0.00  0.00    +0.000 A 
ATOM     23  N   UNL     1      48.902   8.567  18.688  0.00  0.00    +0.000 NA
ATOM     24  C   UNL     1      49.680   8.973  17.739  0.00  0.00    +0.000 A 
ATOM     25  N   UNL     1      50.051   8.220  16.651  0.00  0.00    +0.000 N 
ATOM     26  C   UNL     1      49.566   6.953  16.416  0.00  0.00    +0.000 A 
ATOM     27  O   UNL     1      49.948   6.271  15.469  0.00  0.00    +0.000 OA
ATOM     28  C   UNL     1      48.611   6.498  17.407  0.00  0.00    +0.000 A 
ATOM     29  H   UNL     1      50.733   8.569  15.994  0.00  0.00    +0.000 HD
ENDBRANCH  18  19
ENDBRANCH   1  18
TORSDOF 6
ENDMDL
MODEL 5
REMARK VINA RESULT:    -6.846      1.814      2.396
REMARK INTER + INTRA:         -10.105
REMARK INTER:                  -9.344
REMARK INTRA:                  -0.761
REMARK UNBOUND:                -0.858
REMARK  Name = 
REMARK  7 active torsions:
REMARK  status: ('A' for Active; 'I' for Inactive)
REMARK    1  A    between atoms: C_1  and  C_2
REMARK    2  A    between atoms: C_2  and  N_3
REMARK    3  A    between atoms: C_2  and  C_18
REMARK    4  A    between atoms: N_3  and  C_4
REMARK    5  A    between atoms: C_7  and  C_8
REMARK    6  A    between atoms: C_8  and  O_9
REMARK    7  A    between atoms: O_9  and  C_10
REMARK                            x       y       z     vdW  Elec       q    Type
REMARK                         _______ _______ _______ _____ _____    ______ ____
ROOT
ATOM      1  N   UNL     1      48.366   6.835  14.839  0.00  0.00    +0.000 N 
ATOM      2  H   UNL     1      47.995   7.777  14.998  0.00  0.00    +0.000 HD
ENDROOT
BRANCH   1   3
ATOM      3  C   UNL     1      47.462   6.022  14.155  0.00  0.00    +0.000 A 
ATOM      4  C   UNL     1      46.695   6.599  13.141  0.00  0.00    +0.000 A 
ATOM      5  C   UNL     1      45.763   5.845  12.420  0.00  0.00    +0.000 A 
ATOM      6  C   UNL     1      45.568   4.509  12.752  0.00  0.00    +0.000 A 
ATOM      7  N   UNL     1      46.270   3.918  13.750  0.00  0.00    +0.000 NA
ATOM      8  C   UNL     1      47.192   4.679  14.410  0.00  0.00    +0.000 A 
BRANCH   6   9
ATOM      9  C   UNL     1      44.549   3.675  11.995  0.00  0.00    +0.000 C 
BRANCH   9  10
ATOM     10  O   UNL     1      44.237   4.306  10.751  0.00  0.00    +0.000 OA
BRANCH  10  11
ATOM     11  C   UNL     1      44.923   3.878   9.647  0.00  0.00    +0.000 A 
ATOM     12  C   UNL     1      45.560   4.640   8.691  0.00  0.00    +0.000 A 
ATOM     13  N   UNL     1      46.238   4.120   7.639  0.00  0.00    +0.000 NA
ATOM     14  C   UNL     1      46.266   2.779   7.566  0.00  0.00    +0.000 A 
ATOM     15  N   UNL     1      45.687   1.933   8.428  0.00  0.00    +0.000 NA
ATOM     16  C   UNL     1      45.021   2.517   9.456  0.00  0.00    +0.000 A 
ENDBRANCH  10  11
ENDBRANCH   9  10
ENDBRANCH   6   9
ENDBRANCH   1   3
BRANCH   1  18
ATOM     17  C   UNL     1      50.574   6.876  15.847  0.00  0.00    +0.000 C 
ATOM     18  C   UNL     1      49.142   6.350  15.987  0.00  0.00    +0.000 C 
BRANCH  18  19
ATOM     19  C   UNL     1      48.592   6.587  17.380  0.00  0.00    +0.000 A 
ATOM     20  C   UNL     1      48.162   7.828  17.824  0.00  0.00    +0.000 A 
ATOM     21  S   UNL     1      47.986   7.897  19.522  0.00  0.00    +0.000 S 
ATOM     22  C   UNL     1      48.341   6.239  19.679  0.00  0.00    +0.000 A 
ATOM     23  N   UNL     1      48.457   5.646  20.896  0.00  0.00    +0.000 NA
ATOM     24  C   UNL     1      48.617   4.364  20.845  0.00  0.00    +0.000 A 
ATOM     25  N   UNL     1      48.630   3.620  19.690  0.00  0.00    +0.000 N 
ATOM     26  C   UNL     1      48.545   4.182  18.435  0.00  0.00    +0.000 A 
ATOM     27  O   UNL     1      48.504   3.501  17.414  0.00  0.00    +0.000 OA
ATOM     28  C   UNL     1      48.464   5.629  18.446  0.00  0.00    +0.000 A 
ATOM     29  H   UNL     1      48.671   2.612  19.729  0.00  0.00    +0.000 HD
ENDBRANCH  18  19
ENDBRANCH   1  18
TORSDOF 6
ENDMDL
MODEL 6
REMARK VINA RESULT:    -6.826      2.908      3.938
REMARK INTER + INTRA:         -10.078
REMARK INTER:                  -9.303
REMARK INTRA:                  -0.775
REMARK UNBOUND:                -0.858
REMARK  Name = 
REMARK  7 active torsions:
REMARK  status: ('A' for Active; 'I' for Inactive)
REMARK    1  A    between atoms: C_1  and  C_2
REMARK    2  A    between atoms: C_2  and  N_3
REMARK    3  A    between atoms: C_2  and  C_18
REMARK    4  A    between atoms: N_3  and  C_4
REMARK    5  A    between atoms: C_7  and  C_8
REMARK    6  A    between atoms: C_8  and  O_9
REMARK    7  A    between atoms: O_9  and  C_10
REMARK                            x       y       z     vdW  Elec       q    Type
REMARK                         _______ _______ _______ _____ _____    ______ ____
ROOT
ATOM      1  N   UNL     1      47.199   6.471  13.981  0.00  0.00    +0.000 N 
ATOM      2  H   UNL     1      47.612   5.798  14.634  0.00  0.00    +0.000 HD
ENDROOT
BRANCH   1   3
ATOM      3  C   UNL     1      46.452   5.846  12.982  0.00  0.00    +0.000 A 
ATOM      4  C   UNL     1      46.482   6.396  11.699  0.00  0.00    +0.000 A 
ATOM      5  C   UNL     1      45.751   5.827  10.651  0.00  0.00    +0.000 A 
ATOM      6  C   UNL     1      44.947   4.722  10.906  0.00  0.00    +0.000 A 
ATOM      7  N   UNL     1      44.864   4.177  12.144  0.00  0.00    +0.000 NA
ATOM      8  C   UNL     1      45.617   4.741  13.134  0.00  0.00    +0.000 A 
BRANCH   6   9
ATOM      9  C   UNL     1      44.129   4.099   9.787  0.00  0.00    +0.000 C 
BRANCH   9  10
ATOM     10  O   UNL     1      44.833   4.219   8.549  0.00  0.00    +0.000 OA
BRANCH  10  11
ATOM     11  C   UNL     1      45.636   3.173   8.184  0.00  0.00    +0.000 A 
ATOM     12  C   UNL     1      45.550   1.855   8.577  0.00  0.00    +0.000 A 
ATOM     13  N   UNL     1      46.383   0.880   8.140  0.00  0.00    +0.000 NA
ATOM     14  C   UNL     1      47.331   1.267   7.271  0.00  0.00    +0.000 A 
ATOM     15  N   UNL     1      47.518   2.513   6.816  0.00  0.00    +0.000 NA
ATOM     16  C   UNL     1      46.654   3.442   7.295  0.00  0.00    +0.000 A 
ENDBRANCH  10  11
ENDBRANCH   9  10
ENDBRANCH   6   9
ENDBRANCH   1   3
BRANCH   1  18
ATOM     17  C   UNL     1      47.404   8.887  14.104  0.00  0.00    +0.000 C 
ATOM     18  C   UNL     1      48.108   7.588  13.697  0.00  0.00    +0.000 C 
BRANCH  18  19
ATOM     19  C   UNL     1      49.522   7.523  14.241  0.00  0.00    +0.000 A 
ATOM     20  C   UNL     1      49.834   6.978  15.476  0.00  0.00    +0.000 A 
ATOM     21  S   UNL     1      51.402   7.400  16.006  0.00  0.00    +0.000 S 
ATOM     22  C   UNL     1      51.741   8.196  14.540  0.00  0.00    +0.000 A 
ATOM     23  N   UNL     1      52.901   8.880  14.350  0.00  0.00    +0.000 NA
ATOM     24  C   UNL     1      53.055   9.331  13.148  0.00  0.00    +0.000 A 
ATOM     25  N   UNL     1      52.176   9.125  12.113  0.00  0.00    +0.000 N 
ATOM     26  C   UNL     1      50.978   8.463  12.267  0.00  0.00    +0.000 A 
ATOM     27  O   UNL     1      50.228   8.239  11.321  0.00  0.00    +0.000 OA
ATOM     28  C   UNL     1      50.720   8.027  13.625  0.00  0.00    +0.000 A 
ATOM     29  H   UNL     1      52.403   9.431  11.178  0.00  0.00    +0.000 HD
ENDBRANCH  18  19
ENDBRANCH   1  18
TORSDOF 6
ENDMDL
MODEL 7
REMARK VINA RESULT:    -6.572      3.233      4.163
REMARK INTER + INTRA:          -9.736
REMARK INTER:                  -8.612
REMARK INTRA:                  -1.124
REMARK UNBOUND:                -0.858
REMARK  Name = 
REMARK  7 active torsions:
REMARK  status: ('A' for Active; 'I' for Inactive)
REMARK    1  A    between atoms: C_1  and  C_2
REMARK    2  A    between atoms: C_2  and  N_3
REMARK    3  A    between atoms: C_2  and  C_18
REMARK    4  A    between atoms: N_3  and  C_4
REMARK    5  A    between atoms: C_7  and  C_8
REMARK    6  A    between atoms: C_8  and  O_9
REMARK    7  A    between atoms: O_9  and  C_10
REMARK                            x       y       z     vdW  Elec       q    Type
REMARK                         _______ _______ _______ _____ _____    ______ ____
ROOT
ATOM      1  N   UNL     1      49.415   8.102  14.245  0.00  0.00    +0.000 N 
ATOM      2  H   UNL     1      49.496   9.031  14.667  0.00  0.00    +0.000 HD
ENDROOT
BRANCH   1   3
ATOM      3  C   UNL     1      48.229   7.949  13.527  0.00  0.00    +0.000 A 
ATOM      4  C   UNL     1      48.237   7.104  12.415  0.00  0.00    +0.000 A 
ATOM      5  C   UNL     1      47.086   6.911  11.644  0.00  0.00    +0.000 A 
ATOM      6  C   UNL     1      45.928   7.609  11.967  0.00  0.00    +0.000 A 
ATOM      7  N   UNL     1      45.886   8.463  13.019  0.00  0.00    +0.000 NA
ATOM      8  C   UNL     1      47.021   8.602  13.766  0.00  0.00    +0.000 A 
BRANCH   6   9
ATOM      9  C   UNL     1      44.671   7.430  11.133  0.00  0.00    +0.000 C 
BRANCH   9  10
ATOM     10  O   UNL     1      43.668   6.768  11.907  0.00  0.00    +0.000 OA
BRANCH  10  11
ATOM     11  C   UNL     1      43.596   5.406  11.799  0.00  0.00    +0.000 A 
ATOM     12  C   UNL     1      43.564   4.642  10.653  0.00  0.00    +0.000 A 
ATOM     13  N   UNL     1      43.516   3.287  10.649  0.00  0.00    +0.000 NA
ATOM     14  C   UNL     1      43.502   2.698  11.856  0.00  0.00    +0.000 A 
ATOM     15  N   UNL     1      43.528   3.329  13.038  0.00  0.00    +0.000 NA
ATOM     16  C   UNL     1      43.572   4.683  12.972  0.00  0.00    +0.000 A 
ENDBRANCH  10  11
ENDBRANCH   9  10
ENDBRANCH   6   9
ENDBRANCH   1   3
BRANCH   1  18
ATOM     17  C   UNL     1      51.390   7.396  15.469  0.00  0.00    +0.000 C 
ATOM     18  C   UNL     1      49.937   7.050  15.128  0.00  0.00    +0.000 C 
BRANCH  18  19
ATOM     19  C   UNL     1      49.141   6.692  16.368  0.00  0.00    +0.000 A 
ATOM     20  C   UNL     1      49.140   7.465  17.518  0.00  0.00    +0.000 A 
ATOM     21  S   UNL     1      48.508   6.635  18.871  0.00  0.00    +0.000 S 
ATOM     22  C   UNL     1      48.095   5.287  17.918  0.00  0.00    +0.000 A 
ATOM     23  N   UNL     1      47.590   4.151  18.468  0.00  0.00    +0.000 NA
ATOM     24  C   UNL     1      47.224   3.264  17.601  0.00  0.00    +0.000 A 
ATOM     25  N   UNL     1      47.279   3.427  16.238  0.00  0.00    +0.000 N 
ATOM     26  C   UNL     1      47.809   4.548  15.638  0.00  0.00    +0.000 A 
ATOM     27  O   UNL     1      47.802   4.704  14.420  0.00  0.00    +0.000 OA
ATOM     28  C   UNL     1      48.323   5.527  16.576  0.00  0.00    +0.000 A 
ATOM     29  H   UNL     1      46.894   2.728  15.622  0.00  0.00    +0.000 HD
ENDBRANCH  18  19
ENDBRANCH   1  18
TORSDOF 6
ENDMDL
MODEL 8
REMARK VINA RESULT:    -6.553      1.941      2.596
REMARK INTER + INTRA:          -9.710
REMARK INTER:                  -9.339
REMARK INTRA:                  -0.371
REMARK UNBOUND:                -0.858
REMARK  Name = 
REMARK  7 active torsions:
REMARK  status: ('A' for Active; 'I' for Inactive)
REMARK    1  A    between atoms: C_1  and  C_2
REMARK    2  A    between atoms: C_2  and  N_3
REMARK    3  A    between atoms: C_2  and  C_18
REMARK    4  A    between atoms: N_3  and  C_4
REMARK    5  A    between atoms: C_7  and  C_8
REMARK    6  A    between atoms: C_8  and  O_9
REMARK    7  A    between atoms: O_9  and  C_10
REMARK                            x       y       z     vdW  Elec       q    Type
REMARK                         _______ _______ _______ _____ _____    ______ ____
ROOT
ATOM      1  N   UNL     1      47.661   5.351  14.616  0.00  0.00    +0.000 N 
ATOM      2  H   UNL     1      48.032   6.289  14.437  0.00  0.00    +0.000 HD
ENDROOT
BRANCH   1   3
ATOM      3  C   UNL     1      46.614   5.025  13.753  0.00  0.00    +0.000 A 
ATOM      4  C   UNL     1      46.519   3.706  13.304  0.00  0.00    +0.000 A 
ATOM      5  C   UNL     1      45.500   3.310  12.431  0.00  0.00    +0.000 A 
ATOM      6  C   UNL     1      44.596   4.260  11.969  0.00  0.00    +0.000 A 
ATOM      7  N   UNL     1      44.672   5.557  12.355  0.00  0.00    +0.000 NA
ATOM      8  C   UNL     1      45.662   5.898  13.232  0.00  0.00    +0.000 A 
BRANCH   6   9
ATOM      9  C   UNL     1      43.492   3.857  11.006  0.00  0.00    +0.000 C 
BRANCH   9  10
ATOM     10  O   UNL     1      43.788   4.351   9.698  0.00  0.00    +0.000 OA
BRANCH  10  11
ATOM     11  C   UNL     1      44.763   3.700   8.992  0.00  0.00    +0.000 A 
ATOM     12  C   UNL     1      45.008   2.346   8.926  0.00  0.00    +0.000 A 
ATOM     13  N   UNL     1      45.990   1.792   8.175  0.00  0.00    +0.000 NA
ATOM     14  C   UNL     1      46.743   2.652   7.469  0.00  0.00    +0.000 A 
ATOM     15  N   UNL     1      46.606   3.985   7.452  0.00  0.00    +0.000 NA
ATOM     16  C   UNL     1      45.608   4.475   8.227  0.00  0.00    +0.000 A 
ENDBRANCH  10  11
ENDBRANCH   9  10
ENDBRANCH   6   9
ENDBRANCH   1   3
BRANCH   1  18
ATOM     17  C   UNL     1      47.764   3.525  16.212  0.00  0.00    +0.000 C 
ATOM     18  C   UNL     1      47.618   5.042  16.050  0.00  0.00    +0.000 C 
BRANCH  18  19
ATOM     19  C   UNL     1      48.551   5.796  16.978  0.00  0.00    +0.000 A 
ATOM     20  C   UNL     1      49.703   6.431  16.541  0.00  0.00    +0.000 A 
ATOM     21  S   UNL     1      50.759   6.837  17.822  0.00  0.00    +0.000 S 
ATOM     22  C   UNL     1      49.638   6.303  18.986  0.00  0.00    +0.000 A 
ATOM     23  N   UNL     1      49.941   6.276  20.311  0.00  0.00    +0.000 NA
ATOM     24  C   UNL     1      48.947   5.953  21.072  0.00  0.00    +0.000 A 
ATOM     25  N   UNL     1      47.671   5.695  20.632  0.00  0.00    +0.000 N 
ATOM     26  C   UNL     1      47.326   5.683  19.299  0.00  0.00    +0.000 A 
ATOM     27  O   UNL     1      46.171   5.505  18.923  0.00  0.00    +0.000 OA
ATOM     28  C   UNL     1      48.437   5.943  18.404  0.00  0.00    +0.000 A 
ATOM     29  H   UNL     1      46.924   5.536  21.291  0.00  0.00    +0.000 HD
ENDBRANCH  18  19
ENDBRANCH   1  18
TORSDOF 6
ENDMDL
MODEL 9
REMARK VINA RESULT:    -6.237      2.782      8.974
REMARK INTER + INTRA:          -9.283
REMARK INTER:                  -8.442
REMARK INTRA:                  -0.841
REMARK UNBOUND:                -0.858
REMARK  Name = 
REMARK  7 active torsions:
REMARK  status: ('A' for Active; 'I' for Inactive)
REMARK    1  A    between atoms: C_1  and  C_2
REMARK    2  A    between atoms: C_2  and  N_3
REMARK    3  A    between atoms: C_2  and  C_18
REMARK    4  A    between atoms: N_3  and  C_4
REMARK    5  A    between atoms: C_7  and  C_8
REMARK    6  A    between atoms: C_8  and  O_9
REMARK    7  A    between atoms: O_9  and  C_10
REMARK                            x       y       z     vdW  Elec       q    Type
REMARK                         _______ _______ _______ _____ _____    ______ ____
ROOT
ATOM      1  N   UNL     1      46.803   6.429  11.598  0.00  0.00    +0.000 N 
ATOM      2  H   UNL     1      47.124   5.767  10.884  0.00  0.00    +0.000 HD
ENDROOT
BRANCH   1   3
ATOM      3  C   UNL     1      47.734   6.590  12.624  0.00  0.00    +0.000 A 
ATOM      4  C   UNL     1      47.428   6.060  13.879  0.00  0.00    +0.000 A 
ATOM      5  C   UNL     1      48.311   6.192  14.956  0.00  0.00    +0.000 A 
ATOM      6  C   UNL     1      49.492   6.905  14.782  0.00  0.00    +0.000 A 
ATOM      7  N   UNL     1      49.812   7.463  13.588  0.00  0.00    +0.000 NA
ATOM      8  C   UNL     1      48.940   7.285  12.553  0.00  0.00    +0.000 A 
BRANCH   6   9
ATOM      9  C   UNL     1      50.457   7.077  15.942  0.00  0.00    +0.000 C 
BRANCH   9  10
ATOM     10  O   UNL     1      50.717   5.809  16.547  0.00  0.00    +0.000 OA
BRANCH  10  11
ATOM     11  C   UNL     1      50.106   5.554  17.745  0.00  0.00    +0.000 A 
ATOM     12  C   UNL     1      49.517   4.383  18.169  0.00  0.00    +0.000 A 
ATOM     13  N   UNL     1      48.955   4.219  19.391  0.00  0.00    +0.000 NA
ATOM     14  C   UNL     1      49.000   5.287  20.204  0.00  0.00    +0.000 A 
ATOM     15  N   UNL     1      49.541   6.477  19.908  0.00  0.00    +0.000 NA
ATOM     16  C   UNL     1      50.083   6.576  18.669  0.00  0.00    +0.000 A 
ENDBRANCH  10  11
ENDBRANCH   9  10
ENDBRANCH   6   9
ENDBRANCH   1   3
BRANCH   1  18
ATOM     17  C   UNL     1      44.670   7.557  11.331  0.00  0.00    +0.000 C 
ATOM     18  C   UNL     1      45.364   6.298  11.860  0.00  0.00    +0.000 C 
BRANCH  18  19
ATOM     19  C   UNL     1      44.660   5.036  11.400  0.00  0.00    +0.000 A 
ATOM     20  C   UNL     1      43.662   4.415  12.135  0.00  0.00    +0.000 A 
ATOM     21  S   UNL     1      43.343   2.823  11.600  0.00  0.00    +0.000 S 
ATOM     22  C   UNL     1      44.425   2.988  10.296  0.00  0.00    +0.000 A 
ATOM     23  N   UNL     1      44.712   1.947   9.471  0.00  0.00    +0.000 NA
ATOM     24  C   UNL     1      45.462   2.262   8.466  0.00  0.00    +0.000 A 
ATOM     25  N   UNL     1      45.915   3.530   8.192  0.00  0.00    +0.000 N 
ATOM     26  C   UNL     1      45.673   4.607   9.015  0.00  0.00    +0.000 A 
ATOM     27  O   UNL     1      46.038   5.744   8.729  0.00  0.00    +0.000 OA
ATOM     28  C   UNL     1      44.918   4.275  10.207  0.00  0.00    +0.000 A 
ATOM     29  H   UNL     1      46.424   3.720   7.341  0.00  0.00    +0.000 HD
ENDBRANCH  18  19
ENDBRANCH   1  18
TORSDOF 6
ENDMDL
