MODEL 1
REMARK VINA RESULT:    -8.633      0.000      0.000
REMARK INTER + INTRA:         -13.290
REMARK INTER:                 -12.166
REMARK INTRA:                  -1.124
REMARK UNBOUND:                -1.124
REMARK  Name = 
REMARK  8 active torsions:
REMARK  status: ('A' for Active; 'I' for Inactive)
REMARK    1  A    between atoms: C_1  and  C_2
REMARK    2  A    between atoms: C_2  and  N_3
REMARK    3  A    between atoms: C_2  and  C_16
REMARK    4  A    between atoms: C_4  and  C_6
REMARK    5  A    between atoms: C_19  and  C_20
REMARK    6  A    between atoms: C_20  and  N_21
REMARK    7  A    between atoms: N_21  and  C_22
REMARK    8  A    between atoms: C_22  and  C_23
REMARK                            x       y       z     vdW  Elec       q    Type
REMARK                         _______ _______ _______ _____ _____    ______ ____
ROOT
ATOM      1  C   UNL     1      46.145   8.873  13.113  0.00  0.00    +0.000 C 
ATOM      2  C   UNL     1      46.893   7.540  13.114  0.00  0.00    +0.000 C 
ENDROOT
BRANCH   2   3
ATOM      3  C   UNL     1      45.959   6.427  12.656  0.00  0.00    +0.000 A 
ATOM      4  C   UNL     1      44.784   6.723  11.958  0.00  0.00    +0.000 A 
ATOM      5  C   UNL     1      43.975   5.695  11.460  0.00  0.00    +0.000 A 
ATOM      6  C   UNL     1      44.328   4.349  11.635  0.00  0.00    +0.000 A 
ATOM      7  C   UNL     1      45.479   4.053  12.376  0.00  0.00    +0.000 A 
ATOM      8  C   UNL     1      46.279   5.078  12.887  0.00  0.00    +0.000 A 
BRANCH   6   9
ATOM      9  C   UNL     1      43.496   3.236  11.029  0.00  0.00    +0.000 C 
BRANCH   9  10
ATOM     10  N   UNL     1      44.282   2.459  10.067  0.00  0.00    +0.000 NA
ATOM     11  H   UNL     1      43.746   1.631   9.808  0.00  0.00    +0.000 HD
BRANCH  10  12
ATOM     12  C   UNL     1      44.595   3.221   8.861  0.00  0.00    +0.000 C 
BRANCH  12  13
ATOM     13  C   UNL     1      45.772   2.620   8.123  0.00  0.00    +0.000 A 
ATOM     14  C   UNL     1      46.062   1.257   8.240  0.00  0.00    +0.000 A 
ATOM     15  C   UNL     1      47.147   0.739   7.547  0.00  0.00    +0.000 A 
ATOM     16  N   UNL     1      47.954   1.472   6.755  0.00  0.00    +0.000 NA
ATOM     17  C   UNL     1      47.658   2.786   6.645  0.00  0.00    +0.000 A 
ATOM     18  C   UNL     1      46.592   3.395   7.293  0.00  0.00    +0.000 A 
ENDBRANCH  12  13
ENDBRANCH  10  12
ENDBRANCH   9  10
ENDBRANCH   6   9
ENDBRANCH   2   3
BRANCH   2  19
ATOM     19  N   UNL     1      47.417   7.207  14.427  0.00  0.00    +0.000 N 
ATOM     20  C   UNL     1      48.731   6.900  14.668  0.00  0.00    +0.000 C 
ATOM     21  O   UNL     1      49.595   6.907  13.797  0.00  0.00    +0.000 OA
ATOM     22  H   UNL     1      46.728   6.837  15.076  0.00  0.00    +0.000 HD
BRANCH  20  23
ATOM     23  C   UNL     1      49.069   6.637  16.069  0.00  0.00    +0.000 A 
ATOM     24  C   UNL     1      49.748   7.585  16.821  0.00  0.00    +0.000 A 
ATOM     25  S   UNL     1      50.006   7.105  18.441  0.00  0.00    +0.000 S 
ATOM     26  C   UNL     1      49.257   5.599  18.169  0.00  0.00    +0.000 A 
ATOM     27  N   UNL     1      49.161   4.672  19.160  0.00  0.00    +0.000 NA
ATOM     28  C   UNL     1      48.600   3.565  18.800  0.00  0.00    +0.000 A 
ATOM     29  N   UNL     1      48.121   3.305  17.541  0.00  0.00    +0.000 N 
ATOM     30  C   UNL     1      48.162   4.219  16.527  0.00  0.00    +0.000 A 
ATOM     31  O   UNL     1      47.669   3.977  15.431  0.00  0.00    +0.000 OA
ATOM     32  C   UNL     1      48.801   5.476  16.875  0.00  0.00    +0.000 A 
ATOM     33  H   UNL     1      47.677   2.422  17.324  0.00  0.00    +0.000 HD
ENDBRANCH  20  23
ENDBRANCH   2  19
TORSDOF 7
ENDMDL
MODEL 2
REMARK VINA RESULT:    -7.945      2.166      2.778
REMARK INTER + INTRA:         -12.320
REMARK INTER:                 -11.074
REMARK INTRA:                  -1.246
REMARK UNBOUND:                -1.124
REMARK  Name = 
REMARK  8 active torsions:
REMARK  status: ('A' for Active; 'I' for Inactive)
REMARK    1  A    between atoms: C_1  and  C_2
REMARK    2  A    between atoms: C_2  and  N_3
REMARK    3  A    between atoms: C_2  and  C_16
REMARK    4  A    between atoms: C_4  and  C_6
REMARK    5  A    between atoms: C_19  and  C_20
REMARK    6  A    between atoms: C_20  and  N_21
REMARK    7  A    between atoms: N_21  and  C_22
REMARK    8  A    between atoms: C_22  and  C_23
REMARK                            x       y       z     vdW  Elec       q    Type
REMARK                         _______ _______ _______ _____ _____    ______ ____
ROOT
ATOM      1  C   UNL     1      48.671   8.761  13.552  0.00  0.00    +0.000 C 
ATOM      2  C   UNL     1      48.580   7.274  13.897  0.00  0.00    +0.000 C 
ENDROOT
BRANCH   2   3
ATOM      3  C   UNL     1      47.481   6.621  13.067  0.00  0.00    +0.000 A 
ATOM      4  C   UNL     1      47.208   7.065  11.768  0.00  0.00    +0.000 A 
ATOM      5  C   UNL     1      46.261   6.405  10.977  0.00  0.00    +0.000 A 
ATOM      6  C   UNL     1      45.576   5.279  11.457  0.00  0.00    +0.000 A 
ATOM      7  C   UNL     1      45.816   4.864  12.774  0.00  0.00    +0.000 A 
ATOM      8  C   UNL     1      46.749   5.532  13.570  0.00  0.00    +0.000 A 
BRANCH   6   9
ATOM      9  C   UNL     1      44.610   4.515  10.575  0.00  0.00    +0.000 C 
BRANCH   9  10
ATOM     10  N   UNL     1      44.967   4.658   9.161  0.00  0.00    +0.000 NA
ATOM     11  H   UNL     1      45.976   4.790   9.095  0.00  0.00    +0.000 HD
BRANCH  10  12
ATOM     12  C   UNL     1      44.587   3.489   8.371  0.00  0.00    +0.000 C 
BRANCH  12  13
ATOM     13  C   UNL     1      45.805   2.792   7.804  0.00  0.00    +0.000 A 
ATOM     14  C   UNL     1      46.057   1.449   8.102  0.00  0.00    +0.000 A 
ATOM     15  C   UNL     1      47.181   0.840   7.562  0.00  0.00    +0.000 A 
ATOM     16  N   UNL     1      48.063   1.466   6.757  0.00  0.00    +0.000 NA
ATOM     17  C   UNL     1      47.803   2.761   6.472  0.00  0.00    +0.000 A 
ATOM     18  C   UNL     1      46.703   3.455   6.958  0.00  0.00    +0.000 A 
ENDBRANCH  12  13
ENDBRANCH  10  12
ENDBRANCH   9  10
ENDBRANCH   6   9
ENDBRANCH   2   3
BRANCH   2  19
ATOM     19  N   UNL     1      48.302   7.054  15.305  0.00  0.00    +0.000 N 
ATOM     20  C   UNL     1      49.233   6.601  16.204  0.00  0.00    +0.000 C 
ATOM     21  O   UNL     1      50.400   6.367  15.905  0.00  0.00    +0.000 OA
ATOM     22  H   UNL     1      47.325   6.877  15.521  0.00  0.00    +0.000 HD
BRANCH  20  23
ATOM     23  C   UNL     1      48.767   6.487  17.588  0.00  0.00    +0.000 A 
ATOM     24  C   UNL     1      48.777   5.260  18.237  0.00  0.00    +0.000 A 
ATOM     25  S   UNL     1      48.239   5.348  19.857  0.00  0.00    +0.000 S 
ATOM     26  C   UNL     1      47.936   7.019  19.721  0.00  0.00    +0.000 A 
ATOM     27  N   UNL     1      47.427   7.729  20.765  0.00  0.00    +0.000 NA
ATOM     28  C   UNL     1      47.217   8.977  20.505  0.00  0.00    +0.000 A 
ATOM     29  N   UNL     1      47.476   9.580  19.301  0.00  0.00    +0.000 N 
ATOM     30  C   UNL     1      48.021   8.916  18.240  0.00  0.00    +0.000 A 
ATOM     31  O   UNL     1      48.298   9.498  17.197  0.00  0.00    +0.000 OA
ATOM     32  C   UNL     1      48.260   7.502  18.473  0.00  0.00    +0.000 A 
ATOM     33  H   UNL     1      47.304  10.568  19.164  0.00  0.00    +0.000 HD
ENDBRANCH  20  23
ENDBRANCH   2  19
TORSDOF 7
ENDMDL
MODEL 3
REMARK VINA RESULT:    -7.663      3.290      7.747
REMARK INTER + INTRA:         -11.923
REMARK INTER:                 -10.296
REMARK INTRA:                  -1.627
REMARK UNBOUND:                -1.124
REMARK  Name = 
REMARK  8 active torsions:
REMARK  status: ('A' for Active; 'I' for Inactive)
REMARK    1  A    between atoms: C_1  and  C_2
REMARK    2  A    between atoms: C_2  and  N_3
REMARK    3  A    between atoms: C_2  and  C_16
REMARK    4  A    between atoms: C_4  and  C_6
REMARK    5  A    between atoms: C_19  and  C_20
REMARK    6  A    between atoms: C_20  and  N_21
REMARK    7  A    between atoms: N_21  and  C_22
REMARK    8  A    between atoms: C_22  and  C_23
REMARK                            x       y       z     vdW  Elec       q    Type
REMARK                         _______ _______ _______ _____ _____    ______ ____
ROOT
ATOM      1  C   UNL     1      49.500   8.379  11.435  0.00  0.00    +0.000 C 
ATOM      2  C   UNL     1      48.160   8.135  12.131  0.00  0.00    +0.000 C 
ENDROOT
BRANCH   2   3
ATOM      3  C   UNL     1      48.393   7.874  13.614  0.00  0.00    +0.000 A 
ATOM      4  C   UNL     1      48.462   8.935  14.524  0.00  0.00    +0.000 A 
ATOM      5  C   UNL     1      48.586   8.687  15.896  0.00  0.00    +0.000 A 
ATOM      6  C   UNL     1      48.629   7.375  16.392  0.00  0.00    +0.000 A 
ATOM      7  C   UNL     1      48.608   6.315  15.477  0.00  0.00    +0.000 A 
ATOM      8  C   UNL     1      48.501   6.562  14.106  0.00  0.00    +0.000 A 
BRANCH   6   9
ATOM      9  C   UNL     1      48.682   7.104  17.882  0.00  0.00    +0.000 C 
BRANCH   9  10
ATOM     10  N   UNL     1      47.714   6.072  18.262  0.00  0.00    +0.000 NA
ATOM     11  H   UNL     1      47.280   5.710  17.413  0.00  0.00    +0.000 HD
BRANCH  10  12
ATOM     12  C   UNL     1      48.335   4.967  18.987  0.00  0.00    +0.000 C 
BRANCH  12  13
ATOM     13  C   UNL     1      48.784   3.874  18.040  0.00  0.00    +0.000 A 
ATOM     14  C   UNL     1      50.122   3.469  18.007  0.00  0.00    +0.000 A 
ATOM     15  C   UNL     1      50.498   2.462  17.130  0.00  0.00    +0.000 A 
ATOM     16  N   UNL     1      49.647   1.837  16.291  0.00  0.00    +0.000 NA
ATOM     17  C   UNL     1      48.356   2.234  16.339  0.00  0.00    +0.000 A 
ATOM     18  C   UNL     1      47.882   3.227  17.186  0.00  0.00    +0.000 A 
ENDBRANCH  12  13
ENDBRANCH  10  12
ENDBRANCH   9  10
ENDBRANCH   6   9
ENDBRANCH   2   3
BRANCH   2  19
ATOM     19  N   UNL     1      47.442   7.009  11.560  0.00  0.00    +0.000 N 
ATOM     20  C   UNL     1      46.081   6.974  11.404  0.00  0.00    +0.000 C 
ATOM     21  O   UNL     1      45.343   7.906  11.708  0.00  0.00    +0.000 OA
ATOM     22  H   UNL     1      47.924   6.118  11.637  0.00  0.00    +0.000 HD
BRANCH  20  23
ATOM     23  C   UNL     1      45.552   5.766  10.766  0.00  0.00    +0.000 A 
ATOM     24  C   UNL     1      45.769   5.529   9.416  0.00  0.00    +0.000 A 
ATOM     25  S   UNL     1      45.112   4.047   8.875  0.00  0.00    +0.000 S 
ATOM     26  C   UNL     1      44.481   3.702  10.420  0.00  0.00    +0.000 A 
ATOM     27  N   UNL     1      43.764   2.569  10.651  0.00  0.00    +0.000 NA
ATOM     28  C   UNL     1      43.320   2.458  11.860  0.00  0.00    +0.000 A 
ATOM     29  N   UNL     1      43.534   3.374  12.859  0.00  0.00    +0.000 N 
ATOM     30  C   UNL     1      44.277   4.506  12.682  0.00  0.00    +0.000 A 
ATOM     31  O   UNL     1      44.501   5.274  13.611  0.00  0.00    +0.000 OA
ATOM     32  C   UNL     1      44.785   4.688  11.333  0.00  0.00    +0.000 A 
ATOM     33  H   UNL     1      43.172   3.223  13.791  0.00  0.00    +0.000 HD
ENDBRANCH  20  23
ENDBRANCH   2  19
TORSDOF 7
ENDMDL
MODEL 4
REMARK VINA RESULT:    -7.548      2.859      8.116
REMARK INTER + INTRA:         -11.761
REMARK INTER:                 -10.260
REMARK INTRA:                  -1.501
REMARK UNBOUND:                -1.124
REMARK  Name = 
REMARK  8 active torsions:
REMARK  status: ('A' for Active; 'I' for Inactive)
REMARK    1  A    between atoms: C_1  and  C_2
REMARK    2  A    between atoms: C_2  and  N_3
REMARK    3  A    between atoms: C_2  and  C_16
REMARK    4  A    between atoms: C_4  and  C_6
REMARK    5  A    between atoms: C_19  and  C_20
REMARK    6  A    between atoms: C_20  and  N_21
REMARK    7  A    between atoms: N_21  and  C_22
REMARK    8  A    between atoms: C_22  and  C_23
REMARK                            x       y       z     vdW  Elec       q    Type
REMARK                         _______ _______ _______ _____ _____    ______ ____
ROOT
ATOM      1  C   UNL     1      49.060   7.823  11.378  0.00  0.00    +0.000 C 
ATOM      2  C   UNL     1      47.894   7.831  12.367  0.00  0.00    +0.000 C 
ENDROOT
BRANCH   2   3
ATOM      3  C   UNL     1      48.429   7.885  13.792  0.00  0.00    +0.000 A 
ATOM      4  C   UNL     1      47.879   8.766  14.729  0.00  0.00    +0.000 A 
ATOM      5  C   UNL     1      48.311   8.749  16.060  0.00  0.00    +0.000 A 
ATOM      6  C   UNL     1      49.293   7.843  16.489  0.00  0.00    +0.000 A 
ATOM      7  C   UNL     1      49.877   6.995  15.540  0.00  0.00    +0.000 A 
ATOM      8  C   UNL     1      49.457   7.022  14.209  0.00  0.00    +0.000 A 
BRANCH   6   9
ATOM      9  C   UNL     1      49.706   7.768  17.945  0.00  0.00    +0.000 C 
BRANCH   9  10
ATOM     10  N   UNL     1      50.277   6.457  18.261  0.00  0.00    +0.000 NA
ATOM     11  H   UNL     1      50.976   6.578  18.994  0.00  0.00    +0.000 HD
BRANCH  10  12
ATOM     12  C   UNL     1      49.267   5.507  18.720  0.00  0.00    +0.000 C 
BRANCH  12  13
ATOM     13  C   UNL     1      49.257   4.260  17.862  0.00  0.00    +0.000 A 
ATOM     14  C   UNL     1      50.364   3.405  17.841  0.00  0.00    +0.000 A 
ATOM     15  C   UNL     1      50.321   2.269  17.045  0.00  0.00    +0.000 A 
ATOM     16  N   UNL     1      49.267   1.927  16.278  0.00  0.00    +0.000 NA
ATOM     17  C   UNL     1      48.202   2.758  16.313  0.00  0.00    +0.000 A 
ATOM     18  C   UNL     1      48.148   3.914  17.081  0.00  0.00    +0.000 A 
ENDBRANCH  12  13
ENDBRANCH  10  12
ENDBRANCH   9  10
ENDBRANCH   6   9
ENDBRANCH   2   3
BRANCH   2  19
ATOM     19  N   UNL     1      47.046   6.661  12.224  0.00  0.00    +0.000 N 
ATOM     20  C   UNL     1      45.750   6.709  11.780  0.00  0.00    +0.000 C 
ATOM     21  O   UNL     1      45.194   7.746  11.433  0.00  0.00    +0.000 OA
ATOM     22  H   UNL     1      47.305   5.876  12.815  0.00  0.00    +0.000 HD
BRANCH  20  23
ATOM     23  C   UNL     1      45.077   5.412  11.664  0.00  0.00    +0.000 A 
ATOM     24  C   UNL     1      44.399   4.870  12.747  0.00  0.00    +0.000 A 
ATOM     25  S   UNL     1      43.646   3.377  12.394  0.00  0.00    +0.000 S 
ATOM     26  C   UNL     1      44.243   3.392  10.798  0.00  0.00    +0.000 A 
ATOM     27  N   UNL     1      43.985   2.369   9.940  0.00  0.00    +0.000 NA
ATOM     28  C   UNL     1      44.531   2.501   8.776  0.00  0.00    +0.000 A 
ATOM     29  N   UNL     1      45.305   3.566   8.391  0.00  0.00    +0.000 N 
ATOM     30  C   UNL     1      45.559   4.632   9.207  0.00  0.00    +0.000 A 
ATOM     31  O   UNL     1      46.204   5.597   8.811  0.00  0.00    +0.000 OA
ATOM     32  C   UNL     1      44.983   4.524  10.535  0.00  0.00    +0.000 A 
ATOM     33  H   UNL     1      45.693   3.619   7.459  0.00  0.00    +0.000 HD
ENDBRANCH  20  23
ENDBRANCH   2  19
TORSDOF 7
ENDMDL
MODEL 5
REMARK VINA RESULT:    -7.239      2.264      3.269
REMARK INTER + INTRA:         -11.325
REMARK INTER:                 -10.081
REMARK INTRA:                  -1.244
REMARK UNBOUND:                -1.124
REMARK  Name = 
REMARK  8 active torsions:
REMARK  status: ('A' for Active; 'I' for Inactive)
REMARK    1  A    between atoms: C_1  and  C_2
REMARK    2  A    between atoms: C_2  and  N_3
REMARK    3  A    between atoms: C_2  and  C_16
REMARK    4  A    between atoms: C_4  and  C_6
REMARK    5  A    between atoms: C_19  and  C_20
REMARK    6  A    between atoms: C_20  and  N_21
REMARK    7  A    between atoms: N_21  and  C_22
REMARK    8  A    between atoms: C_22  and  C_23
REMARK                            x       y       z     vdW  Elec       q    Type
REMARK                         _______ _______ _______ _____ _____    ______ ____
ROOT
ATOM      1  C   UNL     1      47.885   3.121  16.151  0.00  0.00    +0.000 C 
ATOM      2  C   UNL     1      47.440   4.562  15.898  0.00  0.00    +0.000 C 
ENDROOT
BRANCH   2   3
ATOM      3  C   UNL     1      46.943   4.701  14.465  0.00  0.00    +0.000 A 
ATOM      4  C   UNL     1      46.350   3.618  13.806  0.00  0.00    +0.000 A 
ATOM      5  C   UNL     1      45.814   3.775  12.522  0.00  0.00    +0.000 A 
ATOM      6  C   UNL     1      45.845   5.019  11.874  0.00  0.00    +0.000 A 
ATOM      7  C   UNL     1      46.481   6.089  12.514  0.00  0.00    +0.000 A 
ATOM      8  C   UNL     1      47.031   5.930  13.788  0.00  0.00    +0.000 A 
BRANCH   6   9
ATOM      9  C   UNL     1      45.195   5.210  10.518  0.00  0.00    +0.000 C 
BRANCH   9  10
ATOM     10  N   UNL     1      44.932   3.919   9.876  0.00  0.00    +0.000 NA
ATOM     11  H   UNL     1      44.028   3.576  10.202  0.00  0.00    +0.000 HD
BRANCH  10  12
ATOM     12  C   UNL     1      44.905   4.019   8.419  0.00  0.00    +0.000 C 
BRANCH  12  13
ATOM     13  C   UNL     1      45.887   3.056   7.786  0.00  0.00    +0.000 A 
ATOM     14  C   UNL     1      46.023   1.754   8.279  0.00  0.00    +0.000 A 
ATOM     15  C   UNL     1      46.930   0.897   7.673  0.00  0.00    +0.000 A 
ATOM     16  N   UNL     1      47.704   1.239   6.624  0.00  0.00    +0.000 NA
ATOM     17  C   UNL     1      47.558   2.497   6.154  0.00  0.00    +0.000 A 
ATOM     18  C   UNL     1      46.674   3.425   6.688  0.00  0.00    +0.000 A 
ENDBRANCH  12  13
ENDBRANCH  10  12
ENDBRANCH   9  10
ENDBRANCH   6   9
ENDBRANCH   2   3
BRANCH   2  19
ATOM     19  N   UNL     1      48.513   5.514  16.122  0.00  0.00    +0.000 N 
ATOM     20  C   UNL     1      48.653   6.248  17.272  0.00  0.00    +0.000 C 
ATOM     21  O   UNL     1      47.899   6.144  18.233  0.00  0.00    +0.000 OA
ATOM     22  H   UNL     1      48.921   5.898  15.274  0.00  0.00    +0.000 HD
BRANCH  20  23
ATOM     23  C   UNL     1      49.828   7.121  17.320  0.00  0.00    +0.000 A 
ATOM     24  C   UNL     1      49.680   8.498  17.411  0.00  0.00    +0.000 A 
ATOM     25  S   UNL     1      51.168   9.334  17.500  0.00  0.00    +0.000 S 
ATOM     26  C   UNL     1      52.051   7.883  17.375  0.00  0.00    +0.000 A 
ATOM     27  N   UNL     1      53.412   7.886  17.361  0.00  0.00    +0.000 NA
ATOM     28  C   UNL     1      53.945   6.716  17.226  0.00  0.00    +0.000 A 
ATOM     29  N   UNL     1      53.240   5.545  17.110  0.00  0.00    +0.000 N 
ATOM     30  C   UNL     1      51.876   5.490  17.156  0.00  0.00    +0.000 A 
ATOM     31  O   UNL     1      51.279   4.421  17.111  0.00  0.00    +0.000 OA
ATOM     32  C   UNL     1      51.227   6.783  17.288  0.00  0.00    +0.000 A 
ATOM     33  H   UNL     1      53.716   4.656  17.022  0.00  0.00    +0.000 HD
ENDBRANCH  20  23
ENDBRANCH   2  19
TORSDOF 7
ENDMDL
MODEL 6
REMARK VINA RESULT:    -7.226      1.873      3.594
REMARK INTER + INTRA:         -11.306
REMARK INTER:                 -10.552
REMARK INTRA:                  -0.754
REMARK UNBOUND:                -1.124
REMARK  Name = 
REMARK  8 active torsions:
REMARK  status: ('A' for Active; 'I' for Inactive)
REMARK    1  A    between atoms: C_1  and  C_2
REMARK    2  A    between atoms: C_2  and  N_3
REMARK    3  A    between atoms: C_2  and  C_16
REMARK    4  A    between atoms: C_4  and  C_6
REMARK    5  A    between atoms: C_19  and  C_20
REMARK    6  A    between atoms: C_20  and  N_21
REMARK    7  A    between atoms: N_21  and  C_22
REMARK    8  A    between atoms: C_22  and  C_23
REMARK                            x       y       z     vdW  Elec       q    Type
REMARK                         _______ _______ _______ _____ _____    ______ ____
ROOT
ATOM      1  C   UNL     1      47.627   3.309  14.888  0.00  0.00    +0.000 C 
ATOM      2  C   UNL     1      46.778   4.580  14.921  0.00  0.00    +0.000 C 
ENDROOT
BRANCH   2   3
ATOM      3  C   UNL     1      45.942   4.671  13.651  0.00  0.00    +0.000 A 
ATOM      4  C   UNL     1      45.469   5.907  13.194  0.00  0.00    +0.000 A 
ATOM      5  C   UNL     1      44.779   5.999  11.980  0.00  0.00    +0.000 A 
ATOM      6  C   UNL     1      44.556   4.862  11.188  0.00  0.00    +0.000 A 
ATOM      7  C   UNL     1      44.987   3.619  11.669  0.00  0.00    +0.000 A 
ATOM      8  C   UNL     1      45.662   3.525  12.888  0.00  0.00    +0.000 A 
BRANCH   6   9
ATOM      9  C   UNL     1      43.879   4.971   9.836  0.00  0.00    +0.000 C 
BRANCH   9  10
ATOM     10  N   UNL     1      44.824   4.690   8.753  0.00  0.00    +0.000 NA
ATOM     11  H   UNL     1      45.763   4.646   9.148  0.00  0.00    +0.000 HD
BRANCH  10  12
ATOM     12  C   UNL     1      44.533   3.429   8.075  0.00  0.00    +0.000 C 
BRANCH  12  13
ATOM     13  C   UNL     1      45.806   2.734   7.641  0.00  0.00    +0.000 A 
ATOM     14  C   UNL     1      46.763   3.415   6.882  0.00  0.00    +0.000 A 
ATOM     15  C   UNL     1      47.920   2.749   6.504  0.00  0.00    +0.000 A 
ATOM     16  N   UNL     1      48.189   1.467   6.823  0.00  0.00    +0.000 NA
ATOM     17  C   UNL     1      47.259   0.823   7.562  0.00  0.00    +0.000 A 
ATOM     18  C   UNL     1      46.075   1.405   7.994  0.00  0.00    +0.000 A 
ENDBRANCH  12  13
ENDBRANCH  10  12
ENDBRANCH   9  10
ENDBRANCH   6   9
ENDBRANCH   2   3
BRANCH   2  19
ATOM     19  N   UNL     1      47.590   5.778  15.039  0.00  0.00    +0.000 N 
ATOM     20  C   UNL     1      48.641   5.904  15.910  0.00  0.00    +0.000 C 
ATOM     21  O   UNL     1      49.012   5.001  16.653  0.00  0.00    +0.000 OA
ATOM     22  H   UNL     1      47.127   6.634  14.744  0.00  0.00    +0.000 HD
BRANCH  20  23
ATOM     23  C   UNL     1      49.363   7.177  15.845  0.00  0.00    +0.000 A 
ATOM     24  C   UNL     1      49.656   7.881  17.005  0.00  0.00    +0.000 A 
ATOM     25  S   UNL     1      50.541   9.316  16.719  0.00  0.00    +0.000 S 
ATOM     26  C   UNL     1      50.517   9.058  15.035  0.00  0.00    +0.000 A 
ATOM     27  N   UNL     1      51.089   9.947  14.178  0.00  0.00    +0.000 NA
ATOM     28  C   UNL     1      50.963   9.638  12.930  0.00  0.00    +0.000 A 
ATOM     29  N   UNL     1      50.324   8.519  12.462  0.00  0.00    +0.000 N 
ATOM     30  C   UNL     1      49.768   7.581  13.285  0.00  0.00    +0.000 A 
ATOM     31  O   UNL     1      49.258   6.560  12.837  0.00  0.00    +0.000 OA
ATOM     32  C   UNL     1      49.867   7.891  14.701  0.00  0.00    +0.000 A 
ATOM     33  H   UNL     1      50.271   8.324  11.470  0.00  0.00    +0.000 HD
ENDBRANCH  20  23
ENDBRANCH   2  19
TORSDOF 7
ENDMDL
MODEL 7
REMARK VINA RESULT:    -6.890      2.421      3.630
REMARK INTER + INTRA:         -10.833
REMARK INTER:                  -9.899
REMARK INTRA:                  -0.934
REMARK UNBOUND:                -1.124
REMARK  Name = 
REMARK  8 active torsions:
REMARK  status: ('A' for Active; 'I' for Inactive)
REMARK    1  A    between atoms: C_1  and  C_2
REMARK    2  A    between atoms: C_2  and  N_3
REMARK    3  A    between atoms: C_2  and  C_16
REMARK    4  A    between atoms: C_4  and  C_6
REMARK    5  A    between atoms: C_19  and  C_20
REMARK    6  A    between atoms: C_20  and  N_21
REMARK    7  A    between atoms: N_21  and  C_22
REMARK    8  A    between atoms: C_22  and  C_23
REMARK                            x       y       z     vdW  Elec       q    Type
REMARK                         _______ _______ _______ _____ _____    ______ ____
ROOT
ATOM      1  C   UNL     1      48.009   2.975  16.111  0.00  0.00    +0.000 C 
ATOM      2  C   UNL     1      47.356   4.348  15.944  0.00  0.00    +0.000 C 
ENDROOT
BRANCH   2   3
ATOM      3  C   UNL     1      46.895   4.524  14.502  0.00  0.00    +0.000 A 
ATOM      4  C   UNL     1      46.439   3.429  13.759  0.00  0.00    +0.000 A 
ATOM      5  C   UNL     1      45.932   3.609  12.468  0.00  0.00    +0.000 A 
ATOM      6  C   UNL     1      45.854   4.887  11.894  0.00  0.00    +0.000 A 
ATOM      7  C   UNL     1      46.354   5.976  12.619  0.00  0.00    +0.000 A 
ATOM      8  C   UNL     1      46.876   5.795  13.902  0.00  0.00    +0.000 A 
BRANCH   6   9
ATOM      9  C   UNL     1      45.232   5.094  10.527  0.00  0.00    +0.000 C 
BRANCH   9  10
ATOM     10  N   UNL     1      44.782   3.821   9.958  0.00  0.00    +0.000 NA
ATOM     11  H   UNL     1      43.837   3.636  10.291  0.00  0.00    +0.000 HD
BRANCH  10  12
ATOM     12  C   UNL     1      44.778   3.838   8.497  0.00  0.00    +0.000 C 
BRANCH  12  13
ATOM     13  C   UNL     1      45.869   2.952   7.935  0.00  0.00    +0.000 A 
ATOM     14  C   UNL     1      45.906   1.588   8.244  0.00  0.00    +0.000 A 
ATOM     15  C   UNL     1      46.919   0.805   7.710  0.00  0.00    +0.000 A 
ATOM     16  N   UNL     1      47.888   1.277   6.900  0.00  0.00    +0.000 NA
ATOM     17  C   UNL     1      47.836   2.594   6.604  0.00  0.00    +0.000 A 
ATOM     18  C   UNL     1      46.860   3.457   7.084  0.00  0.00    +0.000 A 
ENDBRANCH  12  13
ENDBRANCH  10  12
ENDBRANCH   9  10
ENDBRANCH   6   9
ENDBRANCH   2   3
BRANCH   2  19
ATOM     19  N   UNL     1      48.262   5.430  16.286  0.00  0.00    +0.000 N 
ATOM     20  C   UNL     1      48.425   5.913  17.559  0.00  0.00    +0.000 C 
ATOM     21  O   UNL     1      47.841   5.454  18.534  0.00  0.00    +0.000 OA
ATOM     22  H   UNL     1      48.474   6.062  15.519  0.00  0.00    +0.000 HD
BRANCH  20  23
ATOM     23  C   UNL     1      49.420   6.979  17.703  0.00  0.00    +0.000 A 
ATOM     24  C   UNL     1      50.723   6.791  17.266  0.00  0.00    +0.000 A 
ATOM     25  S   UNL     1      51.715   8.166  17.483  0.00  0.00    +0.000 S 
ATOM     26  C   UNL     1      50.441   9.035  18.209  0.00  0.00    +0.000 A 
ATOM     27  N   UNL     1      50.624  10.304  18.664  0.00  0.00    +0.000 NA
ATOM     28  C   UNL     1      49.580  10.824  19.222  0.00  0.00    +0.000 A 
ATOM     29  N   UNL     1      48.370  10.193  19.358  0.00  0.00    +0.000 N 
ATOM     30  C   UNL     1      48.131   8.935  18.884  0.00  0.00    +0.000 A 
ATOM     31  O   UNL     1      47.020   8.423  18.967  0.00  0.00    +0.000 OA
ATOM     32  C   UNL     1      49.279   8.297  18.263  0.00  0.00    +0.000 A 
ATOM     33  H   UNL     1      47.585  10.660  19.792  0.00  0.00    +0.000 HD
ENDBRANCH  20  23
ENDBRANCH   2  19
TORSDOF 7
ENDMDL
MODEL 8
REMARK VINA RESULT:    -6.623      2.792      3.876
REMARK INTER + INTRA:         -10.457
REMARK INTER:                  -9.426
REMARK INTRA:                  -1.031
REMARK UNBOUND:                -1.124
REMARK  Name = 
REMARK  8 active torsions:
REMARK  status: ('A' for Active; 'I' for Inactive)
REMARK    1  A    between atoms: C_1  and  C_2
REMARK    2  A    between atoms: C_2  and  N_3
REMARK    3  A    between atoms: C_2  and  C_16
REMARK    4  A    between atoms: C_4  and  C_6
REMARK    5  A    between atoms: C_19  and  C_20
REMARK    6  A    between atoms: C_20  and  N_21
REMARK    7  A    between atoms: N_21  and  C_22
REMARK    8  A    between atoms: C_22  and  C_23
REMARK                            x       y       z     vdW  Elec       q    Type
REMARK                         _______ _______ _______ _____ _____    ______ ____
ROOT
ATOM      1  C   UNL     1      47.668   4.422  15.730  0.00  0.00    +0.000 C 
ATOM      2  C   UNL     1      47.364   5.647  14.867  0.00  0.00    +0.000 C 
ENDROOT
BRANCH   2   3
ATOM      3  C   UNL     1      46.461   5.246  13.707  0.00  0.00    +0.000 A 
ATOM      4  C   UNL     1      45.972   6.209  12.817  0.00  0.00    +0.000 A 
ATOM      5  C   UNL     1      45.219   5.828  11.701  0.00  0.00    +0.000 A 
ATOM      6  C   UNL     1      44.948   4.476  11.441  0.00  0.00    +0.000 A 
ATOM      7  C   UNL     1      45.396   3.517  12.358  0.00  0.00    +0.000 A 
ATOM      8  C   UNL     1      46.135   3.898  13.480  0.00  0.00    +0.000 A 
BRANCH   6   9
ATOM      9  C   UNL     1      44.200   4.055  10.192  0.00  0.00    +0.000 C 
BRANCH   9  10
ATOM     10  N   UNL     1      44.864   4.562   8.988  0.00  0.00    +0.000 NA
ATOM     11  H   UNL     1      45.867   4.598   9.165  0.00  0.00    +0.000 HD
BRANCH  10  12
ATOM     12  C   UNL     1      44.617   3.718   7.821  0.00  0.00    +0.000 C 
BRANCH  12  13
ATOM     13  C   UNL     1      45.829   2.874   7.488  0.00  0.00    +0.000 A 
ATOM     14  C   UNL     1      46.817   3.361   6.626  0.00  0.00    +0.000 A 
ATOM     15  C   UNL     1      47.916   2.563   6.345  0.00  0.00    +0.000 A 
ATOM     16  N   UNL     1      48.100   1.328   6.854  0.00  0.00    +0.000 NA
ATOM     17  C   UNL     1      47.142   0.874   7.691  0.00  0.00    +0.000 A 
ATOM     18  C   UNL     1      46.010   1.599   8.038  0.00  0.00    +0.000 A 
ENDBRANCH  12  13
ENDBRANCH  10  12
ENDBRANCH   9  10
ENDBRANCH   6   9
ENDBRANCH   2   3
BRANCH   2  19
ATOM     19  N   UNL     1      48.571   6.257  14.338  0.00  0.00    +0.000 N 
ATOM     20  C   UNL     1      49.017   7.503  14.699  0.00  0.00    +0.000 C 
ATOM     21  O   UNL     1      48.450   8.206  15.529  0.00  0.00    +0.000 OA
ATOM     22  H   UNL     1      48.857   5.909  13.427  0.00  0.00    +0.000 HD
BRANCH  20  23
ATOM     23  C   UNL     1      50.280   7.921  14.086  0.00  0.00    +0.000 A 
ATOM     24  C   UNL     1      50.329   8.274  12.745  0.00  0.00    +0.000 A 
ATOM     25  S   UNL     1      51.882   8.774  12.234  0.00  0.00    +0.000 S 
ATOM     26  C   UNL     1      52.540   8.489  13.780  0.00  0.00    +0.000 A 
ATOM     27  N   UNL     1      53.861   8.694  14.031  0.00  0.00    +0.000 NA
ATOM     28  C   UNL     1      54.224   8.404  15.237  0.00  0.00    +0.000 A 
ATOM     29  N   UNL     1      53.385   7.933  16.214  0.00  0.00    +0.000 N 
ATOM     30  C   UNL     1      52.046   7.747  16.017  0.00  0.00    +0.000 A 
ATOM     31  O   UNL     1      51.312   7.384  16.930  0.00  0.00    +0.000 OA
ATOM     32  C   UNL     1      51.589   8.043  14.671  0.00  0.00    +0.000 A 
ATOM     33  H   UNL     1      53.727   7.737  17.146  0.00  0.00    +0.000 HD
ENDBRANCH  20  23
ENDBRANCH   2  19
TORSDOF 7
ENDMDL
MODEL 9
REMARK VINA RESULT:    -6.148      3.059      8.428
REMARK INTER + INTRA:          -9.787
REMARK INTER:                  -8.317
REMARK INTRA:                  -1.470
REMARK UNBOUND:                -1.124
REMARK  Name = 
REMARK  8 active torsions:
REMARK  status: ('A' for Active; 'I' for Inactive)
REMARK    1  A    between atoms: C_1  and  C_2
REMARK    2  A    between atoms: C_2  and  N_3
REMARK    3  A    between atoms: C_2  and  C_16
REMARK    4  A    between atoms: C_4  and  C_6
REMARK    5  A    between atoms: C_19  and  C_20
REMARK    6  A    between atoms: C_20  and  N_21
REMARK    7  A    between atoms: N_21  and  C_22
REMARK    8  A    between atoms: C_22  and  C_23
REMARK                            x       y       z     vdW  Elec       q    Type
REMARK                         _______ _______ _______ _____ _____    ______ ____
ROOT
ATOM      1  C   UNL     1      45.254   8.693  11.147  0.00  0.00    +0.000 C 
ATOM      2  C   UNL     1      45.425   7.713  12.308  0.00  0.00    +0.000 C 
ENDROOT
BRANCH   2   3
ATOM      3  C   UNL     1      46.825   7.851  12.894  0.00  0.00    +0.000 A 
ATOM      4  C   UNL     1      47.095   8.807  13.880  0.00  0.00    +0.000 A 
ATOM      5  C   UNL     1      48.358   8.870  14.481  0.00  0.00    +0.000 A 
ATOM      6  C   UNL     1      49.374   7.973  14.121  0.00  0.00    +0.000 A 
ATOM      7  C   UNL     1      49.118   7.049  13.100  0.00  0.00    +0.000 A 
ATOM      8  C   UNL     1      47.863   6.995  12.490  0.00  0.00    +0.000 A 
BRANCH   6   9
ATOM      9  C   UNL     1      50.716   7.989  14.825  0.00  0.00    +0.000 C 
BRANCH   9  10
ATOM     10  N   UNL     1      50.979   6.704  15.480  0.00  0.00    +0.000 NA
ATOM     11  H   UNL     1      51.964   6.473  15.351  0.00  0.00    +0.000 HD
BRANCH  10  12
ATOM     12  C   UNL     1      50.682   6.739  16.909  0.00  0.00    +0.000 C 
BRANCH  12  13
ATOM     13  C   UNL     1      49.549   5.797  17.256  0.00  0.00    +0.000 A 
ATOM     14  C   UNL     1      49.400   5.316  18.561  0.00  0.00    +0.000 A 
ATOM     15  C   UNL     1      48.349   4.456  18.845  0.00  0.00    +0.000 A 
ATOM     16  N   UNL     1      47.446   4.044  17.932  0.00  0.00    +0.000 NA
ATOM     17  C   UNL     1      47.597   4.522  16.678  0.00  0.00    +0.000 A 
ATOM     18  C   UNL     1      48.612   5.391  16.298  0.00  0.00    +0.000 A 
ENDBRANCH  12  13
ENDBRANCH  10  12
ENDBRANCH   9  10
ENDBRANCH   6   9
ENDBRANCH   2   3
BRANCH   2  19
ATOM     19  N   UNL     1      45.218   6.336  11.898  0.00  0.00    +0.000 N 
ATOM     20  C   UNL     1      44.009   5.836  11.487  0.00  0.00    +0.000 C 
ATOM     21  O   UNL     1      42.993   6.518  11.400  0.00  0.00    +0.000 OA
ATOM     22  H   UNL     1      45.886   5.674  12.284  0.00  0.00    +0.000 HD
BRANCH  20  23
ATOM     23  C   UNL     1      44.018   4.432  11.071  0.00  0.00    +0.000 A 
ATOM     24  C   UNL     1      43.301   3.481  11.783  0.00  0.00    +0.000 A 
ATOM     25  S   UNL     1      43.405   1.913  11.111  0.00  0.00    +0.000 S 
ATOM     26  C   UNL     1      44.446   2.453   9.876  0.00  0.00    +0.000 A 
ATOM     27  N   UNL     1      44.945   1.592   8.948  0.00  0.00    +0.000 NA
ATOM     28  C   UNL     1      45.748   2.137   8.094  0.00  0.00    +0.000 A 
ATOM     29  N   UNL     1      46.091   3.465   8.081  0.00  0.00    +0.000 N 
ATOM     30  C   UNL     1      45.587   4.371   8.969  0.00  0.00    +0.000 A 
ATOM     31  O   UNL     1      45.866   5.563   8.892  0.00  0.00    +0.000 OA
ATOM     32  C   UNL     1      44.691   3.806   9.963  0.00  0.00    +0.000 A 
ATOM     33  H   UNL     1      46.715   3.835   7.376  0.00  0.00    +0.000 HD
ENDBRANCH  20  23
ENDBRANCH   2  19
TORSDOF 7
ENDMDL
