MODEL 1
REMARK VINA RESULT:    -7.575      0.000      0.000
REMARK INTER + INTRA:         -12.514
REMARK INTER:                 -11.118
REMARK INTRA:                  -1.396
REMARK UNBOUND:                -1.396
REMARK  Name = 
REMARK  12 active torsions:
REMARK  status: ('A' for Active; 'I' for Inactive)
REMARK    1  A    between atoms: C_1  and  C_2
REMARK    2  A    between atoms: C_2  and  C_3
REMARK    3  A    between atoms: C_2  and  C_4
REMARK    4  A    between atoms: C_6  and  C_7
REMARK    5  A    between atoms: C_12  and  O_13
REMARK    6  A    between atoms: O_13  and  C_14
REMARK    7  A    between atoms: C_14  and  C_15
REMARK    8  A    between atoms: C_15  and  C_16
REMARK    9  A    between atoms: C_15  and  C_17
REMARK   10  A    between atoms: C_15  and  C_18
REMARK   11  A    between atoms: C_21  and  O_22
REMARK   12  A    between atoms: O_22  and  C_23
REMARK                            x       y       z     vdW  Elec       q    Type
REMARK                         _______ _______ _______ _____ _____    ______ ____
ROOT
ATOM      1  O   UNL     1      45.774   4.261  14.008  0.00  0.00    +0.000 OA
ENDROOT
BRANCH   1   7
ATOM      2  C   UNL     1      47.572   5.064  15.335  0.00  0.00    +0.000 A 
ATOM      3  N   UNL     1      48.650   5.867  15.567  0.00  0.00    +0.000 NA
ATOM      4  C   UNL     1      49.027   6.708  14.565  0.00  0.00    +0.000 A 
ATOM      5  C   UNL     1      48.370   6.803  13.353  0.00  0.00    +0.000 A 
ATOM      6  C   UNL     1      47.262   5.990  13.141  0.00  0.00    +0.000 A 
ATOM      7  C   UNL     1      46.860   5.085  14.125  0.00  0.00    +0.000 A 
BRANCH   4   8
ATOM      8  C   UNL     1      50.234   7.557  14.817  0.00  0.00    +0.000 C 
ATOM      9  N   UNL     1      51.023   7.791  13.721  0.00  0.00    +0.000 N 
ATOM     10  O   UNL     1      50.507   8.015  15.919  0.00  0.00    +0.000 OA
ATOM     11  H   UNL     1      50.759   7.393  12.828  0.00  0.00    +0.000 HD
ATOM     12  H   UNL     1      51.851   8.356  13.818  0.00  0.00    +0.000 HD
ENDBRANCH   4   8
BRANCH   2  14
ATOM     13  C   UNL     1      48.170   2.898  16.417  0.00  0.00    +0.000 C 
ATOM     14  C   UNL     1      47.213   4.092  16.448  0.00  0.00    +0.000 C 
ATOM     15  C   UNL     1      47.232   4.770  17.820  0.00  0.00    +0.000 C 
ENDBRANCH   2  14
ENDBRANCH   1   7
BRANCH   1  16
ATOM     16  C   UNL     1      45.710   3.398  12.870  0.00  0.00    +0.000 C 
BRANCH  16  17
ATOM     17  C   UNL     1      44.503   3.702  11.931  0.00  0.00    +0.000 C 
ATOM     18  C   UNL     1      43.477   2.566  12.181  0.00  0.00    +0.000 C 
ATOM     19  C   UNL     1      43.819   5.021  12.360  0.00  0.00    +0.000 C 
BRANCH  17  20
ATOM     20  C   UNL     1      44.911   3.810  10.446  0.00  0.00    +0.000 A 
ATOM     21  C   UNL     1      45.523   4.956   9.909  0.00  0.00    +0.000 A 
ATOM     22  C   UNL     1      45.969   4.996   8.581  0.00  0.00    +0.000 A 
ATOM     23  C   UNL     1      45.818   3.888   7.753  0.00  0.00    +0.000 A 
ATOM     24  C   UNL     1      45.151   2.768   8.239  0.00  0.00    +0.000 A 
ATOM     25  C   UNL     1      44.719   2.725   9.569  0.00  0.00    +0.000 A 
BRANCH  23  26
ATOM     26  O   UNL     1      46.266   3.797   6.467  0.00  0.00    +0.000 OA
BRANCH  26  27
ATOM     27  C   UNL     1      47.096   2.677   6.204  0.00  0.00    +0.000 C 
ATOM     28  F   UNL     1      47.574   2.810   4.941  0.00  0.00    +0.000 F 
ATOM     29  F   UNL     1      48.167   2.726   7.037  0.00  0.00    +0.000 F 
ENDBRANCH  26  27
ENDBRANCH  23  26
ENDBRANCH  17  20
ENDBRANCH  16  17
ENDBRANCH   1  16
TORSDOF 8
ENDMDL
MODEL 2
REMARK VINA RESULT:    -7.480      1.262      2.680
REMARK INTER + INTRA:         -12.374
REMARK INTER:                 -11.085
REMARK INTRA:                  -1.289
REMARK UNBOUND:                -1.396
REMARK  Name = 
REMARK  12 active torsions:
REMARK  status: ('A' for Active; 'I' for Inactive)
REMARK    1  A    between atoms: C_1  and  C_2
REMARK    2  A    between atoms: C_2  and  C_3
REMARK    3  A    between atoms: C_2  and  C_4
REMARK    4  A    between atoms: C_6  and  C_7
REMARK    5  A    between atoms: C_12  and  O_13
REMARK    6  A    between atoms: O_13  and  C_14
REMARK    7  A    between atoms: C_14  and  C_15
REMARK    8  A    between atoms: C_15  and  C_16
REMARK    9  A    between atoms: C_15  and  C_17
REMARK   10  A    between atoms: C_15  and  C_18
REMARK   11  A    between atoms: C_21  and  O_22
REMARK   12  A    between atoms: O_22  and  C_23
REMARK                            x       y       z     vdW  Elec       q    Type
REMARK                         _______ _______ _______ _____ _____    ______ ____
ROOT
ATOM      1  O   UNL     1      46.149   4.654  12.961  0.00  0.00    +0.000 OA
ENDROOT
BRANCH   1   7
ATOM      2  C   UNL     1      47.872   6.087  13.748  0.00  0.00    +0.000 A 
ATOM      3  N   UNL     1      48.752   6.528  14.693  0.00  0.00    +0.000 NA
ATOM      4  C   UNL     1      48.724   5.912  15.906  0.00  0.00    +0.000 A 
ATOM      5  C   UNL     1      47.877   4.864  16.217  0.00  0.00    +0.000 A 
ATOM      6  C   UNL     1      47.000   4.416  15.236  0.00  0.00    +0.000 A 
ATOM      7  C   UNL     1      46.966   5.041  13.988  0.00  0.00    +0.000 A 
BRANCH   4   8
ATOM      8  C   UNL     1      49.667   6.430  16.946  0.00  0.00    +0.000 C 
ATOM      9  N   UNL     1      50.997   6.305  16.644  0.00  0.00    +0.000 N 
ATOM     10  O   UNL     1      49.288   6.932  17.998  0.00  0.00    +0.000 OA
ATOM     11  H   UNL     1      51.267   5.885  15.763  0.00  0.00    +0.000 HD
ATOM     12  H   UNL     1      51.688   6.634  17.299  0.00  0.00    +0.000 HD
ENDBRANCH   4   8
BRANCH   2  14
ATOM     13  C   UNL     1      46.896   8.002  12.484  0.00  0.00    +0.000 C 
ATOM     14  C   UNL     1      47.884   6.835  12.424  0.00  0.00    +0.000 C 
ATOM     15  C   UNL     1      49.288   7.328  12.065  0.00  0.00    +0.000 C 
ENDBRANCH   2  14
ENDBRANCH   1   7
BRANCH   1  16
ATOM     16  C   UNL     1      44.780   5.063  13.008  0.00  0.00    +0.000 C 
BRANCH  16  17
ATOM     17  C   UNL     1      43.894   4.378  11.924  0.00  0.00    +0.000 C 
ATOM     18  C   UNL     1      43.447   3.024  12.535  0.00  0.00    +0.000 C 
ATOM     19  C   UNL     1      42.608   5.206  11.692  0.00  0.00    +0.000 C 
BRANCH  17  20
ATOM     20  C   UNL     1      44.625   4.203  10.575  0.00  0.00    +0.000 A 
ATOM     21  C   UNL     1      44.547   3.021   9.818  0.00  0.00    +0.000 A 
ATOM     22  C   UNL     1      45.142   2.919   8.553  0.00  0.00    +0.000 A 
ATOM     23  C   UNL     1      45.828   4.000   8.008  0.00  0.00    +0.000 A 
ATOM     24  C   UNL     1      45.981   5.155   8.768  0.00  0.00    +0.000 A 
ATOM     25  C   UNL     1      45.375   5.259  10.024  0.00  0.00    +0.000 A 
BRANCH  23  26
ATOM     26  O   UNL     1      46.394   4.030   6.766  0.00  0.00    +0.000 OA
BRANCH  26  27
ATOM     27  C   UNL     1      46.909   2.787   6.317  0.00  0.00    +0.000 C 
ATOM     28  F   UNL     1      47.180   2.911   4.993  0.00  0.00    +0.000 F 
ATOM     29  F   UNL     1      48.093   2.557   6.940  0.00  0.00    +0.000 F 
ENDBRANCH  26  27
ENDBRANCH  23  26
ENDBRANCH  17  20
ENDBRANCH  16  17
ENDBRANCH   1  16
TORSDOF 8
ENDMDL
MODEL 3
REMARK VINA RESULT:    -6.758      1.708      3.313
REMARK INTER + INTRA:         -11.315
REMARK INTER:                 -10.231
REMARK INTRA:                  -1.084
REMARK UNBOUND:                -1.396
REMARK  Name = 
REMARK  12 active torsions:
REMARK  status: ('A' for Active; 'I' for Inactive)
REMARK    1  A    between atoms: C_1  and  C_2
REMARK    2  A    between atoms: C_2  and  C_3
REMARK    3  A    between atoms: C_2  and  C_4
REMARK    4  A    between atoms: C_6  and  C_7
REMARK    5  A    between atoms: C_12  and  O_13
REMARK    6  A    between atoms: O_13  and  C_14
REMARK    7  A    between atoms: C_14  and  C_15
REMARK    8  A    between atoms: C_15  and  C_16
REMARK    9  A    between atoms: C_15  and  C_17
REMARK   10  A    between atoms: C_15  and  C_18
REMARK   11  A    between atoms: C_21  and  O_22
REMARK   12  A    between atoms: O_22  and  C_23
REMARK                            x       y       z     vdW  Elec       q    Type
REMARK                         _______ _______ _______ _____ _____    ______ ____
ROOT
ATOM      1  O   UNL     1      47.160   5.166  14.018  0.00  0.00    +0.000 OA
ENDROOT
BRANCH   1   7
ATOM      2  C   UNL     1      48.524   5.881  15.826  0.00  0.00    +0.000 A 
ATOM      3  N   UNL     1      48.984   5.806  17.108  0.00  0.00    +0.000 NA
ATOM      4  C   UNL     1      48.431   4.858  17.913  0.00  0.00    +0.000 A 
ATOM      5  C   UNL     1      47.458   3.968  17.497  0.00  0.00    +0.000 A 
ATOM      6  C   UNL     1      47.015   4.047  16.182  0.00  0.00    +0.000 A 
ATOM      7  C   UNL     1      47.526   5.028  15.329  0.00  0.00    +0.000 A 
BRANCH   4   8
ATOM      8  C   UNL     1      48.916   4.810  19.328  0.00  0.00    +0.000 C 
ATOM      9  N   UNL     1      48.509   3.719  20.050  0.00  0.00    +0.000 N 
ATOM     10  O   UNL     1      49.627   5.679  19.818  0.00  0.00    +0.000 OA
ATOM     11  H   UNL     1      47.922   3.023  19.605  0.00  0.00    +0.000 HD
ATOM     12  H   UNL     1      48.800   3.621  21.009  0.00  0.00    +0.000 HD
ENDBRANCH   4   8
BRANCH   2  14
ATOM     13  C   UNL     1      48.279   8.262  15.125  0.00  0.00    +0.000 C 
ATOM     14  C   UNL     1      49.115   6.990  14.969  0.00  0.00    +0.000 C 
ATOM     15  C   UNL     1      50.582   7.255  15.319  0.00  0.00    +0.000 C 
ENDBRANCH   2  14
ENDBRANCH   1   7
BRANCH   1  16
ATOM     16  C   UNL     1      45.953   4.529  13.591  0.00  0.00    +0.000 C 
BRANCH  16  17
ATOM     17  C   UNL     1      45.185   5.331  12.497  0.00  0.00    +0.000 C 
ATOM     18  C   UNL     1      43.715   5.409  12.984  0.00  0.00    +0.000 C 
ATOM     19  C   UNL     1      45.712   6.784  12.440  0.00  0.00    +0.000 C 
BRANCH  17  20
ATOM     20  C   UNL     1      45.308   4.700  11.093  0.00  0.00    +0.000 A 
ATOM     21  C   UNL     1      44.944   3.369  10.825  0.00  0.00    +0.000 A 
ATOM     22  C   UNL     1      44.976   2.847   9.525  0.00  0.00    +0.000 A 
ATOM     23  C   UNL     1      45.370   3.644   8.455  0.00  0.00    +0.000 A 
ATOM     24  C   UNL     1      45.804   4.942   8.704  0.00  0.00    +0.000 A 
ATOM     25  C   UNL     1      45.759   5.465  10.001  0.00  0.00    +0.000 A 
BRANCH  23  26
ATOM     26  O   UNL     1      45.384   3.258   7.146  0.00  0.00    +0.000 OA
BRANCH  26  27
ATOM     27  C   UNL     1      46.567   2.592   6.735  0.00  0.00    +0.000 C 
ATOM     28  F   UNL     1      46.693   2.772   5.396  0.00  0.00    +0.000 F 
ATOM     29  F   UNL     1      47.631   3.202   7.315  0.00  0.00    +0.000 F 
ENDBRANCH  26  27
ENDBRANCH  23  26
ENDBRANCH  17  20
ENDBRANCH  16  17
ENDBRANCH   1  16
TORSDOF 8
ENDMDL
MODEL 4
REMARK VINA RESULT:    -6.502      1.945      2.639
REMARK INTER + INTRA:         -10.938
REMARK INTER:                  -9.498
REMARK INTRA:                  -1.440
REMARK UNBOUND:                -1.396
REMARK  Name = 
REMARK  12 active torsions:
REMARK  status: ('A' for Active; 'I' for Inactive)
REMARK    1  A    between atoms: C_1  and  C_2
REMARK    2  A    between atoms: C_2  and  C_3
REMARK    3  A    between atoms: C_2  and  C_4
REMARK    4  A    between atoms: C_6  and  C_7
REMARK    5  A    between atoms: C_12  and  O_13
REMARK    6  A    between atoms: O_13  and  C_14
REMARK    7  A    between atoms: C_14  and  C_15
REMARK    8  A    between atoms: C_15  and  C_16
REMARK    9  A    between atoms: C_15  and  C_17
REMARK   10  A    between atoms: C_15  and  C_18
REMARK   11  A    between atoms: C_21  and  O_22
REMARK   12  A    between atoms: O_22  and  C_23
REMARK                            x       y       z     vdW  Elec       q    Type
REMARK                         _______ _______ _______ _____ _____    ______ ____
ROOT
ATOM      1  O   UNL     1      47.033   6.473  13.687  0.00  0.00    +0.000 OA
ENDROOT
BRANCH   1   7
ATOM      2  C   UNL     1      49.189   7.364  14.130  0.00  0.00    +0.000 A 
ATOM      3  N   UNL     1      50.379   7.914  13.756  0.00  0.00    +0.000 NA
ATOM      4  C   UNL     1      50.593   8.089  12.423  0.00  0.00    +0.000 A 
ATOM      5  C   UNL     1      49.669   7.760  11.447  0.00  0.00    +0.000 A 
ATOM      6  C   UNL     1      48.454   7.217  11.849  0.00  0.00    +0.000 A 
ATOM      7  C   UNL     1      48.205   6.986  13.203  0.00  0.00    +0.000 A 
BRANCH   4   8
ATOM      8  C   UNL     1      51.917   8.658  12.021  0.00  0.00    +0.000 C 
ATOM      9  N   UNL     1      53.006   8.090  12.628  0.00  0.00    +0.000 N 
ATOM     10  O   UNL     1      52.032   9.567  11.209  0.00  0.00    +0.000 OA
ATOM     11  H   UNL     1      52.866   7.339  13.293  0.00  0.00    +0.000 HD
ATOM     12  H   UNL     1      53.930   8.423  12.403  0.00  0.00    +0.000 HD
ENDBRANCH   4   8
BRANCH   2  14
ATOM     13  C   UNL     1      50.298   6.564  16.215  0.00  0.00    +0.000 C 
ATOM     14  C   UNL     1      49.005   7.125  15.622  0.00  0.00    +0.000 C 
ATOM     15  C   UNL     1      48.578   8.401  16.351  0.00  0.00    +0.000 C 
ENDBRANCH   2  14
ENDBRANCH   1   7
BRANCH   1  16
ATOM     16  C   UNL     1      45.886   6.509  12.835  0.00  0.00    +0.000 C 
BRANCH  16  17
ATOM     17  C   UNL     1      45.245   5.108  12.601  0.00  0.00    +0.000 C 
ATOM     18  C   UNL     1      46.054   4.120  13.481  0.00  0.00    +0.000 C 
ATOM     19  C   UNL     1      43.794   5.094  13.137  0.00  0.00    +0.000 C 
BRANCH  17  20
ATOM     20  C   UNL     1      45.231   4.695  11.113  0.00  0.00    +0.000 A 
ATOM     21  C   UNL     1      45.724   5.524  10.091  0.00  0.00    +0.000 A 
ATOM     22  C   UNL     1      45.788   5.090   8.760  0.00  0.00    +0.000 A 
ATOM     23  C   UNL     1      45.362   3.811   8.415  0.00  0.00    +0.000 A 
ATOM     24  C   UNL     1      44.803   2.998   9.395  0.00  0.00    +0.000 A 
ATOM     25  C   UNL     1      44.753   3.428  10.726  0.00  0.00    +0.000 A 
BRANCH  23  26
ATOM     26  O   UNL     1      45.432   3.267   7.165  0.00  0.00    +0.000 OA
BRANCH  26  27
ATOM     27  C   UNL     1      46.747   3.131   6.649  0.00  0.00    +0.000 C 
ATOM     28  F   UNL     1      47.398   2.226   7.422  0.00  0.00    +0.000 F 
ATOM     29  F   UNL     1      46.670   2.599   5.403  0.00  0.00    +0.000 F 
ENDBRANCH  26  27
ENDBRANCH  23  26
ENDBRANCH  17  20
ENDBRANCH  16  17
ENDBRANCH   1  16
TORSDOF 8
ENDMDL
MODEL 5
REMARK VINA RESULT:    -6.470      4.584      8.436
REMARK INTER + INTRA:         -10.892
REMARK INTER:                  -9.625
REMARK INTRA:                  -1.267
REMARK UNBOUND:                -1.396
REMARK  Name = 
REMARK  12 active torsions:
REMARK  status: ('A' for Active; 'I' for Inactive)
REMARK    1  A    between atoms: C_1  and  C_2
REMARK    2  A    between atoms: C_2  and  C_3
REMARK    3  A    between atoms: C_2  and  C_4
REMARK    4  A    between atoms: C_6  and  C_7
REMARK    5  A    between atoms: C_12  and  O_13
REMARK    6  A    between atoms: O_13  and  C_14
REMARK    7  A    between atoms: C_14  and  C_15
REMARK    8  A    between atoms: C_15  and  C_16
REMARK    9  A    between atoms: C_15  and  C_17
REMARK   10  A    between atoms: C_15  and  C_18
REMARK   11  A    between atoms: C_21  and  O_22
REMARK   12  A    between atoms: O_22  and  C_23
REMARK                            x       y       z     vdW  Elec       q    Type
REMARK                         _______ _______ _______ _____ _____    ______ ____
ROOT
ATOM      1  O   UNL     1      47.801   4.777  14.551  0.00  0.00    +0.000 OA
ENDROOT
BRANCH   1   7
ATOM      2  C   UNL     1      46.526   5.927  12.910  0.00  0.00    +0.000 A 
ATOM      3  N   UNL     1      45.571   5.996  11.939  0.00  0.00    +0.000 NA
ATOM      4  C   UNL     1      44.924   4.842  11.618  0.00  0.00    +0.000 A 
ATOM      5  C   UNL     1      45.169   3.628  12.232  0.00  0.00    +0.000 A 
ATOM      6  C   UNL     1      46.134   3.580  13.231  0.00  0.00    +0.000 A 
ATOM      7  C   UNL     1      46.849   4.730  13.570  0.00  0.00    +0.000 A 
BRANCH   4   8
ATOM      8  C   UNL     1      43.905   4.923  10.525  0.00  0.00    +0.000 C 
ATOM      9  N   UNL     1      44.365   4.618   9.271  0.00  0.00    +0.000 N 
ATOM     10  O   UNL     1      42.738   5.238  10.725  0.00  0.00    +0.000 OA
ATOM     11  H   UNL     1      45.338   4.361   9.151  0.00  0.00    +0.000 HD
ATOM     12  H   UNL     1      43.732   4.650   8.488  0.00  0.00    +0.000 HD
ENDBRANCH   4   8
BRANCH   2  14
ATOM     13  C   UNL     1      48.410   7.395  12.193  0.00  0.00    +0.000 C 
ATOM     14  C   UNL     1      47.275   7.219  13.203  0.00  0.00    +0.000 C 
ATOM     15  C   UNL     1      46.339   8.430  13.189  0.00  0.00    +0.000 C 
ENDBRANCH   2  14
ENDBRANCH   1   7
BRANCH   1  16
ATOM     16  C   UNL     1      47.438   4.318  15.855  0.00  0.00    +0.000 C 
BRANCH  16  17
ATOM     17  C   UNL     1      48.324   4.916  16.989  0.00  0.00    +0.000 C 
ATOM     18  C   UNL     1      48.716   6.339  16.514  0.00  0.00    +0.000 C 
ATOM     19  C   UNL     1      47.486   5.093  18.277  0.00  0.00    +0.000 C 
BRANCH  17  20
ATOM     20  C   UNL     1      49.556   4.043  17.311  0.00  0.00    +0.000 A 
ATOM     21  C   UNL     1      49.564   2.648  17.136  0.00  0.00    +0.000 A 
ATOM     22  C   UNL     1      50.724   1.888  17.345  0.00  0.00    +0.000 A 
ATOM     23  C   UNL     1      51.909   2.504  17.732  0.00  0.00    +0.000 A 
ATOM     24  C   UNL     1      51.909   3.873  17.982  0.00  0.00    +0.000 A 
ATOM     25  C   UNL     1      50.754   4.631  17.759  0.00  0.00    +0.000 A 
BRANCH  23  26
ATOM     26  O   UNL     1      53.106   1.872  17.907  0.00  0.00    +0.000 OA
BRANCH  26  27
ATOM     27  C   UNL     1      53.178   0.570  17.348  0.00  0.00    +0.000 C 
ATOM     28  F   UNL     1      54.291   0.520  16.573  0.00  0.00    +0.000 F 
ATOM     29  F   UNL     1      53.358  -0.323  18.352  0.00  0.00    +0.000 F 
ENDBRANCH  26  27
ENDBRANCH  23  26
ENDBRANCH  17  20
ENDBRANCH  16  17
ENDBRANCH   1  16
TORSDOF 8
ENDMDL
MODEL 6
REMARK VINA RESULT:    -6.041      3.574      5.356
REMARK INTER + INTRA:         -10.261
REMARK INTER:                  -8.728
REMARK INTRA:                  -1.533
REMARK UNBOUND:                -1.396
REMARK  Name = 
REMARK  12 active torsions:
REMARK  status: ('A' for Active; 'I' for Inactive)
REMARK    1  A    between atoms: C_1  and  C_2
REMARK    2  A    between atoms: C_2  and  C_3
REMARK    3  A    between atoms: C_2  and  C_4
REMARK    4  A    between atoms: C_6  and  C_7
REMARK    5  A    between atoms: C_12  and  O_13
REMARK    6  A    between atoms: O_13  and  C_14
REMARK    7  A    between atoms: C_14  and  C_15
REMARK    8  A    between atoms: C_15  and  C_16
REMARK    9  A    between atoms: C_15  and  C_17
REMARK   10  A    between atoms: C_15  and  C_18
REMARK   11  A    between atoms: C_21  and  O_22
REMARK   12  A    between atoms: O_22  and  C_23
REMARK                            x       y       z     vdW  Elec       q    Type
REMARK                         _______ _______ _______ _____ _____    ______ ____
ROOT
ATOM      1  O   UNL     1      49.141   7.013  15.627  0.00  0.00    +0.000 OA
ENDROOT
BRANCH   1   7
ATOM      2  C   UNL     1      49.440   5.172  17.097  0.00  0.00    +0.000 A 
ATOM      3  N   UNL     1      50.194   4.356  17.887  0.00  0.00    +0.000 NA
ATOM      4  C   UNL     1      51.532   4.606  17.944  0.00  0.00    +0.000 A 
ATOM      5  C   UNL     1      52.149   5.642  17.269  0.00  0.00    +0.000 A 
ATOM      6  C   UNL     1      51.362   6.475  16.482  0.00  0.00    +0.000 A 
ATOM      7  C   UNL     1      49.991   6.236  16.363  0.00  0.00    +0.000 A 
BRANCH   4   8
ATOM      8  C   UNL     1      52.355   3.681  18.784  0.00  0.00    +0.000 C 
ATOM      9  N   UNL     1      52.334   2.366  18.399  0.00  0.00    +0.000 N 
ATOM     10  O   UNL     1      53.005   4.060  19.750  0.00  0.00    +0.000 OA
ATOM     11  H   UNL     1      51.784   2.096  17.592  0.00  0.00    +0.000 HD
ATOM     12  H   UNL     1      52.868   1.688  18.919  0.00  0.00    +0.000 HD
ENDBRANCH   4   8
BRANCH   2  14
ATOM     13  C   UNL     1      47.795   3.332  16.741  0.00  0.00    +0.000 C 
ATOM     14  C   UNL     1      47.961   4.830  17.004  0.00  0.00    +0.000 C 
ATOM     15  C   UNL     1      47.203   5.250  18.266  0.00  0.00    +0.000 C 
ENDBRANCH   2  14
ENDBRANCH   1   7
BRANCH   1  16
ATOM     16  C   UNL     1      49.366   7.099  14.218  0.00  0.00    +0.000 C 
BRANCH  16  17
ATOM     17  C   UNL     1      48.120   7.593  13.422  0.00  0.00    +0.000 C 
ATOM     18  C   UNL     1      47.580   8.821  14.200  0.00  0.00    +0.000 C 
ATOM     19  C   UNL     1      48.553   8.106  12.029  0.00  0.00    +0.000 C 
BRANCH  17  20
ATOM     20  C   UNL     1      47.050   6.494  13.240  0.00  0.00    +0.000 A 
ATOM     21  C   UNL     1      47.328   5.128  13.419  0.00  0.00    +0.000 A 
ATOM     22  C   UNL     1      46.320   4.157  13.340  0.00  0.00    +0.000 A 
ATOM     23  C   UNL     1      45.004   4.528  13.083  0.00  0.00    +0.000 A 
ATOM     24  C   UNL     1      44.716   5.865  12.831  0.00  0.00    +0.000 A 
ATOM     25  C   UNL     1      45.721   6.834  12.923  0.00  0.00    +0.000 A 
BRANCH  23  26
ATOM     26  O   UNL     1      43.938   3.676  13.042  0.00  0.00    +0.000 OA
BRANCH  26  27
ATOM     27  C   UNL     1      43.562   3.257  11.740  0.00  0.00    +0.000 C 
ATOM     28  F   UNL     1      43.011   2.022  11.852  0.00  0.00    +0.000 F 
ATOM     29  F   UNL     1      42.586   4.083  11.284  0.00  0.00    +0.000 F 
ENDBRANCH  26  27
ENDBRANCH  23  26
ENDBRANCH  17  20
ENDBRANCH  16  17
ENDBRANCH   1  16
TORSDOF 8
ENDMDL
MODEL 7
REMARK VINA RESULT:    -5.945      3.439      5.476
REMARK INTER + INTRA:         -10.121
REMARK INTER:                  -8.296
REMARK INTRA:                  -1.825
REMARK UNBOUND:                -1.396
REMARK  Name = 
REMARK  12 active torsions:
REMARK  status: ('A' for Active; 'I' for Inactive)
REMARK    1  A    between atoms: C_1  and  C_2
REMARK    2  A    between atoms: C_2  and  C_3
REMARK    3  A    between atoms: C_2  and  C_4
REMARK    4  A    between atoms: C_6  and  C_7
REMARK    5  A    between atoms: C_12  and  O_13
REMARK    6  A    between atoms: O_13  and  C_14
REMARK    7  A    between atoms: C_14  and  C_15
REMARK    8  A    between atoms: C_15  and  C_16
REMARK    9  A    between atoms: C_15  and  C_17
REMARK   10  A    between atoms: C_15  and  C_18
REMARK   11  A    between atoms: C_21  and  O_22
REMARK   12  A    between atoms: O_22  and  C_23
REMARK                            x       y       z     vdW  Elec       q    Type
REMARK                         _______ _______ _______ _____ _____    ______ ____
ROOT
ATOM      1  O   UNL     1      49.275   7.665  14.360  0.00  0.00    +0.000 OA
ENDROOT
BRANCH   1   7
ATOM      2  C   UNL     1      49.205   6.470  16.411  0.00  0.00    +0.000 A 
ATOM      3  N   UNL     1      48.766   5.461  17.218  0.00  0.00    +0.000 NA
ATOM      4  C   UNL     1      47.845   4.604  16.698  0.00  0.00    +0.000 A 
ATOM      5  C   UNL     1      47.357   4.690  15.407  0.00  0.00    +0.000 A 
ATOM      6  C   UNL     1      47.829   5.714  14.594  0.00  0.00    +0.000 A 
ATOM      7  C   UNL     1      48.746   6.640  15.094  0.00  0.00    +0.000 A 
BRANCH   4   8
ATOM      8  C   UNL     1      47.343   3.524  17.604  0.00  0.00    +0.000 C 
ATOM      9  N   UNL     1      48.101   3.301  18.724  0.00  0.00    +0.000 N 
ATOM     10  O   UNL     1      46.328   2.879  17.373  0.00  0.00    +0.000 OA
ATOM     11  H   UNL     1      48.932   3.859  18.878  0.00  0.00    +0.000 HD
ATOM     12  H   UNL     1      47.820   2.590  19.380  0.00  0.00    +0.000 HD
ENDBRANCH   4   8
BRANCH   2  14
ATOM     13  C   UNL     1      49.423   8.645  17.611  0.00  0.00    +0.000 C 
ATOM     14  C   UNL     1      50.186   7.448  17.039  0.00  0.00    +0.000 C 
ATOM     15  C   UNL     1      51.039   6.778  18.119  0.00  0.00    +0.000 C 
ENDBRANCH   2  14
ENDBRANCH   1   7
BRANCH   1  16
ATOM     16  C   UNL     1      48.403   8.730  13.976  0.00  0.00    +0.000 C 
BRANCH  16  17
ATOM     17  C   UNL     1      48.067   8.736  12.453  0.00  0.00    +0.000 C 
ATOM     18  C   UNL     1      47.768  10.213  12.091  0.00  0.00    +0.000 C 
ATOM     19  C   UNL     1      49.314   8.322  11.637  0.00  0.00    +0.000 C 
BRANCH  17  20
ATOM     20  C   UNL     1      46.899   7.792  12.093  0.00  0.00    +0.000 A 
ATOM     21  C   UNL     1      47.047   6.699  11.222  0.00  0.00    +0.000 A 
ATOM     22  C   UNL     1      45.996   5.802  10.984  0.00  0.00    +0.000 A 
ATOM     23  C   UNL     1      44.768   5.973  11.615  0.00  0.00    +0.000 A 
ATOM     24  C   UNL     1      44.574   7.088  12.424  0.00  0.00    +0.000 A 
ATOM     25  C   UNL     1      45.628   7.974  12.671  0.00  0.00    +0.000 A 
BRANCH  23  26
ATOM     26  O   UNL     1      43.699   5.132  11.501  0.00  0.00    +0.000 OA
BRANCH  26  27
ATOM     27  C   UNL     1      43.482   4.292  12.624  0.00  0.00    +0.000 C 
ATOM     28  F   UNL     1      43.064   3.088  12.158  0.00  0.00    +0.000 F 
ATOM     29  F   UNL     1      44.671   4.081  13.243  0.00  0.00    +0.000 F 
ENDBRANCH  26  27
ENDBRANCH  23  26
ENDBRANCH  17  20
ENDBRANCH  16  17
ENDBRANCH   1  16
TORSDOF 8
ENDMDL
MODEL 8
REMARK VINA RESULT:    -5.872      3.366      5.526
REMARK INTER + INTRA:         -10.014
REMARK INTER:                  -8.591
REMARK INTRA:                  -1.423
REMARK UNBOUND:                -1.396
REMARK  Name = 
REMARK  12 active torsions:
REMARK  status: ('A' for Active; 'I' for Inactive)
REMARK    1  A    between atoms: C_1  and  C_2
REMARK    2  A    between atoms: C_2  and  C_3
REMARK    3  A    between atoms: C_2  and  C_4
REMARK    4  A    between atoms: C_6  and  C_7
REMARK    5  A    between atoms: C_12  and  O_13
REMARK    6  A    between atoms: O_13  and  C_14
REMARK    7  A    between atoms: C_14  and  C_15
REMARK    8  A    between atoms: C_15  and  C_16
REMARK    9  A    between atoms: C_15  and  C_17
REMARK   10  A    between atoms: C_15  and  C_18
REMARK   11  A    between atoms: C_21  and  O_22
REMARK   12  A    between atoms: O_22  and  C_23
REMARK                            x       y       z     vdW  Elec       q    Type
REMARK                         _______ _______ _______ _____ _____    ______ ____
ROOT
ATOM      1  O   UNL     1      48.816   7.800  15.434  0.00  0.00    +0.000 OA
ENDROOT
BRANCH   1   7
ATOM      2  C   UNL     1      48.891   7.413  17.776  0.00  0.00    +0.000 A 
ATOM      3  N   UNL     1      48.884   6.609  18.878  0.00  0.00    +0.000 NA
ATOM      4  C   UNL     1      48.743   5.271  18.672  0.00  0.00    +0.000 A 
ATOM      5  C   UNL     1      48.630   4.694  17.420  0.00  0.00    +0.000 A 
ATOM      6  C   UNL     1      48.658   5.527  16.308  0.00  0.00    +0.000 A 
ATOM      7  C   UNL     1      48.764   6.910  16.471  0.00  0.00    +0.000 A 
BRANCH   4   8
ATOM      8  C   UNL     1      48.699   4.403  19.890  0.00  0.00    +0.000 C 
ATOM      9  N   UNL     1      48.374   3.091  19.662  0.00  0.00    +0.000 N 
ATOM     10  O   UNL     1      48.934   4.823  21.016  0.00  0.00    +0.000 OA
ATOM     11  H   UNL     1      48.188   2.786  18.714  0.00  0.00    +0.000 HD
ATOM     12  H   UNL     1      48.327   2.450  20.437  0.00  0.00    +0.000 HD
ENDBRANCH   4   8
BRANCH   2  14
ATOM     13  C   UNL     1      47.647   9.423  18.569  0.00  0.00    +0.000 C 
ATOM     14  C   UNL     1      48.988   8.908  18.041  0.00  0.00    +0.000 C 
ATOM     15  C   UNL     1      50.121   9.238  19.016  0.00  0.00    +0.000 C 
ENDBRANCH   2  14
ENDBRANCH   1   7
BRANCH   1  16
ATOM     16  C   UNL     1      49.115   7.290  14.132  0.00  0.00    +0.000 C 
BRANCH  16  17
ATOM     17  C   UNL     1      47.987   7.557  13.090  0.00  0.00    +0.000 C 
ATOM     18  C   UNL     1      47.466   8.987  13.387  0.00  0.00    +0.000 C 
ATOM     19  C   UNL     1      48.583   7.589  11.663  0.00  0.00    +0.000 C 
BRANCH  17  20
ATOM     20  C   UNL     1      46.863   6.499  13.138  0.00  0.00    +0.000 A 
ATOM     21  C   UNL     1      45.511   6.818  12.928  0.00  0.00    +0.000 A 
ATOM     22  C   UNL     1      44.521   5.827  12.883  0.00  0.00    +0.000 A 
ATOM     23  C   UNL     1      44.858   4.487  13.045  0.00  0.00    +0.000 A 
ATOM     24  C   UNL     1      46.179   4.152  13.326  0.00  0.00    +0.000 A 
ATOM     25  C   UNL     1      47.167   5.142  13.357  0.00  0.00    +0.000 A 
BRANCH  23  26
ATOM     26  O   UNL     1      43.988   3.439  12.963  0.00  0.00    +0.000 OA
BRANCH  26  27
ATOM     27  C   UNL     1      43.587   3.101  11.644  0.00  0.00    +0.000 C 
ATOM     28  F   UNL     1      42.626   3.983  11.270  0.00  0.00    +0.000 F 
ATOM     29  F   UNL     1      44.640   3.290  10.809  0.00  0.00    +0.000 F 
ENDBRANCH  26  27
ENDBRANCH  23  26
ENDBRANCH  17  20
ENDBRANCH  16  17
ENDBRANCH   1  16
TORSDOF 8
ENDMDL
MODEL 9
REMARK VINA RESULT:    -5.722      3.780      7.726
REMARK INTER + INTRA:          -9.794
REMARK INTER:                  -7.839
REMARK INTRA:                  -1.955
REMARK UNBOUND:                -1.396
REMARK  Name = 
REMARK  12 active torsions:
REMARK  status: ('A' for Active; 'I' for Inactive)
REMARK    1  A    between atoms: C_1  and  C_2
REMARK    2  A    between atoms: C_2  and  C_3
REMARK    3  A    between atoms: C_2  and  C_4
REMARK    4  A    between atoms: C_6  and  C_7
REMARK    5  A    between atoms: C_12  and  O_13
REMARK    6  A    between atoms: O_13  and  C_14
REMARK    7  A    between atoms: C_14  and  C_15
REMARK    8  A    between atoms: C_15  and  C_16
REMARK    9  A    between atoms: C_15  and  C_17
REMARK   10  A    between atoms: C_15  and  C_18
REMARK   11  A    between atoms: C_21  and  O_22
REMARK   12  A    between atoms: O_22  and  C_23
REMARK                            x       y       z     vdW  Elec       q    Type
REMARK                         _______ _______ _______ _____ _____    ______ ____
ROOT
ATOM      1  O   UNL     1      47.915   4.915  14.650  0.00  0.00    +0.000 OA
ENDROOT
BRANCH   1   7
ATOM      2  C   UNL     1      46.832   5.988  12.829  0.00  0.00    +0.000 A 
ATOM      3  N   UNL     1      45.946   6.030  11.793  0.00  0.00    +0.000 NA
ATOM      4  C   UNL     1      45.238   4.897  11.532  0.00  0.00    +0.000 A 
ATOM      5  C   UNL     1      45.354   3.732  12.268  0.00  0.00    +0.000 A 
ATOM      6  C   UNL     1      46.250   3.714  13.331  0.00  0.00    +0.000 A 
ATOM      7  C   UNL     1      47.025   4.840  13.614  0.00  0.00    +0.000 A 
BRANCH   4   8
ATOM      8  C   UNL     1      44.297   4.943  10.370  0.00  0.00    +0.000 C 
ATOM      9  N   UNL     1      44.878   4.782   9.140  0.00  0.00    +0.000 N 
ATOM     10  O   UNL     1      43.090   5.111  10.497  0.00  0.00    +0.000 OA
ATOM     11  H   UNL     1      45.880   4.645   9.081  0.00  0.00    +0.000 HD
ATOM     12  H   UNL     1      44.303   4.801   8.313  0.00  0.00    +0.000 HD
ENDBRANCH   4   8
BRANCH   2  14
ATOM     13  C   UNL     1      48.493   7.546  11.812  0.00  0.00    +0.000 C 
ATOM     14  C   UNL     1      47.653   7.249  13.056  0.00  0.00    +0.000 C 
ATOM     15  C   UNL     1      46.766   8.445  13.414  0.00  0.00    +0.000 C 
ENDBRANCH   2  14
ENDBRANCH   1   7
BRANCH   1  16
ATOM     16  C   UNL     1      47.492   4.437  15.929  0.00  0.00    +0.000 C 
BRANCH  16  17
ATOM     17  C   UNL     1      48.352   4.984  17.108  0.00  0.00    +0.000 C 
ATOM     18  C   UNL     1      47.367   5.200  18.286  0.00  0.00    +0.000 C 
ATOM     19  C   UNL     1      49.365   3.909  17.566  0.00  0.00    +0.000 C 
BRANCH  17  20
ATOM     20  C   UNL     1      49.122   6.272  16.742  0.00  0.00    +0.000 A 
ATOM     21  C   UNL     1      50.478   6.265  16.370  0.00  0.00    +0.000 A 
ATOM     22  C   UNL     1      51.130   7.433  15.951  0.00  0.00    +0.000 A 
ATOM     23  C   UNL     1      50.442   8.640  15.888  0.00  0.00    +0.000 A 
ATOM     24  C   UNL     1      49.120   8.687  16.319  0.00  0.00    +0.000 A 
ATOM     25  C   UNL     1      48.467   7.518  16.724  0.00  0.00    +0.000 A 
BRANCH  23  26
ATOM     26  O   UNL     1      50.960   9.821  15.442  0.00  0.00    +0.000 OA
BRANCH  26  27
ATOM     27  C   UNL     1      50.814  10.046  14.049  0.00  0.00    +0.000 C 
ATOM     28  F   UNL     1      51.026   8.863  13.420  0.00  0.00    +0.000 F 
ATOM     29  F   UNL     1      49.527  10.398  13.800  0.00  0.00    +0.000 F 
ENDBRANCH  26  27
ENDBRANCH  23  26
ENDBRANCH  17  20
ENDBRANCH  16  17
ENDBRANCH   1  16
TORSDOF 8
ENDMDL
