MODEL 1
REMARK VINA RESULT:    -7.753      0.000      0.000
REMARK INTER + INTRA:         -11.174
REMARK INTER:                 -10.472
REMARK INTRA:                  -0.703
REMARK UNBOUND:                -0.703
REMARK  Name = 
REMARK  7 active torsions:
REMARK  status: ('A' for Active; 'I' for Inactive)
REMARK    1  A    between atoms: N_1  and  C_2
REMARK    2  A    between atoms: C_2  and  C_3
REMARK    3  A    between atoms: C_3  and  C_4
REMARK    4  A    between atoms: C_7  and  C_8
REMARK    5  A    between atoms: C_8  and  C_9
REMARK    6  A    between atoms: C_15  and  C_16
REMARK    7  A    between atoms: C_16  and  O_17
REMARK                            x       y       z     vdW  Elec       q    Type
REMARK                         _______ _______ _______ _____ _____    ______ ____
ROOT
ATOM      1  C   UNL     1      44.286   6.163  11.530  0.00  0.00    +0.000 A 
ATOM      2  C   UNL     1      44.427   7.462  11.072  0.00  0.00    +0.000 A 
ATOM      3  N   UNL     1      45.390   8.082  11.818  0.00  0.00    +0.000 N 
ATOM      4  C   UNL     1      46.057   7.146  12.570  0.00  0.00    +0.000 A 
ATOM      5  C   UNL     1      47.286   7.234  13.230  0.00  0.00    +0.000 A 
ATOM      6  C   UNL     1      47.668   6.148  14.021  0.00  0.00    +0.000 A 
ATOM      7  C   UNL     1      46.813   5.056  14.217  0.00  0.00    +0.000 A 
ATOM      8  C   UNL     1      45.620   4.962  13.471  0.00  0.00    +0.000 A 
ATOM      9  C   UNL     1      45.265   5.999  12.579  0.00  0.00    +0.000 A 
ATOM     10  H   UNL     1      45.642   9.058  11.761  0.00  0.00    +0.000 HD
ENDROOT
BRANCH   1  11
ATOM     11  C   UNL     1      43.438   5.091  10.915  0.00  0.00    +0.000 C 
BRANCH  11  15
ATOM     12  C   UNL     1      45.849   2.584   8.328  0.00  0.00    +0.000 A 
ATOM     13  C   UNL     1      44.978   2.004   9.260  0.00  0.00    +0.000 A 
ATOM     14  C   UNL     1      44.216   2.814  10.111  0.00  0.00    +0.000 A 
ATOM     15  C   UNL     1      44.303   4.212  10.043  0.00  0.00    +0.000 A 
ATOM     16  C   UNL     1      45.167   4.784   9.101  0.00  0.00    +0.000 A 
ATOM     17  C   UNL     1      45.928   3.978   8.248  0.00  0.00    +0.000 A 
BRANCH  12  18
ATOM     18  C   UNL     1      46.706   1.721   7.427  0.00  0.00    +0.000 C 
BRANCH  18  19
ATOM     19  C   UNL     1      47.926   2.457   6.865  0.00  0.00    +0.000 C 
BRANCH  19  20
ATOM     20  N   UNL     1      48.408   1.805   5.647  0.00  0.00    +0.000 NA
ATOM     21  H   UNL     1      48.960   2.468   5.105  0.00  0.00    +0.000 HD
ATOM     22  H   UNL     1      47.616   1.545   5.060  0.00  0.00    +0.000 HD
ENDBRANCH  19  20
ENDBRANCH  18  19
ENDBRANCH  12  18
ENDBRANCH  11  15
ENDBRANCH   1  11
BRANCH   7  23
ATOM     23  C   UNL     1      47.191   4.003  15.226  0.00  0.00    +0.000 C 
BRANCH  23  24
ATOM     24  O   UNL     1      47.628   2.813  14.587  0.00  0.00    +0.000 OA
ATOM     25  H   UNL     1      47.112   2.081  14.964  0.00  0.00    +0.000 HD
ENDBRANCH  23  24
ENDBRANCH   7  23
TORSDOF 7
ENDMDL
MODEL 2
REMARK VINA RESULT:    -7.299      1.516      2.060
REMARK INTER + INTRA:         -10.562
REMARK INTER:                 -10.207
REMARK INTRA:                  -0.354
REMARK UNBOUND:                -0.703
REMARK  Name = 
REMARK  7 active torsions:
REMARK  status: ('A' for Active; 'I' for Inactive)
REMARK    1  A    between atoms: N_1  and  C_2
REMARK    2  A    between atoms: C_2  and  C_3
REMARK    3  A    between atoms: C_3  and  C_4
REMARK    4  A    between atoms: C_7  and  C_8
REMARK    5  A    between atoms: C_8  and  C_9
REMARK    6  A    between atoms: C_15  and  C_16
REMARK    7  A    between atoms: C_16  and  O_17
REMARK                            x       y       z     vdW  Elec       q    Type
REMARK                         _______ _______ _______ _____ _____    ______ ____
ROOT
ATOM      1  C   UNL     1      43.916   5.703  11.709  0.00  0.00    +0.000 A 
ATOM      2  C   UNL     1      43.044   6.627  11.157  0.00  0.00    +0.000 A 
ATOM      3  N   UNL     1      43.529   7.880  11.406  0.00  0.00    +0.000 N 
ATOM      4  C   UNL     1      44.817   7.787  11.873  0.00  0.00    +0.000 A 
ATOM      5  C   UNL     1      45.812   8.764  11.968  0.00  0.00    +0.000 A 
ATOM      6  C   UNL     1      47.006   8.405  12.597  0.00  0.00    +0.000 A 
ATOM      7  C   UNL     1      47.164   7.147  13.190  0.00  0.00    +0.000 A 
ATOM      8  C   UNL     1      46.175   6.159  13.003  0.00  0.00    +0.000 A 
ATOM      9  C   UNL     1      45.004   6.464  12.274  0.00  0.00    +0.000 A 
ATOM     10  H   UNL     1      43.057   8.747  11.193  0.00  0.00    +0.000 HD
ENDROOT
BRANCH   1  11
ATOM     11  C   UNL     1      43.842   4.213  11.560  0.00  0.00    +0.000 C 
BRANCH  11  15
ATOM     12  C   UNL     1      45.809   3.028   7.883  0.00  0.00    +0.000 A 
ATOM     13  C   UNL     1      45.799   4.372   8.275  0.00  0.00    +0.000 A 
ATOM     14  C   UNL     1      45.144   4.759   9.451  0.00  0.00    +0.000 A 
ATOM     15  C   UNL     1      44.497   3.812  10.258  0.00  0.00    +0.000 A 
ATOM     16  C   UNL     1      44.521   2.469   9.865  0.00  0.00    +0.000 A 
ATOM     17  C   UNL     1      45.176   2.079   8.693  0.00  0.00    +0.000 A 
BRANCH  12  18
ATOM     18  C   UNL     1      46.481   2.601   6.595  0.00  0.00    +0.000 C 
BRANCH  18  19
ATOM     19  C   UNL     1      47.754   1.780   6.819  0.00  0.00    +0.000 C 
BRANCH  19  20
ATOM     20  N   UNL     1      48.600   1.802   5.626  0.00  0.00    +0.000 NA
ATOM     21  H   UNL     1      48.019   1.681   4.797  0.00  0.00    +0.000 HD
ATOM     22  H   UNL     1      49.241   1.009   5.644  0.00  0.00    +0.000 HD
ENDBRANCH  19  20
ENDBRANCH  18  19
ENDBRANCH  12  18
ENDBRANCH  11  15
ENDBRANCH   1  11
BRANCH   7  23
ATOM     23  C   UNL     1      48.394   6.877  14.018  0.00  0.00    +0.000 C 
BRANCH  23  24
ATOM     24  O   UNL     1      49.526   6.641  13.193  0.00  0.00    +0.000 OA
ATOM     25  H   UNL     1      49.718   7.472  12.729  0.00  0.00    +0.000 HD
ENDBRANCH  23  24
ENDBRANCH   7  23
TORSDOF 7
ENDMDL
MODEL 3
REMARK VINA RESULT:    -7.244      2.036      2.918
REMARK INTER + INTRA:         -10.487
REMARK INTER:                  -9.687
REMARK INTRA:                  -0.800
REMARK UNBOUND:                -0.703
REMARK  Name = 
REMARK  7 active torsions:
REMARK  status: ('A' for Active; 'I' for Inactive)
REMARK    1  A    between atoms: N_1  and  C_2
REMARK    2  A    between atoms: C_2  and  C_3
REMARK    3  A    between atoms: C_3  and  C_4
REMARK    4  A    between atoms: C_7  and  C_8
REMARK    5  A    between atoms: C_8  and  C_9
REMARK    6  A    between atoms: C_15  and  C_16
REMARK    7  A    between atoms: C_16  and  O_17
REMARK                            x       y       z     vdW  Elec       q    Type
REMARK                         _______ _______ _______ _____ _____    ______ ____
ROOT
ATOM      1  C   UNL     1      45.487   5.217  12.357  0.00  0.00    +0.000 A 
ATOM      2  C   UNL     1      45.202   4.550  13.537  0.00  0.00    +0.000 A 
ATOM      3  N   UNL     1      46.257   4.710  14.390  0.00  0.00    +0.000 N 
ATOM      4  C   UNL     1      47.100   5.675  13.897  0.00  0.00    +0.000 A 
ATOM      5  C   UNL     1      48.113   6.395  14.536  0.00  0.00    +0.000 A 
ATOM      6  C   UNL     1      48.894   7.243  13.746  0.00  0.00    +0.000 A 
ATOM      7  C   UNL     1      48.727   7.299  12.357  0.00  0.00    +0.000 A 
ATOM      8  C   UNL     1      47.643   6.625  11.758  0.00  0.00    +0.000 A 
ATOM      9  C   UNL     1      46.771   5.848  12.553  0.00  0.00    +0.000 A 
ATOM     10  H   UNL     1      46.359   4.264  15.290  0.00  0.00    +0.000 HD
ENDROOT
BRANCH   1  11
ATOM     11  C   UNL     1      44.555   5.413  11.200  0.00  0.00    +0.000 C 
BRANCH  11  15
ATOM     12  C   UNL     1      45.943   2.906   7.947  0.00  0.00    +0.000 A 
ATOM     13  C   UNL     1      46.203   4.282   7.937  0.00  0.00    +0.000 A 
ATOM     14  C   UNL     1      45.735   5.096   8.976  0.00  0.00    +0.000 A 
ATOM     15  C   UNL     1      45.009   4.551  10.045  0.00  0.00    +0.000 A 
ATOM     16  C   UNL     1      44.763   3.173  10.054  0.00  0.00    +0.000 A 
ATOM     17  C   UNL     1      45.231   2.357   9.018  0.00  0.00    +0.000 A 
BRANCH  12  18
ATOM     18  C   UNL     1      46.410   2.020   6.812  0.00  0.00    +0.000 C 
BRANCH  18  19
ATOM     19  C   UNL     1      47.913   1.727   6.852  0.00  0.00    +0.000 C 
BRANCH  19  20
ATOM     20  N   UNL     1      48.505   1.877   5.522  0.00  0.00    +0.000 NA
ATOM     21  H   UNL     1      47.779   2.138   4.856  0.00  0.00    +0.000 HD
ATOM     22  H   UNL     1      48.873   0.980   5.206  0.00  0.00    +0.000 HD
ENDBRANCH  19  20
ENDBRANCH  18  19
ENDBRANCH  12  18
ENDBRANCH  11  15
ENDBRANCH   1  11
BRANCH   7  23
ATOM     23  C   UNL     1      49.715   8.082  11.532  0.00  0.00    +0.000 C 
BRANCH  23  24
ATOM     24  O   UNL     1      50.966   7.415  11.461  0.00  0.00    +0.000 OA
ATOM     25  H   UNL     1      50.910   6.780  10.728  0.00  0.00    +0.000 HD
ENDBRANCH  23  24
ENDBRANCH   7  23
TORSDOF 7
ENDMDL
MODEL 4
REMARK VINA RESULT:    -7.041      3.029      6.777
REMARK INTER + INTRA:         -10.213
REMARK INTER:                 -10.262
REMARK INTRA:                   0.050
REMARK UNBOUND:                -0.703
REMARK  Name = 
REMARK  7 active torsions:
REMARK  status: ('A' for Active; 'I' for Inactive)
REMARK    1  A    between atoms: N_1  and  C_2
REMARK    2  A    between atoms: C_2  and  C_3
REMARK    3  A    between atoms: C_3  and  C_4
REMARK    4  A    between atoms: C_7  and  C_8
REMARK    5  A    between atoms: C_8  and  C_9
REMARK    6  A    between atoms: C_15  and  C_16
REMARK    7  A    between atoms: C_16  and  O_17
REMARK                            x       y       z     vdW  Elec       q    Type
REMARK                         _______ _______ _______ _____ _____    ______ ____
ROOT
ATOM      1  C   UNL     1      44.872   4.198   9.757  0.00  0.00    +0.000 A 
ATOM      2  C   UNL     1      44.114   3.314  10.508  0.00  0.00    +0.000 A 
ATOM      3  N   UNL     1      44.210   2.074   9.943  0.00  0.00    +0.000 N 
ATOM      4  C   UNL     1      45.213   2.077   9.004  0.00  0.00    +0.000 A 
ATOM      5  C   UNL     1      45.883   1.009   8.402  0.00  0.00    +0.000 A 
ATOM      6  C   UNL     1      46.791   1.313   7.385  0.00  0.00    +0.000 A 
ATOM      7  C   UNL     1      46.954   2.625   6.926  0.00  0.00    +0.000 A 
ATOM      8  C   UNL     1      46.327   3.686   7.610  0.00  0.00    +0.000 A 
ATOM      9  C   UNL     1      45.488   3.413   8.714  0.00  0.00    +0.000 A 
ATOM     10  H   UNL     1      43.695   1.255  10.230  0.00  0.00    +0.000 HD
ENDROOT
BRANCH   1  11
ATOM     11  C   UNL     1      45.155   5.631  10.092  0.00  0.00    +0.000 C 
BRANCH  11  15
ATOM     12  C   UNL     1      47.410   5.765  13.792  0.00  0.00    +0.000 A 
ATOM     13  C   UNL     1      46.411   4.800  13.609  0.00  0.00    +0.000 A 
ATOM     14  C   UNL     1      45.667   4.772  12.424  0.00  0.00    +0.000 A 
ATOM     15  C   UNL     1      45.912   5.696  11.398  0.00  0.00    +0.000 A 
ATOM     16  C   UNL     1      46.920   6.649  11.583  0.00  0.00    +0.000 A 
ATOM     17  C   UNL     1      47.666   6.679  12.765  0.00  0.00    +0.000 A 
BRANCH  12  18
ATOM     18  C   UNL     1      48.197   5.831  15.083  0.00  0.00    +0.000 C 
BRANCH  18  19
ATOM     19  C   UNL     1      47.760   4.786  16.113  0.00  0.00    +0.000 C 
BRANCH  19  20
ATOM     20  N   UNL     1      48.918   4.065  16.643  0.00  0.00    +0.000 NA
ATOM     21  H   UNL     1      49.745   4.659  16.576  0.00  0.00    +0.000 HD
ATOM     22  H   UNL     1      49.107   3.246  16.067  0.00  0.00    +0.000 HD
ENDBRANCH  19  20
ENDBRANCH  18  19
ENDBRANCH  12  18
ENDBRANCH  11  15
ENDBRANCH   1  11
BRANCH   7  23
ATOM     23  C   UNL     1      47.801   2.874   5.704  0.00  0.00    +0.000 C 
BRANCH  23  24
ATOM     24  O   UNL     1      48.636   1.760   5.424  0.00  0.00    +0.000 OA
ATOM     25  H   UNL     1      48.416   1.069   6.070  0.00  0.00    +0.000 HD
ENDBRANCH  23  24
ENDBRANCH   7  23
TORSDOF 7
ENDMDL
MODEL 5
REMARK VINA RESULT:    -6.991      2.493      3.547
REMARK INTER + INTRA:         -10.146
REMARK INTER:                  -9.506
REMARK INTRA:                  -0.639
REMARK UNBOUND:                -0.703
REMARK  Name = 
REMARK  7 active torsions:
REMARK  status: ('A' for Active; 'I' for Inactive)
REMARK    1  A    between atoms: N_1  and  C_2
REMARK    2  A    between atoms: C_2  and  C_3
REMARK    3  A    between atoms: C_3  and  C_4
REMARK    4  A    between atoms: C_7  and  C_8
REMARK    5  A    between atoms: C_8  and  C_9
REMARK    6  A    between atoms: C_15  and  C_16
REMARK    7  A    between atoms: C_16  and  O_17
REMARK                            x       y       z     vdW  Elec       q    Type
REMARK                         _______ _______ _______ _____ _____    ______ ____
ROOT
ATOM      1  C   UNL     1      45.054   5.494  11.986  0.00  0.00    +0.000 A 
ATOM      2  C   UNL     1      45.951   5.165  12.988  0.00  0.00    +0.000 A 
ATOM      3  N   UNL     1      46.567   6.309  13.411  0.00  0.00    +0.000 N 
ATOM      4  C   UNL     1      45.908   7.399  12.896  0.00  0.00    +0.000 A 
ATOM      5  C   UNL     1      45.959   8.742  13.277  0.00  0.00    +0.000 A 
ATOM      6  C   UNL     1      45.259   9.659  12.489  0.00  0.00    +0.000 A 
ATOM      7  C   UNL     1      44.610   9.260  11.315  0.00  0.00    +0.000 A 
ATOM      8  C   UNL     1      44.508   7.888  11.006  0.00  0.00    +0.000 A 
ATOM      9  C   UNL     1      45.115   6.930  11.849  0.00  0.00    +0.000 A 
ATOM     10  H   UNL     1      47.326   6.358  14.074  0.00  0.00    +0.000 HD
ENDROOT
BRANCH   1  11
ATOM     11  C   UNL     1      44.074   4.569  11.332  0.00  0.00    +0.000 C 
BRANCH  11  15
ATOM     12  C   UNL     1      45.919   2.581   7.950  0.00  0.00    +0.000 A 
ATOM     13  C   UNL     1      45.291   1.831   8.952  0.00  0.00    +0.000 A 
ATOM     14  C   UNL     1      44.715   2.471  10.056  0.00  0.00    +0.000 A 
ATOM     15  C   UNL     1      44.747   3.869  10.175  0.00  0.00    +0.000 A 
ATOM     16  C   UNL     1      45.366   4.612   9.163  0.00  0.00    +0.000 A 
ATOM     17  C   UNL     1      45.940   3.975   8.058  0.00  0.00    +0.000 A 
BRANCH  12  18
ATOM     18  C   UNL     1      46.578   1.900   6.769  0.00  0.00    +0.000 C 
BRANCH  18  19
ATOM     19  C   UNL     1      48.075   2.201   6.655  0.00  0.00    +0.000 C 
BRANCH  19  20
ATOM     20  N   UNL     1      48.482   2.279   5.252  0.00  0.00    +0.000 NA
ATOM     21  H   UNL     1      49.494   2.395   5.199  0.00  0.00    +0.000 HD
ATOM     22  H   UNL     1      48.077   3.110   4.822  0.00  0.00    +0.000 HD
ENDBRANCH  19  20
ENDBRANCH  18  19
ENDBRANCH  12  18
ENDBRANCH  11  15
ENDBRANCH   1  11
BRANCH   7  23
ATOM     23  C   UNL     1      44.033  10.313  10.403  0.00  0.00    +0.000 C 
BRANCH  23  24
ATOM     24  O   UNL     1      42.852   9.849   9.766  0.00  0.00    +0.000 OA
ATOM     25  H   UNL     1      43.028   8.941   9.467  0.00  0.00    +0.000 HD
ENDBRANCH  23  24
ENDBRANCH   7  23
TORSDOF 7
ENDMDL
MODEL 6
REMARK VINA RESULT:    -6.656      2.962      6.425
REMARK INTER + INTRA:          -9.693
REMARK INTER:                  -9.165
REMARK INTRA:                  -0.528
REMARK UNBOUND:                -0.703
REMARK  Name = 
REMARK  7 active torsions:
REMARK  status: ('A' for Active; 'I' for Inactive)
REMARK    1  A    between atoms: N_1  and  C_2
REMARK    2  A    between atoms: C_2  and  C_3
REMARK    3  A    between atoms: C_3  and  C_4
REMARK    4  A    between atoms: C_7  and  C_8
REMARK    5  A    between atoms: C_8  and  C_9
REMARK    6  A    between atoms: C_15  and  C_16
REMARK    7  A    between atoms: C_16  and  O_17
REMARK                            x       y       z     vdW  Elec       q    Type
REMARK                         _______ _______ _______ _____ _____    ______ ____
ROOT
ATOM      1  C   UNL     1      43.896   5.637  11.216  0.00  0.00    +0.000 A 
ATOM      2  C   UNL     1      43.095   4.997  12.147  0.00  0.00    +0.000 A 
ATOM      3  N   UNL     1      42.928   3.699  11.753  0.00  0.00    +0.000 N 
ATOM      4  C   UNL     1      43.808   3.413  10.738  0.00  0.00    +0.000 A 
ATOM      5  C   UNL     1      44.228   2.180  10.233  0.00  0.00    +0.000 A 
ATOM      6  C   UNL     1      45.055   2.195   9.108  0.00  0.00    +0.000 A 
ATOM      7  C   UNL     1      45.374   3.394   8.458  0.00  0.00    +0.000 A 
ATOM      8  C   UNL     1      45.004   4.623   9.041  0.00  0.00    +0.000 A 
ATOM      9  C   UNL     1      44.260   4.636  10.242  0.00  0.00    +0.000 A 
ATOM     10  H   UNL     1      42.324   3.022  12.196  0.00  0.00    +0.000 HD
ENDROOT
BRANCH   1  11
ATOM     11  C   UNL     1      44.440   7.030  11.321  0.00  0.00    +0.000 C 
BRANCH  11  15
ATOM     12  C   UNL     1      47.991   7.057  13.808  0.00  0.00    +0.000 A 
ATOM     13  C   UNL     1      47.635   5.902  13.098  0.00  0.00    +0.000 A 
ATOM     14  C   UNL     1      46.476   5.886  12.313  0.00  0.00    +0.000 A 
ATOM     15  C   UNL     1      45.658   7.021  12.215  0.00  0.00    +0.000 A 
ATOM     16  C   UNL     1      46.026   8.174  12.918  0.00  0.00    +0.000 A 
ATOM     17  C   UNL     1      47.184   8.194  13.701  0.00  0.00    +0.000 A 
BRANCH  12  18
ATOM     18  C   UNL     1      49.221   7.076  14.690  0.00  0.00    +0.000 C 
BRANCH  18  19
ATOM     19  C   UNL     1      48.933   6.678  16.140  0.00  0.00    +0.000 C 
BRANCH  19  20
ATOM     20  N   UNL     1      49.221   5.259  16.354  0.00  0.00    +0.000 NA
ATOM     21  H   UNL     1      49.706   4.886  15.538  0.00  0.00    +0.000 HD
ATOM     22  H   UNL     1      48.348   4.739  16.430  0.00  0.00    +0.000 HD
ENDBRANCH  19  20
ENDBRANCH  18  19
ENDBRANCH  12  18
ENDBRANCH  11  15
ENDBRANCH   1  11
BRANCH   7  23
ATOM     23  C   UNL     1      46.109   3.340   7.143  0.00  0.00    +0.000 C 
BRANCH  23  24
ATOM     24  O   UNL     1      47.049   4.399   7.038  0.00  0.00    +0.000 OA
ATOM     25  H   UNL     1      47.434   4.527   7.921  0.00  0.00    +0.000 HD
ENDBRANCH  23  24
ENDBRANCH   7  23
TORSDOF 7
ENDMDL
MODEL 7
REMARK VINA RESULT:    -6.271      3.082      6.513
REMARK INTER + INTRA:          -9.173
REMARK INTER:                  -8.700
REMARK INTRA:                  -0.473
REMARK UNBOUND:                -0.703
REMARK  Name = 
REMARK  7 active torsions:
REMARK  status: ('A' for Active; 'I' for Inactive)
REMARK    1  A    between atoms: N_1  and  C_2
REMARK    2  A    between atoms: C_2  and  C_3
REMARK    3  A    between atoms: C_3  and  C_4
REMARK    4  A    between atoms: C_7  and  C_8
REMARK    5  A    between atoms: C_8  and  C_9
REMARK    6  A    between atoms: C_15  and  C_16
REMARK    7  A    between atoms: C_16  and  O_17
REMARK                            x       y       z     vdW  Elec       q    Type
REMARK                         _______ _______ _______ _____ _____    ______ ____
ROOT
ATOM      1  C   UNL     1      46.341   7.253  11.900  0.00  0.00    +0.000 A 
ATOM      2  C   UNL     1      45.554   8.334  12.261  0.00  0.00    +0.000 A 
ATOM      3  N   UNL     1      44.269   8.082  11.872  0.00  0.00    +0.000 N 
ATOM      4  C   UNL     1      44.153   6.764  11.505  0.00  0.00    +0.000 A 
ATOM      5  C   UNL     1      43.012   5.974  11.340  0.00  0.00    +0.000 A 
ATOM      6  C   UNL     1      43.194   4.680  10.845  0.00  0.00    +0.000 A 
ATOM      7  C   UNL     1      44.457   4.227  10.444  0.00  0.00    +0.000 A 
ATOM      8  C   UNL     1      45.595   5.018  10.702  0.00  0.00    +0.000 A 
ATOM      9  C   UNL     1      45.449   6.287  11.305  0.00  0.00    +0.000 A 
ATOM     10  H   UNL     1      43.498   8.731  11.932  0.00  0.00    +0.000 HD
ENDROOT
BRANCH   1  11
ATOM     11  C   UNL     1      47.784   7.049  12.250  0.00  0.00    +0.000 C 
BRANCH  11  15
ATOM     12  C   UNL     1      48.149   5.178  16.144  0.00  0.00    +0.000 A 
ATOM     13  C   UNL     1      47.307   4.624  15.171  0.00  0.00    +0.000 A 
ATOM     14  C   UNL     1      47.171   5.241  13.922  0.00  0.00    +0.000 A 
ATOM     15  C   UNL     1      47.878   6.413  13.618  0.00  0.00    +0.000 A 
ATOM     16  C   UNL     1      48.726   6.955  14.591  0.00  0.00    +0.000 A 
ATOM     17  C   UNL     1      48.866   6.340  15.839  0.00  0.00    +0.000 A 
BRANCH  12  18
ATOM     18  C   UNL     1      48.277   4.543  17.512  0.00  0.00    +0.000 C 
BRANCH  18  19
ATOM     19  C   UNL     1      48.040   3.030  17.502  0.00  0.00    +0.000 C 
BRANCH  19  20
ATOM     20  N   UNL     1      46.646   2.722  17.822  0.00  0.00    +0.000 NA
ATOM     21  H   UNL     1      46.285   3.423  18.469  0.00  0.00    +0.000 HD
ATOM     22  H   UNL     1      46.595   1.829  18.311  0.00  0.00    +0.000 HD
ENDBRANCH  19  20
ENDBRANCH  18  19
ENDBRANCH  12  18
ENDBRANCH  11  15
ENDBRANCH   1  11
BRANCH   7  23
ATOM     23  C   UNL     1      44.569   2.899   9.741  0.00  0.00    +0.000 C 
BRANCH  23  24
ATOM     24  O   UNL     1      44.238   3.016   8.366  0.00  0.00    +0.000 OA
ATOM     25  H   UNL     1      43.430   3.554   8.312  0.00  0.00    +0.000 HD
ENDBRANCH  23  24
ENDBRANCH   7  23
TORSDOF 7
ENDMDL
MODEL 8
REMARK VINA RESULT:    -5.788      4.111      7.384
REMARK INTER + INTRA:          -8.521
REMARK INTER:                  -8.140
REMARK INTRA:                  -0.381
REMARK UNBOUND:                -0.703
REMARK  Name = 
REMARK  7 active torsions:
REMARK  status: ('A' for Active; 'I' for Inactive)
REMARK    1  A    between atoms: N_1  and  C_2
REMARK    2  A    between atoms: C_2  and  C_3
REMARK    3  A    between atoms: C_3  and  C_4
REMARK    4  A    between atoms: C_7  and  C_8
REMARK    5  A    between atoms: C_8  and  C_9
REMARK    6  A    between atoms: C_15  and  C_16
REMARK    7  A    between atoms: C_16  and  O_17
REMARK                            x       y       z     vdW  Elec       q    Type
REMARK                         _______ _______ _______ _____ _____    ______ ____
ROOT
ATOM      1  C   UNL     1      47.262   5.069  14.702  0.00  0.00    +0.000 A 
ATOM      2  C   UNL     1      48.080   6.163  14.476  0.00  0.00    +0.000 A 
ATOM      3  N   UNL     1      47.949   6.539  13.168  0.00  0.00    +0.000 N 
ATOM      4  C   UNL     1      46.878   5.884  12.611  0.00  0.00    +0.000 A 
ATOM      5  C   UNL     1      46.170   6.156  11.437  0.00  0.00    +0.000 A 
ATOM      6  C   UNL     1      45.185   5.243  11.055  0.00  0.00    +0.000 A 
ATOM      7  C   UNL     1      44.979   4.056  11.770  0.00  0.00    +0.000 A 
ATOM      8  C   UNL     1      45.650   3.854  12.994  0.00  0.00    +0.000 A 
ATOM      9  C   UNL     1      46.573   4.819  13.458  0.00  0.00    +0.000 A 
ATOM     10  H   UNL     1      48.489   7.254  12.704  0.00  0.00    +0.000 HD
ENDROOT
BRANCH   1  11
ATOM     11  C   UNL     1      46.996   4.417  16.024  0.00  0.00    +0.000 C 
BRANCH  11  15
ATOM     12  C   UNL     1      50.750   2.815  17.486  0.00  0.00    +0.000 A 
ATOM     13  C   UNL     1      49.844   1.986  16.812  0.00  0.00    +0.000 A 
ATOM     14  C   UNL     1      48.622   2.498  16.361  0.00  0.00    +0.000 A 
ATOM     15  C   UNL     1      48.286   3.844  16.564  0.00  0.00    +0.000 A 
ATOM     16  C   UNL     1      49.201   4.669  17.228  0.00  0.00    +0.000 A 
ATOM     17  C   UNL     1      50.424   4.162  17.679  0.00  0.00    +0.000 A 
BRANCH  12  18
ATOM     18  C   UNL     1      52.059   2.267  18.014  0.00  0.00    +0.000 C 
BRANCH  18  19
ATOM     19  C   UNL     1      52.428   0.905  17.419  0.00  0.00    +0.000 C 
BRANCH  19  20
ATOM     20  N   UNL     1      52.284  -0.153  18.420  0.00  0.00    +0.000 NA
ATOM     21  H   UNL     1      51.442  -0.693  18.221  0.00  0.00    +0.000 HD
ATOM     22  H   UNL     1      52.146   0.262  19.341  0.00  0.00    +0.000 HD
ENDBRANCH  19  20
ENDBRANCH  18  19
ENDBRANCH  12  18
ENDBRANCH  11  15
ENDBRANCH   1  11
BRANCH   7  23
ATOM     23  C   UNL     1      44.040   3.018  11.212  0.00  0.00    +0.000 C 
BRANCH  23  24
ATOM     24  O   UNL     1      44.696   2.192  10.262  0.00  0.00    +0.000 OA
ATOM     25  H   UNL     1      45.240   2.773   9.706  0.00  0.00    +0.000 HD
ENDBRANCH  23  24
ENDBRANCH   7  23
TORSDOF 7
ENDMDL
MODEL 9
REMARK VINA RESULT:    -5.548      2.995      6.563
REMARK INTER + INTRA:          -8.196
REMARK INTER:                  -7.639
REMARK INTRA:                  -0.557
REMARK UNBOUND:                -0.703
REMARK  Name = 
REMARK  7 active torsions:
REMARK  status: ('A' for Active; 'I' for Inactive)
REMARK    1  A    between atoms: N_1  and  C_2
REMARK    2  A    between atoms: C_2  and  C_3
REMARK    3  A    between atoms: C_3  and  C_4
REMARK    4  A    between atoms: C_7  and  C_8
REMARK    5  A    between atoms: C_8  and  C_9
REMARK    6  A    between atoms: C_15  and  C_16
REMARK    7  A    between atoms: C_16  and  O_17
REMARK                            x       y       z     vdW  Elec       q    Type
REMARK                         _______ _______ _______ _____ _____    ______ ____
ROOT
ATOM      1  C   UNL     1      44.909   4.498  11.923  0.00  0.00    +0.000 A 
ATOM      2  C   UNL     1      44.009   3.742  12.655  0.00  0.00    +0.000 A 
ATOM      3  N   UNL     1      43.466   2.798  11.829  0.00  0.00    +0.000 N 
ATOM      4  C   UNL     1      44.178   2.753  10.656  0.00  0.00    +0.000 A 
ATOM      5  C   UNL     1      44.209   1.773   9.660  0.00  0.00    +0.000 A 
ATOM      6  C   UNL     1      44.949   2.052   8.509  0.00  0.00    +0.000 A 
ATOM      7  C   UNL     1      45.558   3.299   8.321  0.00  0.00    +0.000 A 
ATOM      8  C   UNL     1      45.577   4.231   9.378  0.00  0.00    +0.000 A 
ATOM      9  C   UNL     1      44.928   3.927  10.597  0.00  0.00    +0.000 A 
ATOM     10  H   UNL     1      42.720   2.163  12.072  0.00  0.00    +0.000 HD
ENDROOT
BRANCH   1  11
ATOM     11  C   UNL     1      45.826   5.554  12.461  0.00  0.00    +0.000 C 
BRANCH  11  15
ATOM     12  C   UNL     1      44.354   9.440  11.228  0.00  0.00    +0.000 A 
ATOM     13  C   UNL     1      45.593   9.328  11.872  0.00  0.00    +0.000 A 
ATOM     14  C   UNL     1      46.058   8.075  12.291  0.00  0.00    +0.000 A 
ATOM     15  C   UNL     1      45.302   6.915  12.067  0.00  0.00    +0.000 A 
ATOM     16  C   UNL     1      44.070   7.035  11.413  0.00  0.00    +0.000 A 
ATOM     17  C   UNL     1      43.604   8.284  10.991  0.00  0.00    +0.000 A 
BRANCH  12  18
ATOM     18  C   UNL     1      43.821  10.792  10.803  0.00  0.00    +0.000 C 
BRANCH  18  19
ATOM     19  C   UNL     1      42.941  10.731   9.551  0.00  0.00    +0.000 C 
BRANCH  19  20
ATOM     20  N   UNL     1      43.764  10.641   8.344  0.00  0.00    +0.000 NA
ATOM     21  H   UNL     1      43.162  10.666   7.522  0.00  0.00    +0.000 HD
ATOM     22  H   UNL     1      44.243   9.741   8.320  0.00  0.00    +0.000 HD
ENDBRANCH  19  20
ENDBRANCH  18  19
ENDBRANCH  12  18
ENDBRANCH  11  15
ENDBRANCH   1  11
BRANCH   7  23
ATOM     23  C   UNL     1      46.181   3.616   6.986  0.00  0.00    +0.000 C 
BRANCH  23  24
ATOM     24  O   UNL     1      47.293   4.485   7.133  0.00  0.00    +0.000 OA
ATOM     25  H   UNL     1      48.094   3.937   7.077  0.00  0.00    +0.000 HD
ENDBRANCH  23  24
ENDBRANCH   7  23
TORSDOF 7
ENDMDL
