MODEL 1
REMARK VINA RESULT:    -9.153      0.000      0.000
REMARK INTER + INTRA:         -11.990
REMARK INTER:                 -11.828
REMARK INTRA:                  -0.162
REMARK UNBOUND:                -0.162
REMARK  Name = 
REMARK  5 active torsions:
REMARK  status: ('A' for Active; 'I' for Inactive)
REMARK    1  A    between atoms: C_2  and  C_3
REMARK    2  A    between atoms: C_6  and  C_7
REMARK    3  A    between atoms: C_11  and  C_12
REMARK    4  A    between atoms: C_12  and  N_13
REMARK    5  A    between atoms: C_17  and  C_18
REMARK                            x       y       z     vdW  Elec       q    Type
REMARK                         _______ _______ _______ _____ _____    ______ ____
ROOT
ATOM      1  C   UNL     1      44.003   5.223  11.214  0.00  0.00    +0.000 C 
ATOM      2  C   UNL     1      42.678   5.821  11.650  0.00  0.00    +0.000 C 
ATOM      3  C   UNL     1      42.800   4.339  11.545  0.00  0.00    +0.000 C 
ENDROOT
BRANCH   1   4
ATOM      4  N   UNL     1      44.415   5.198   9.808  0.00  0.00    +0.000 N 
ATOM      5  C   UNL     1      45.090   4.189   9.131  0.00  0.00    +0.000 A 
ATOM      6  C   UNL     1      45.121   2.858   9.524  0.00  0.00    +0.000 A 
ATOM      7  C   UNL     1      45.807   1.917   8.750  0.00  0.00    +0.000 A 
ATOM      8  C   UNL     1      46.455   2.333   7.592  0.00  0.00    +0.000 A 
ATOM      9  C   UNL     1      46.381   3.677   7.266  0.00  0.00    +0.000 A 
ATOM     10  N   UNL     1      45.709   4.598   8.004  0.00  0.00    +0.000 NA
ATOM     11  H   UNL     1      44.635   6.073   9.341  0.00  0.00    +0.000 HD
BRANCH   8  12
ATOM     12  C   UNL     1      47.245   1.426   6.735  0.00  0.00    +0.000 C 
ATOM     13  N   UNL     1      48.220   1.986   5.958  0.00  0.00    +0.000 N 
ATOM     14  O   UNL     1      47.045   0.220   6.733  0.00  0.00    +0.000 OA
ATOM     15  H   UNL     1      48.553   2.932   6.076  0.00  0.00    +0.000 HD
ATOM     16  H   UNL     1      48.801   1.347   5.429  0.00  0.00    +0.000 HD
ENDBRANCH   8  12
ENDBRANCH   1   4
BRANCH   1  21
ATOM     17  C   UNL     1      47.284   6.074  13.080  0.00  0.00    +0.000 A 
ATOM     18  C   UNL     1      47.135   5.170  14.127  0.00  0.00    +0.000 A 
ATOM     19  N   UNL     1      46.121   4.285  14.255  0.00  0.00    +0.000 NA
ATOM     20  C   UNL     1      45.175   4.311  13.287  0.00  0.00    +0.000 A 
ATOM     21  C   UNL     1      45.150   5.199  12.216  0.00  0.00    +0.000 A 
ATOM     22  C   UNL     1      46.241   6.081  12.140  0.00  0.00    +0.000 A 
BRANCH  17  26
ATOM     23  C   UNL     1      50.686   8.695  12.689  0.00  0.00    +0.000 A 
ATOM     24  C   UNL     1      49.823   8.499  11.613  0.00  0.00    +0.000 A 
ATOM     25  C   UNL     1      48.724   7.647  11.745  0.00  0.00    +0.000 A 
ATOM     26  C   UNL     1      48.467   6.954  12.944  0.00  0.00    +0.000 A 
ATOM     27  C   UNL     1      49.364   7.161  14.010  0.00  0.00    +0.000 A 
ATOM     28  C   UNL     1      50.457   8.026  13.890  0.00  0.00    +0.000 A 
BRANCH  23  30
ATOM     29  N   UNL     1      52.707  10.303  12.472  0.00  0.00    +0.000 NA
ATOM     30  C   UNL     1      51.802   9.580  12.565  0.00  0.00    +0.000 C 
ENDBRANCH  23  30
ENDBRANCH  17  26
ENDBRANCH   1  21
TORSDOF 5
ENDMDL
MODEL 2
REMARK VINA RESULT:    -7.869      2.391      3.503
REMARK INTER + INTRA:         -10.331
REMARK INTER:                  -9.515
REMARK INTRA:                  -0.817
REMARK UNBOUND:                -0.162
REMARK  Name = 
REMARK  5 active torsions:
REMARK  status: ('A' for Active; 'I' for Inactive)
REMARK    1  A    between atoms: C_2  and  C_3
REMARK    2  A    between atoms: C_6  and  C_7
REMARK    3  A    between atoms: C_11  and  C_12
REMARK    4  A    between atoms: C_12  and  N_13
REMARK    5  A    between atoms: C_17  and  C_18
REMARK                            x       y       z     vdW  Elec       q    Type
REMARK                         _______ _______ _______ _____ _____    ______ ____
ROOT
ATOM      1  C   UNL     1      44.038   5.107  11.670  0.00  0.00    +0.000 C 
ATOM      2  C   UNL     1      42.761   5.762  11.175  0.00  0.00    +0.000 C 
ATOM      3  C   UNL     1      42.741   5.037  12.478  0.00  0.00    +0.000 C 
ENDROOT
BRANCH   1   4
ATOM      4  N   UNL     1      44.502   3.822  11.143  0.00  0.00    +0.000 N 
ATOM      5  C   UNL     1      45.113   3.568   9.921  0.00  0.00    +0.000 A 
ATOM      6  C   UNL     1      45.784   4.516   9.160  0.00  0.00    +0.000 A 
ATOM      7  C   UNL     1      46.391   4.144   7.957  0.00  0.00    +0.000 A 
ATOM      8  C   UNL     1      46.309   2.821   7.536  0.00  0.00    +0.000 A 
ATOM      9  C   UNL     1      45.621   1.933   8.346  0.00  0.00    +0.000 A 
ATOM     10  N   UNL     1      45.038   2.281   9.522  0.00  0.00    +0.000 NA
ATOM     11  H   UNL     1      44.026   2.970  11.425  0.00  0.00    +0.000 HD
BRANCH   8  12
ATOM     12  C   UNL     1      46.874   2.341   6.259  0.00  0.00    +0.000 C 
ATOM     13  N   UNL     1      47.035   3.258   5.258  0.00  0.00    +0.000 N 
ATOM     14  O   UNL     1      47.201   1.173   6.108  0.00  0.00    +0.000 OA
ATOM     15  H   UNL     1      46.972   4.256   5.401  0.00  0.00    +0.000 HD
ATOM     16  H   UNL     1      47.488   2.932   4.413  0.00  0.00    +0.000 HD
ENDBRANCH   8  12
ENDBRANCH   1   4
BRANCH   1  21
ATOM     17  C   UNL     1      47.015   6.399  13.778  0.00  0.00    +0.000 A 
ATOM     18  C   UNL     1      47.168   7.625  13.140  0.00  0.00    +0.000 A 
ATOM     19  N   UNL     1      46.377   8.093  12.147  0.00  0.00    +0.000 NA
ATOM     20  C   UNL     1      45.375   7.278  11.744  0.00  0.00    +0.000 A 
ATOM     21  C   UNL     1      45.135   5.999  12.238  0.00  0.00    +0.000 A 
ATOM     22  C   UNL     1      45.987   5.585  13.274  0.00  0.00    +0.000 A 
BRANCH  17  26
ATOM     23  C   UNL     1      49.429   5.238  17.157  0.00  0.00    +0.000 A 
ATOM     24  C   UNL     1      49.755   6.373  16.418  0.00  0.00    +0.000 A 
ATOM     25  C   UNL     1      48.970   6.743  15.323  0.00  0.00    +0.000 A 
ATOM     26  C   UNL     1      47.854   5.982  14.924  0.00  0.00    +0.000 A 
ATOM     27  C   UNL     1      47.557   4.833  15.681  0.00  0.00    +0.000 A 
ATOM     28  C   UNL     1      48.329   4.467  16.790  0.00  0.00    +0.000 A 
BRANCH  23  30
ATOM     29  N   UNL     1      50.864   4.570  19.210  0.00  0.00    +0.000 NA
ATOM     30  C   UNL     1      50.217   4.866  18.290  0.00  0.00    +0.000 C 
ENDBRANCH  23  30
ENDBRANCH  17  26
ENDBRANCH   1  21
TORSDOF 5
ENDMDL
MODEL 3
REMARK VINA RESULT:    -6.929      3.876      6.102
REMARK INTER + INTRA:          -9.116
REMARK INTER:                  -8.302
REMARK INTRA:                  -0.815
REMARK UNBOUND:                -0.162
REMARK  Name = 
REMARK  5 active torsions:
REMARK  status: ('A' for Active; 'I' for Inactive)
REMARK    1  A    between atoms: C_2  and  C_3
REMARK    2  A    between atoms: C_6  and  C_7
REMARK    3  A    between atoms: C_11  and  C_12
REMARK    4  A    between atoms: C_12  and  N_13
REMARK    5  A    between atoms: C_17  and  C_18
REMARK                            x       y       z     vdW  Elec       q    Type
REMARK                         _______ _______ _______ _____ _____    ______ ____
ROOT
ATOM      1  C   UNL     1      48.484   8.158  12.794  0.00  0.00    +0.000 C 
ATOM      2  C   UNL     1      49.663   7.884  11.878  0.00  0.00    +0.000 C 
ATOM      3  C   UNL     1      49.229   9.294  12.092  0.00  0.00    +0.000 C 
ENDROOT
BRANCH   1   4
ATOM      4  N   UNL     1      47.100   7.967  12.352  0.00  0.00    +0.000 N 
ATOM      5  C   UNL     1      46.397   6.774  12.229  0.00  0.00    +0.000 A 
ATOM      6  C   UNL     1      46.711   5.599  12.898  0.00  0.00    +0.000 A 
ATOM      7  C   UNL     1      45.915   4.462  12.724  0.00  0.00    +0.000 A 
ATOM      8  C   UNL     1      44.815   4.527  11.875  0.00  0.00    +0.000 A 
ATOM      9  C   UNL     1      44.567   5.732  11.241  0.00  0.00    +0.000 A 
ATOM     10  N   UNL     1      45.326   6.845  11.410  0.00  0.00    +0.000 NA
ATOM     11  H   UNL     1      46.696   8.624  11.690  0.00  0.00    +0.000 HD
BRANCH   8  12
ATOM     12  C   UNL     1      43.944   3.369  11.589  0.00  0.00    +0.000 C 
ATOM     13  N   UNL     1      43.767   2.454  12.589  0.00  0.00    +0.000 N 
ATOM     14  O   UNL     1      43.390   3.243  10.507  0.00  0.00    +0.000 OA
ATOM     15  H   UNL     1      44.034   2.617  13.549  0.00  0.00    +0.000 HD
ATOM     16  H   UNL     1      43.113   1.704  12.405  0.00  0.00    +0.000 HD
ENDBRANCH   8  12
ENDBRANCH   1   4
BRANCH   1  21
ATOM     17  C   UNL     1      49.740   6.981  16.260  0.00  0.00    +0.000 A 
ATOM     18  C   UNL     1      49.115   7.964  17.020  0.00  0.00    +0.000 A 
ATOM     19  N   UNL     1      48.293   8.922  16.534  0.00  0.00    +0.000 NA
ATOM     20  C   UNL     1      48.091   8.917  15.196  0.00  0.00    +0.000 A 
ATOM     21  C   UNL     1      48.695   8.043  14.298  0.00  0.00    +0.000 A 
ATOM     22  C   UNL     1      49.526   7.069  14.874  0.00  0.00    +0.000 A 
BRANCH  17  26
ATOM     23  C   UNL     1      52.100   3.793  17.950  0.00  0.00    +0.000 A 
ATOM     24  C   UNL     1      50.710   3.700  17.924  0.00  0.00    +0.000 A 
ATOM     25  C   UNL     1      49.951   4.738  17.377  0.00  0.00    +0.000 A 
ATOM     26  C   UNL     1      50.554   5.901  16.861  0.00  0.00    +0.000 A 
ATOM     27  C   UNL     1      51.959   5.972  16.912  0.00  0.00    +0.000 A 
ATOM     28  C   UNL     1      52.726   4.929  17.443  0.00  0.00    +0.000 A 
BRANCH  23  30
ATOM     29  N   UNL     1      53.516   1.853  18.925  0.00  0.00    +0.000 NA
ATOM     30  C   UNL     1      52.882   2.726  18.491  0.00  0.00    +0.000 C 
ENDBRANCH  23  30
ENDBRANCH  17  26
ENDBRANCH   1  21
TORSDOF 5
ENDMDL
MODEL 4
REMARK VINA RESULT:    -6.724      5.511      9.085
REMARK INTER + INTRA:          -8.851
REMARK INTER:                  -8.114
REMARK INTRA:                  -0.737
REMARK UNBOUND:                -0.162
REMARK  Name = 
REMARK  5 active torsions:
REMARK  status: ('A' for Active; 'I' for Inactive)
REMARK    1  A    between atoms: C_2  and  C_3
REMARK    2  A    between atoms: C_6  and  C_7
REMARK    3  A    between atoms: C_11  and  C_12
REMARK    4  A    between atoms: C_12  and  N_13
REMARK    5  A    between atoms: C_17  and  C_18
REMARK                            x       y       z     vdW  Elec       q    Type
REMARK                         _______ _______ _______ _____ _____    ______ ____
ROOT
ATOM      1  C   UNL     1      49.561   5.550  18.080  0.00  0.00    +0.000 C 
ATOM      2  C   UNL     1      48.469   4.912  18.918  0.00  0.00    +0.000 C 
ATOM      3  C   UNL     1      49.010   6.240  19.329  0.00  0.00    +0.000 C 
ENDROOT
BRANCH   1   4
ATOM      4  N   UNL     1      50.960   5.127  18.180  0.00  0.00    +0.000 N 
ATOM      5  C   UNL     1      51.478   3.842  18.065  0.00  0.00    +0.000 A 
ATOM      6  C   UNL     1      50.845   2.790  17.417  0.00  0.00    +0.000 A 
ATOM      7  C   UNL     1      51.471   1.543  17.334  0.00  0.00    +0.000 A 
ATOM      8  C   UNL     1      52.725   1.373  17.910  0.00  0.00    +0.000 A 
ATOM      9  C   UNL     1      53.292   2.467  18.542  0.00  0.00    +0.000 A 
ATOM     10  N   UNL     1      52.698   3.686  18.619  0.00  0.00    +0.000 NA
ATOM     11  H   UNL     1      51.597   5.656  18.769  0.00  0.00    +0.000 HD
BRANCH   8  12
ATOM     12  C   UNL     1      53.445   0.083  17.918  0.00  0.00    +0.000 C 
ATOM     13  N   UNL     1      53.882  -0.400  16.716  0.00  0.00    +0.000 N 
ATOM     14  O   UNL     1      53.656  -0.520  18.960  0.00  0.00    +0.000 OA
ATOM     15  H   UNL     1      53.911   0.151  15.871  0.00  0.00    +0.000 HD
ATOM     16  H   UNL     1      54.434  -1.248  16.743  0.00  0.00    +0.000 HD
ENDBRANCH   8  12
ENDBRANCH   1   4
BRANCH   1  21
ATOM     17  C   UNL     1      47.936   6.126  14.615  0.00  0.00    +0.000 A 
ATOM     18  C   UNL     1      48.438   7.404  14.392  0.00  0.00    +0.000 A 
ATOM     19  N   UNL     1      49.285   8.065  15.214  0.00  0.00    +0.000 NA
ATOM     20  C   UNL     1      49.644   7.421  16.349  0.00  0.00    +0.000 A 
ATOM     21  C   UNL     1      49.176   6.171  16.743  0.00  0.00    +0.000 A 
ATOM     22  C   UNL     1      48.310   5.540  15.836  0.00  0.00    +0.000 A 
BRANCH  17  26
ATOM     23  C   UNL     1      45.410   4.056  11.800  0.00  0.00    +0.000 A 
ATOM     24  C   UNL     1      46.003   3.363  12.853  0.00  0.00    +0.000 A 
ATOM     25  C   UNL     1      46.823   4.039  13.761  0.00  0.00    +0.000 A 
ATOM     26  C   UNL     1      47.087   5.416  13.632  0.00  0.00    +0.000 A 
ATOM     27  C   UNL     1      46.485   6.087  12.551  0.00  0.00    +0.000 A 
ATOM     28  C   UNL     1      45.649   5.420  11.648  0.00  0.00    +0.000 A 
BRANCH  23  30
ATOM     29  N   UNL     1      43.864   2.811  10.133  0.00  0.00    +0.000 NA
ATOM     30  C   UNL     1      44.555   3.373  10.880  0.00  0.00    +0.000 C 
ENDBRANCH  23  30
ENDBRANCH  17  26
ENDBRANCH   1  21
TORSDOF 5
ENDMDL
MODEL 5
REMARK VINA RESULT:    -6.430      4.358      8.975
REMARK INTER + INTRA:          -8.471
REMARK INTER:                  -7.933
REMARK INTRA:                  -0.538
REMARK UNBOUND:                -0.162
REMARK  Name = 
REMARK  5 active torsions:
REMARK  status: ('A' for Active; 'I' for Inactive)
REMARK    1  A    between atoms: C_2  and  C_3
REMARK    2  A    between atoms: C_6  and  C_7
REMARK    3  A    between atoms: C_11  and  C_12
REMARK    4  A    between atoms: C_12  and  N_13
REMARK    5  A    between atoms: C_17  and  C_18
REMARK                            x       y       z     vdW  Elec       q    Type
REMARK                         _______ _______ _______ _____ _____    ______ ____
ROOT
ATOM      1  C   UNL     1      50.315   8.472  14.622  0.00  0.00    +0.000 C 
ATOM      2  C   UNL     1      50.784   9.723  15.343  0.00  0.00    +0.000 C 
ATOM      3  C   UNL     1      51.553   9.242  14.159  0.00  0.00    +0.000 C 
ENDROOT
BRANCH   1   4
ATOM      4  N   UNL     1      50.587   7.131  15.145  0.00  0.00    +0.000 N 
ATOM      5  C   UNL     1      50.106   6.552  16.314  0.00  0.00    +0.000 A 
ATOM      6  C   UNL     1      48.958   6.956  16.980  0.00  0.00    +0.000 A 
ATOM      7  C   UNL     1      48.546   6.283  18.135  0.00  0.00    +0.000 A 
ATOM      8  C   UNL     1      49.303   5.213  18.602  0.00  0.00    +0.000 A 
ATOM      9  C   UNL     1      50.437   4.871  17.885  0.00  0.00    +0.000 A 
ATOM     10  N   UNL     1      50.839   5.510  16.758  0.00  0.00    +0.000 NA
ATOM     11  H   UNL     1      51.477   6.688  14.934  0.00  0.00    +0.000 HD
BRANCH   8  12
ATOM     12  C   UNL     1      48.979   4.471  19.837  0.00  0.00    +0.000 C 
ATOM     13  N   UNL     1      48.357   3.262  19.698  0.00  0.00    +0.000 N 
ATOM     14  O   UNL     1      49.270   4.912  20.939  0.00  0.00    +0.000 OA
ATOM     15  H   UNL     1      48.282   2.770  18.819  0.00  0.00    +0.000 HD
ATOM     16  H   UNL     1      48.204   2.731  20.547  0.00  0.00    +0.000 HD
ENDBRANCH   8  12
ENDBRANCH   1   4
BRANCH   1  21
ATOM     17  C   UNL     1      47.049   7.605  12.738  0.00  0.00    +0.000 A 
ATOM     18  C   UNL     1      46.828   8.858  12.176  0.00  0.00    +0.000 A 
ATOM     19  N   UNL     1      47.651   9.924  12.297  0.00  0.00    +0.000 NA
ATOM     20  C   UNL     1      48.762   9.742  13.047  0.00  0.00    +0.000 A 
ATOM     21  C   UNL     1      49.087   8.572  13.726  0.00  0.00    +0.000 A 
ATOM     22  C   UNL     1      48.194   7.503  13.544  0.00  0.00    +0.000 A 
BRANCH  17  26
ATOM     23  C   UNL     1      44.497   4.218  11.957  0.00  0.00    +0.000 A 
ATOM     24  C   UNL     1      44.374   5.379  11.198  0.00  0.00    +0.000 A 
ATOM     25  C   UNL     1      45.202   6.475  11.457  0.00  0.00    +0.000 A 
ATOM     26  C   UNL     1      46.159   6.448  12.490  0.00  0.00    +0.000 A 
ATOM     27  C   UNL     1      46.252   5.266  13.249  0.00  0.00    +0.000 A 
ATOM     28  C   UNL     1      45.438   4.159  12.983  0.00  0.00    +0.000 A 
BRANCH  23  30
ATOM     29  N   UNL     1      42.993   2.168  11.453  0.00  0.00    +0.000 NA
ATOM     30  C   UNL     1      43.666   3.088  11.683  0.00  0.00    +0.000 C 
ENDBRANCH  23  30
ENDBRANCH  17  26
ENDBRANCH   1  21
TORSDOF 5
ENDMDL
MODEL 6
REMARK VINA RESULT:    -6.400      3.203      5.084
REMARK INTER + INTRA:          -8.432
REMARK INTER:                  -7.676
REMARK INTRA:                  -0.756
REMARK UNBOUND:                -0.162
REMARK  Name = 
REMARK  5 active torsions:
REMARK  status: ('A' for Active; 'I' for Inactive)
REMARK    1  A    between atoms: C_2  and  C_3
REMARK    2  A    between atoms: C_6  and  C_7
REMARK    3  A    between atoms: C_11  and  C_12
REMARK    4  A    between atoms: C_12  and  N_13
REMARK    5  A    between atoms: C_17  and  C_18
REMARK                            x       y       z     vdW  Elec       q    Type
REMARK                         _______ _______ _______ _____ _____    ______ ____
ROOT
ATOM      1  C   UNL     1      45.588   8.997  12.180  0.00  0.00    +0.000 C 
ATOM      2  C   UNL     1      45.128   9.647  10.888  0.00  0.00    +0.000 C 
ATOM      3  C   UNL     1      44.818  10.319  12.183  0.00  0.00    +0.000 C 
ENDROOT
BRANCH   1   4
ATOM      4  N   UNL     1      44.870   7.869  12.777  0.00  0.00    +0.000 N 
ATOM      5  C   UNL     1      44.682   6.597  12.249  0.00  0.00    +0.000 A 
ATOM      6  C   UNL     1      45.485   6.019  11.275  0.00  0.00    +0.000 A 
ATOM      7  C   UNL     1      45.224   4.717  10.836  0.00  0.00    +0.000 A 
ATOM      8  C   UNL     1      44.153   4.018  11.383  0.00  0.00    +0.000 A 
ATOM      9  C   UNL     1      43.396   4.661  12.348  0.00  0.00    +0.000 A 
ATOM     10  N   UNL     1      43.647   5.920  12.790  0.00  0.00    +0.000 NA
ATOM     11  H   UNL     1      44.091   8.052  13.404  0.00  0.00    +0.000 HD
BRANCH   8  12
ATOM     12  C   UNL     1      43.767   2.660  10.952  0.00  0.00    +0.000 C 
ATOM     13  N   UNL     1      44.424   2.132   9.875  0.00  0.00    +0.000 N 
ATOM     14  O   UNL     1      42.907   2.025  11.544  0.00  0.00    +0.000 OA
ATOM     15  H   UNL     1      45.268   2.528   9.488  0.00  0.00    +0.000 HD
ATOM     16  H   UNL     1      44.201   1.175   9.633  0.00  0.00    +0.000 HD
ENDBRANCH   8  12
ENDBRANCH   1   4
BRANCH   1  21
ATOM     17  C   UNL     1      49.017   8.318  13.840  0.00  0.00    +0.000 A 
ATOM     18  C   UNL     1      49.766   9.207  13.075  0.00  0.00    +0.000 A 
ATOM     19  N   UNL     1      49.267  10.034  12.129  0.00  0.00    +0.000 NA
ATOM     20  C   UNL     1      47.934   9.961  11.910  0.00  0.00    +0.000 A 
ATOM     21  C   UNL     1      47.065   9.079  12.545  0.00  0.00    +0.000 A 
ATOM     22  C   UNL     1      47.650   8.259  13.524  0.00  0.00    +0.000 A 
BRANCH  17  26
ATOM     23  C   UNL     1      50.727   5.894  16.969  0.00  0.00    +0.000 A 
ATOM     24  C   UNL     1      49.362   5.828  16.697  0.00  0.00    +0.000 A 
ATOM     25  C   UNL     1      48.814   6.619  15.683  0.00  0.00    +0.000 A 
ATOM     26  C   UNL     1      49.605   7.506  14.929  0.00  0.00    +0.000 A 
ATOM     27  C   UNL     1      50.978   7.561  15.236  0.00  0.00    +0.000 A 
ATOM     28  C   UNL     1      51.537   6.759  16.238  0.00  0.00    +0.000 A 
BRANCH  23  30
ATOM     29  N   UNL     1      51.759   4.413  18.830  0.00  0.00    +0.000 NA
ATOM     30  C   UNL     1      51.296   5.074  17.992  0.00  0.00    +0.000 C 
ENDBRANCH  23  30
ENDBRANCH  17  26
ENDBRANCH   1  21
TORSDOF 5
ENDMDL
MODEL 7
REMARK VINA RESULT:    -6.351      3.614      6.357
REMARK INTER + INTRA:          -8.370
REMARK INTER:                  -8.201
REMARK INTRA:                  -0.169
REMARK UNBOUND:                -0.162
REMARK  Name = 
REMARK  5 active torsions:
REMARK  status: ('A' for Active; 'I' for Inactive)
REMARK    1  A    between atoms: C_2  and  C_3
REMARK    2  A    between atoms: C_6  and  C_7
REMARK    3  A    between atoms: C_11  and  C_12
REMARK    4  A    between atoms: C_12  and  N_13
REMARK    5  A    between atoms: C_17  and  C_18
REMARK                            x       y       z     vdW  Elec       q    Type
REMARK                         _______ _______ _______ _____ _____    ______ ____
ROOT
ATOM      1  C   UNL     1      48.597   8.309  12.749  0.00  0.00    +0.000 C 
ATOM      2  C   UNL     1      47.645   9.295  12.097  0.00  0.00    +0.000 C 
ATOM      3  C   UNL     1      48.052   9.516  13.514  0.00  0.00    +0.000 C 
ENDROOT
BRANCH   1   4
ATOM      4  N   UNL     1      48.142   7.009  13.248  0.00  0.00    +0.000 N 
ATOM      5  C   UNL     1      47.106   6.220  12.763  0.00  0.00    +0.000 A 
ATOM      6  C   UNL     1      46.591   6.295  11.476  0.00  0.00    +0.000 A 
ATOM      7  C   UNL     1      45.565   5.430  11.082  0.00  0.00    +0.000 A 
ATOM      8  C   UNL     1      45.071   4.503  11.995  0.00  0.00    +0.000 A 
ATOM      9  C   UNL     1      45.633   4.490  13.260  0.00  0.00    +0.000 A 
ATOM     10  N   UNL     1      46.636   5.318  13.650  0.00  0.00    +0.000 NA
ATOM     11  H   UNL     1      48.249   6.793  14.235  0.00  0.00    +0.000 HD
BRANCH   8  12
ATOM     12  C   UNL     1      43.959   3.581  11.690  0.00  0.00    +0.000 C 
ATOM     13  N   UNL     1      43.740   2.551  12.561  0.00  0.00    +0.000 N 
ATOM     14  O   UNL     1      43.251   3.743  10.707  0.00  0.00    +0.000 OA
ATOM     15  H   UNL     1      44.159   2.497  13.478  0.00  0.00    +0.000 HD
ATOM     16  H   UNL     1      42.932   1.969  12.380  0.00  0.00    +0.000 HD
ENDBRANCH   8  12
ENDBRANCH   1   4
BRANCH   1  21
ATOM     17  C   UNL     1      51.940   7.788  10.870  0.00  0.00    +0.000 A 
ATOM     18  C   UNL     1      52.728   8.602  11.677  0.00  0.00    +0.000 A 
ATOM     19  N   UNL     1      52.303   9.248  12.786  0.00  0.00    +0.000 NA
ATOM     20  C   UNL     1      50.998   9.092  13.108  0.00  0.00    +0.000 A 
ATOM     21  C   UNL     1      50.071   8.366  12.367  0.00  0.00    +0.000 A 
ATOM     22  C   UNL     1      50.585   7.713  11.235  0.00  0.00    +0.000 A 
BRANCH  17  26
ATOM     23  C   UNL     1      53.487   5.523   7.543  0.00  0.00    +0.000 A 
ATOM     24  C   UNL     1      53.952   5.282   8.833  0.00  0.00    +0.000 A 
ATOM     25  C   UNL     1      53.449   6.021   9.907  0.00  0.00    +0.000 A 
ATOM     26  C   UNL     1      52.485   7.030   9.721  0.00  0.00    +0.000 A 
ATOM     27  C   UNL     1      52.043   7.261   8.404  0.00  0.00    +0.000 A 
ATOM     28  C   UNL     1      52.530   6.513   7.326  0.00  0.00    +0.000 A 
BRANCH  23  30
ATOM     29  N   UNL     1      54.391   4.128   5.554  0.00  0.00    +0.000 NA
ATOM     30  C   UNL     1      53.985   4.757   6.443  0.00  0.00    +0.000 C 
ENDBRANCH  23  30
ENDBRANCH  17  26
ENDBRANCH   1  21
TORSDOF 5
ENDMDL
