MODEL 1
REMARK VINA RESULT:    -8.995      0.000      0.000
REMARK INTER + INTRA:         -15.011
REMARK INTER:                 -13.202
REMARK INTRA:                  -1.809
REMARK UNBOUND:                -1.809
REMARK  Name = 
REMARK  10 active torsions:
REMARK  status: ('A' for Active; 'I' for Inactive)
REMARK    1  A    between atoms: C_1  and  O_2
REMARK    2  A    between atoms: O_2  and  C_3
REMARK    3  A    between atoms: C_10  and  C_11
REMARK    4  A    between atoms: N_13  and  C_14
REMARK    5  A    between atoms: C_14  and  C_15
REMARK    6  A    between atoms: C_18  and  N_19
REMARK    7  A    between atoms: N_19  and  C_20
REMARK    8  A    between atoms: C_20  and  C_21
REMARK    9  A    between atoms: C_20  and  C_22
REMARK   10  A    between atoms: C_22  and  C_23
REMARK                            x       y       z     vdW  Elec       q    Type
REMARK                         _______ _______ _______ _____ _____    ______ ____
ROOT
ATOM      1  C   UNL     1      46.309   7.520  12.449  0.00  0.00    +0.000 A 
ATOM      2  C   UNL     1      46.922   6.793  11.424  0.00  0.00    +0.000 A 
ATOM      3  C   UNL     1      46.184   5.886  10.647  0.00  0.00    +0.000 A 
ATOM      4  C   UNL     1      44.809   5.707  10.839  0.00  0.00    +0.000 A 
ATOM      5  C   UNL     1      44.174   6.554  11.752  0.00  0.00    +0.000 A 
ATOM      6  C   UNL     1      44.915   7.433  12.564  0.00  0.00    +0.000 A 
ENDROOT
BRANCH   4   7
ATOM      7  N   UNL     1      44.060   4.696  10.220  0.00  0.00    +0.000 N 
ATOM      8  H   UNL     1      43.786   4.910   9.263  0.00  0.00    +0.000 HD
BRANCH   7   9
ATOM      9  C   UNL     1      44.396   3.286  10.487  0.00  0.00    +0.000 C 
ATOM     10  C   UNL     1      43.407   2.759  11.546  0.00  0.00    +0.000 C 
BRANCH   9  11
ATOM     11  C   UNL     1      44.309   2.417   9.211  0.00  0.00    +0.000 C 
BRANCH  11  12
ATOM     12  C   UNL     1      45.535   2.438   8.316  0.00  0.00    +0.000 A 
ATOM     13  C   UNL     1      46.309   1.288   8.098  0.00  0.00    +0.000 A 
ATOM     14  C   UNL     1      47.342   1.290   7.156  0.00  0.00    +0.000 A 
ATOM     15  C   UNL     1      47.635   2.448   6.439  0.00  0.00    +0.000 A 
ATOM     16  C   UNL     1      46.914   3.613   6.688  0.00  0.00    +0.000 A 
ATOM     17  C   UNL     1      45.868   3.607   7.616  0.00  0.00    +0.000 A 
ENDBRANCH  11  12
ENDBRANCH   9  11
ENDBRANCH   7   9
ENDBRANCH   4   7
BRANCH   1  18
ATOM     18  C   UNL     1      47.139   8.334  13.419  0.00  0.00    +0.000 C 
BRANCH  18  21
ATOM     19  C   UNL     1      48.766   6.955  14.689  0.00  0.00    +0.000 C 
ATOM     20  O   UNL     1      49.616   7.043  13.792  0.00  0.00    +0.000 OA
ATOM     21  N   UNL     1      47.542   7.564  14.576  0.00  0.00    +0.000 N 
ATOM     22  H   UNL     1      46.877   7.501  15.326  0.00  0.00    +0.000 HD
BRANCH  19  30
ATOM     23  C   UNL     1      47.250   4.248  16.167  0.00  0.00    +0.000 A 
ATOM     24  N   UNL     1      46.871   3.196  16.917  0.00  0.00    +0.000 NA
ATOM     25  C   UNL     1      47.572   2.929  18.020  0.00  0.00    +0.000 A 
ATOM     26  N   UNL     1      48.623   3.603  18.481  0.00  0.00    +0.000 NA
ATOM     27  C   UNL     1      48.973   4.636  17.695  0.00  0.00    +0.000 A 
ATOM     28  S   UNL     1      50.296   5.608  18.124  0.00  0.00    +0.000 S 
ATOM     29  C   UNL     1      50.093   6.583  16.744  0.00  0.00    +0.000 A 
ATOM     30  C   UNL     1      49.036   6.200  15.929  0.00  0.00    +0.000 A 
ATOM     31  C   UNL     1      48.360   5.035  16.512  0.00  0.00    +0.000 A 
BRANCH  23  33
ATOM     32  C   UNL     1      47.000   3.780  13.895  0.00  0.00    +0.000 C 
ATOM     33  O   UNL     1      46.533   4.513  15.022  0.00  0.00    +0.000 OA
ENDBRANCH  23  33
ENDBRANCH  19  30
ENDBRANCH  18  21
ENDBRANCH   1  18
TORSDOF 8
ENDMDL
MODEL 2
REMARK VINA RESULT:    -7.813      2.090      2.608
REMARK INTER + INTRA:         -13.276
REMARK INTER:                 -12.077
REMARK INTRA:                  -1.199
REMARK UNBOUND:                -1.809
REMARK  Name = 
REMARK  10 active torsions:
REMARK  status: ('A' for Active; 'I' for Inactive)
REMARK    1  A    between atoms: C_1  and  O_2
REMARK    2  A    between atoms: O_2  and  C_3
REMARK    3  A    between atoms: C_10  and  C_11
REMARK    4  A    between atoms: N_13  and  C_14
REMARK    5  A    between atoms: C_14  and  C_15
REMARK    6  A    between atoms: C_18  and  N_19
REMARK    7  A    between atoms: N_19  and  C_20
REMARK    8  A    between atoms: C_20  and  C_21
REMARK    9  A    between atoms: C_20  and  C_22
REMARK   10  A    between atoms: C_22  and  C_23
REMARK                            x       y       z     vdW  Elec       q    Type
REMARK                         _______ _______ _______ _____ _____    ______ ____
ROOT
ATOM      1  C   UNL     1      47.693   6.466  14.010  0.00  0.00    +0.000 A 
ATOM      2  C   UNL     1      46.997   5.270  14.204  0.00  0.00    +0.000 A 
ATOM      3  C   UNL     1      46.143   4.767  13.210  0.00  0.00    +0.000 A 
ATOM      4  C   UNL     1      45.989   5.417  11.979  0.00  0.00    +0.000 A 
ATOM      5  C   UNL     1      46.810   6.520  11.731  0.00  0.00    +0.000 A 
ATOM      6  C   UNL     1      47.635   7.054  12.739  0.00  0.00    +0.000 A 
ENDROOT
BRANCH   4   7
ATOM      7  N   UNL     1      45.024   5.062  11.025  0.00  0.00    +0.000 N 
ATOM      8  H   UNL     1      44.982   5.690  10.225  0.00  0.00    +0.000 HD
BRANCH   7   9
ATOM      9  C   UNL     1      44.795   3.636  10.731  0.00  0.00    +0.000 C 
ATOM     10  C   UNL     1      43.606   3.163  11.593  0.00  0.00    +0.000 C 
BRANCH   9  11
ATOM     11  C   UNL     1      44.485   3.395   9.235  0.00  0.00    +0.000 C 
BRANCH  11  12
ATOM     12  C   UNL     1      45.605   2.768   8.425  0.00  0.00    +0.000 A 
ATOM     13  C   UNL     1      45.878   1.392   8.483  0.00  0.00    +0.000 A 
ATOM     14  C   UNL     1      46.811   0.812   7.620  0.00  0.00    +0.000 A 
ATOM     15  C   UNL     1      47.506   1.600   6.706  0.00  0.00    +0.000 A 
ATOM     16  C   UNL     1      47.289   2.975   6.678  0.00  0.00    +0.000 A 
ATOM     17  C   UNL     1      46.343   3.555   7.527  0.00  0.00    +0.000 A 
ENDBRANCH  11  12
ENDBRANCH   9  11
ENDBRANCH   7   9
ENDBRANCH   4   7
BRANCH   1  18
ATOM     18  C   UNL     1      48.444   7.115  15.154  0.00  0.00    +0.000 C 
BRANCH  18  21
ATOM     19  C   UNL     1      49.717   6.159  17.058  0.00  0.00    +0.000 C 
ATOM     20  O   UNL     1      49.086   6.833  17.883  0.00  0.00    +0.000 OA
ATOM     21  N   UNL     1      49.452   6.242  15.714  0.00  0.00    +0.000 N 
ATOM     22  H   UNL     1      49.960   5.668  15.065  0.00  0.00    +0.000 HD
BRANCH  19  30
ATOM     23  C   UNL     1      50.009   2.735  16.965  0.00  0.00    +0.000 A 
ATOM     24  N   UNL     1      50.381   1.443  17.007  0.00  0.00    +0.000 NA
ATOM     25  C   UNL     1      51.584   1.155  17.507  0.00  0.00    +0.000 A 
ATOM     26  N   UNL     1      52.476   2.016  17.987  0.00  0.00    +0.000 NA
ATOM     27  C   UNL     1      52.068   3.295  17.912  0.00  0.00    +0.000 A 
ATOM     28  S   UNL     1      53.080   4.536  18.475  0.00  0.00    +0.000 S 
ATOM     29  C   UNL     1      51.939   5.727  18.058  0.00  0.00    +0.000 A 
ATOM     30  C   UNL     1      50.778   5.224  17.483  0.00  0.00    +0.000 A 
ATOM     31  C   UNL     1      50.858   3.761  17.408  0.00  0.00    +0.000 A 
BRANCH  23  33
ATOM     32  C   UNL     1      47.737   3.024  17.413  0.00  0.00    +0.000 C 
ATOM     33  O   UNL     1      48.772   3.032  16.436  0.00  0.00    +0.000 OA
ENDBRANCH  23  33
ENDBRANCH  19  30
ENDBRANCH  18  21
ENDBRANCH   1  18
TORSDOF 8
ENDMDL
MODEL 3
REMARK VINA RESULT:    -7.287      2.300      3.042
REMARK INTER + INTRA:         -12.504
REMARK INTER:                 -11.166
REMARK INTRA:                  -1.338
REMARK UNBOUND:                -1.809
REMARK  Name = 
REMARK  10 active torsions:
REMARK  status: ('A' for Active; 'I' for Inactive)
REMARK    1  A    between atoms: C_1  and  O_2
REMARK    2  A    between atoms: O_2  and  C_3
REMARK    3  A    between atoms: C_10  and  C_11
REMARK    4  A    between atoms: N_13  and  C_14
REMARK    5  A    between atoms: C_14  and  C_15
REMARK    6  A    between atoms: C_18  and  N_19
REMARK    7  A    between atoms: N_19  and  C_20
REMARK    8  A    between atoms: C_20  and  C_21
REMARK    9  A    between atoms: C_20  and  C_22
REMARK   10  A    between atoms: C_22  and  C_23
REMARK                            x       y       z     vdW  Elec       q    Type
REMARK                         _______ _______ _______ _____ _____    ______ ____
ROOT
ATOM      1  C   UNL     1      47.219   7.576  13.155  0.00  0.00    +0.000 A 
ATOM      2  C   UNL     1      47.474   6.286  12.679  0.00  0.00    +0.000 A 
ATOM      3  C   UNL     1      46.517   5.601  11.915  0.00  0.00    +0.000 A 
ATOM      4  C   UNL     1      45.297   6.193  11.567  0.00  0.00    +0.000 A 
ATOM      5  C   UNL     1      45.118   7.537  11.907  0.00  0.00    +0.000 A 
ATOM      6  C   UNL     1      46.054   8.215  12.710  0.00  0.00    +0.000 A 
ENDROOT
BRANCH   4   7
ATOM      7  N   UNL     1      44.238   5.501  10.963  0.00  0.00    +0.000 N 
ATOM      8  H   UNL     1      43.646   6.081  10.372  0.00  0.00    +0.000 HD
BRANCH   7   9
ATOM      9  C   UNL     1      44.459   4.123  10.486  0.00  0.00    +0.000 C 
ATOM     10  C   UNL     1      43.453   3.207  11.212  0.00  0.00    +0.000 C 
BRANCH   9  11
ATOM     11  C   UNL     1      44.269   4.001   8.956  0.00  0.00    +0.000 C 
BRANCH  11  12
ATOM     12  C   UNL     1      45.287   3.136   8.234  0.00  0.00    +0.000 A 
ATOM     13  C   UNL     1      46.184   3.678   7.301  0.00  0.00    +0.000 A 
ATOM     14  C   UNL     1      47.210   2.896   6.760  0.00  0.00    +0.000 A 
ATOM     15  C   UNL     1      47.337   1.558   7.123  0.00  0.00    +0.000 A 
ATOM     16  C   UNL     1      46.418   0.992   8.002  0.00  0.00    +0.000 A 
ATOM     17  C   UNL     1      45.403   1.776   8.558  0.00  0.00    +0.000 A 
ENDBRANCH  11  12
ENDBRANCH   9  11
ENDBRANCH   7   9
ENDBRANCH   4   7
BRANCH   1  18
ATOM     18  C   UNL     1      48.155   8.229  14.150  0.00  0.00    +0.000 C 
BRANCH  18  21
ATOM     19  C   UNL     1      48.962   6.747  15.971  0.00  0.00    +0.000 C 
ATOM     20  O   UNL     1      49.949   6.394  15.314  0.00  0.00    +0.000 OA
ATOM     21  N   UNL     1      48.051   7.642  15.468  0.00  0.00    +0.000 N 
ATOM     22  H   UNL     1      47.270   7.934  16.029  0.00  0.00    +0.000 HD
BRANCH  19  30
ATOM     23  C   UNL     1      48.229   8.266  18.966  0.00  0.00    +0.000 A 
ATOM     24  N   UNL     1      47.904   8.604  20.228  0.00  0.00    +0.000 NA
ATOM     25  C   UNL     1      47.766   7.624  21.122  0.00  0.00    +0.000 A 
ATOM     26  N   UNL     1      47.924   6.321  20.908  0.00  0.00    +0.000 NA
ATOM     27  C   UNL     1      48.235   6.029  19.634  0.00  0.00    +0.000 A 
ATOM     28  S   UNL     1      48.470   4.412  19.174  0.00  0.00    +0.000 S 
ATOM     29  C   UNL     1      48.790   4.862  17.565  0.00  0.00    +0.000 A 
ATOM     30  C   UNL     1      48.722   6.230  17.334  0.00  0.00    +0.000 A 
ATOM     31  C   UNL     1      48.399   6.926  18.583  0.00  0.00    +0.000 A 
BRANCH  23  33
ATOM     32  C   UNL     1      47.723  10.485  18.451  0.00  0.00    +0.000 C 
ATOM     33  O   UNL     1      48.358   9.279  18.042  0.00  0.00    +0.000 OA
ENDBRANCH  23  33
ENDBRANCH  19  30
ENDBRANCH  18  21
ENDBRANCH   1  18
TORSDOF 8
ENDMDL
MODEL 4
REMARK VINA RESULT:    -7.232      1.541      1.821
REMARK INTER + INTRA:         -12.424
REMARK INTER:                 -10.779
REMARK INTRA:                  -1.645
REMARK UNBOUND:                -1.809
REMARK  Name = 
REMARK  10 active torsions:
REMARK  status: ('A' for Active; 'I' for Inactive)
REMARK    1  A    between atoms: C_1  and  O_2
REMARK    2  A    between atoms: O_2  and  C_3
REMARK    3  A    between atoms: C_10  and  C_11
REMARK    4  A    between atoms: N_13  and  C_14
REMARK    5  A    between atoms: C_14  and  C_15
REMARK    6  A    between atoms: C_18  and  N_19
REMARK    7  A    between atoms: N_19  and  C_20
REMARK    8  A    between atoms: C_20  and  C_21
REMARK    9  A    between atoms: C_20  and  C_22
REMARK   10  A    between atoms: C_22  and  C_23
REMARK                            x       y       z     vdW  Elec       q    Type
REMARK                         _______ _______ _______ _____ _____    ______ ____
ROOT
ATOM      1  C   UNL     1      47.564   7.835  12.922  0.00  0.00    +0.000 A 
ATOM      2  C   UNL     1      47.755   6.496  12.567  0.00  0.00    +0.000 A 
ATOM      3  C   UNL     1      46.680   5.712  12.121  0.00  0.00    +0.000 A 
ATOM      4  C   UNL     1      45.393   6.246  11.975  0.00  0.00    +0.000 A 
ATOM      5  C   UNL     1      45.246   7.622  12.176  0.00  0.00    +0.000 A 
ATOM      6  C   UNL     1      46.309   8.403  12.665  0.00  0.00    +0.000 A 
ENDROOT
BRANCH   4   7
ATOM      7  N   UNL     1      44.254   5.475  11.707  0.00  0.00    +0.000 N 
ATOM      8  H   UNL     1      43.472   6.007  11.331  0.00  0.00    +0.000 HD
BRANCH   7   9
ATOM      9  C   UNL     1      44.418   4.114  11.164  0.00  0.00    +0.000 C 
ATOM     10  C   UNL     1      43.445   3.186  11.918  0.00  0.00    +0.000 C 
BRANCH   9  11
ATOM     11  C   UNL     1      44.128   4.055   9.646  0.00  0.00    +0.000 C 
BRANCH  11  12
ATOM     12  C   UNL     1      45.187   3.371   8.800  0.00  0.00    +0.000 A 
ATOM     13  C   UNL     1      45.424   1.991   8.889  0.00  0.00    +0.000 A 
ATOM     14  C   UNL     1      46.295   1.357   7.998  0.00  0.00    +0.000 A 
ATOM     15  C   UNL     1      46.962   2.096   7.025  0.00  0.00    +0.000 A 
ATOM     16  C   UNL     1      46.782   3.476   6.963  0.00  0.00    +0.000 A 
ATOM     17  C   UNL     1      45.897   4.108   7.841  0.00  0.00    +0.000 A 
ENDBRANCH  11  12
ENDBRANCH   9  11
ENDBRANCH   7   9
ENDBRANCH   4   7
BRANCH   1  18
ATOM     18  C   UNL     1      48.669   8.617  13.599  0.00  0.00    +0.000 C 
BRANCH  18  21
ATOM     19  C   UNL     1      48.610   8.467  16.077  0.00  0.00    +0.000 C 
ATOM     20  O   UNL     1      47.808   9.406  16.164  0.00  0.00    +0.000 OA
ATOM     21  N   UNL     1      49.065   8.026  14.859  0.00  0.00    +0.000 N 
ATOM     22  H   UNL     1      49.696   7.247  14.811  0.00  0.00    +0.000 HD
BRANCH  19  30
ATOM     23  C   UNL     1      48.857   5.146  16.929  0.00  0.00    +0.000 A 
ATOM     24  N   UNL     1      49.094   3.941  17.479  0.00  0.00    +0.000 NA
ATOM     25  C   UNL     1      49.650   3.905  18.691  0.00  0.00    +0.000 A 
ATOM     26  N   UNL     1      50.000   4.947  19.440  0.00  0.00    +0.000 NA
ATOM     27  C   UNL     1      49.758   6.128  18.846  0.00  0.00    +0.000 A 
ATOM     28  S   UNL     1      50.145   7.570  19.653  0.00  0.00    +0.000 S 
ATOM     29  C   UNL     1      49.587   8.510  18.350  0.00  0.00    +0.000 A 
ATOM     30  C   UNL     1      49.105   7.767  17.279  0.00  0.00    +0.000 A 
ATOM     31  C   UNL     1      49.201   6.337  17.589  0.00  0.00    +0.000 A 
BRANCH  23  33
ATOM     32  C   UNL     1      47.220   4.260  15.522  0.00  0.00    +0.000 C 
ATOM     33  O   UNL     1      48.295   5.181  15.672  0.00  0.00    +0.000 OA
ENDBRANCH  23  33
ENDBRANCH  19  30
ENDBRANCH  18  21
ENDBRANCH   1  18
TORSDOF 8
ENDMDL
MODEL 5
REMARK VINA RESULT:    -7.181      1.664      2.296
REMARK INTER + INTRA:         -12.349
REMARK INTER:                 -11.036
REMARK INTRA:                  -1.313
REMARK UNBOUND:                -1.809
REMARK  Name = 
REMARK  10 active torsions:
REMARK  status: ('A' for Active; 'I' for Inactive)
REMARK    1  A    between atoms: C_1  and  O_2
REMARK    2  A    between atoms: O_2  and  C_3
REMARK    3  A    between atoms: C_10  and  C_11
REMARK    4  A    between atoms: N_13  and  C_14
REMARK    5  A    between atoms: C_14  and  C_15
REMARK    6  A    between atoms: C_18  and  N_19
REMARK    7  A    between atoms: N_19  and  C_20
REMARK    8  A    between atoms: C_20  and  C_21
REMARK    9  A    between atoms: C_20  and  C_22
REMARK   10  A    between atoms: C_22  and  C_23
REMARK                            x       y       z     vdW  Elec       q    Type
REMARK                         _______ _______ _______ _____ _____    ______ ____
ROOT
ATOM      1  C   UNL     1      47.795   7.557  12.510  0.00  0.00    +0.000 A 
ATOM      2  C   UNL     1      46.661   8.280  12.127  0.00  0.00    +0.000 A 
ATOM      3  C   UNL     1      45.492   7.619  11.722  0.00  0.00    +0.000 A 
ATOM      4  C   UNL     1      45.401   6.222  11.726  0.00  0.00    +0.000 A 
ATOM      5  C   UNL     1      46.479   5.512  12.264  0.00  0.00    +0.000 A 
ATOM      6  C   UNL     1      47.670   6.166  12.630  0.00  0.00    +0.000 A 
ENDROOT
BRANCH   4   7
ATOM      7  N   UNL     1      44.330   5.508  11.169  0.00  0.00    +0.000 N 
ATOM      8  H   UNL     1      43.692   6.079  10.619  0.00  0.00    +0.000 HD
BRANCH   7   9
ATOM      9  C   UNL     1      44.563   4.143  10.663  0.00  0.00    +0.000 C 
ATOM     10  C   UNL     1      43.601   3.195  11.406  0.00  0.00    +0.000 C 
BRANCH   9  11
ATOM     11  C   UNL     1      44.323   4.041   9.138  0.00  0.00    +0.000 C 
BRANCH  11  12
ATOM     12  C   UNL     1      45.336   3.212   8.367  0.00  0.00    +0.000 A 
ATOM     13  C   UNL     1      46.224   3.798   7.452  0.00  0.00    +0.000 A 
ATOM     14  C   UNL     1      47.245   3.043   6.866  0.00  0.00    +0.000 A 
ATOM     15  C   UNL     1      47.377   1.690   7.165  0.00  0.00    +0.000 A 
ATOM     16  C   UNL     1      46.466   1.083   8.025  0.00  0.00    +0.000 A 
ATOM     17  C   UNL     1      45.455   1.839   8.626  0.00  0.00    +0.000 A 
ENDBRANCH  11  12
ENDBRANCH   9  11
ENDBRANCH   7   9
ENDBRANCH   4   7
BRANCH   1  18
ATOM     18  C   UNL     1      49.115   8.261  12.742  0.00  0.00    +0.000 C 
BRANCH  18  21
ATOM     19  C   UNL     1      49.968   7.766  15.020  0.00  0.00    +0.000 C 
ATOM     20  O   UNL     1      49.220   8.606  15.537  0.00  0.00    +0.000 OA
ATOM     21  N   UNL     1      49.965   7.542  13.666  0.00  0.00    +0.000 N 
ATOM     22  H   UNL     1      50.563   6.838  13.272  0.00  0.00    +0.000 HD
BRANCH  19  30
ATOM     23  C   UNL     1      49.497   5.175  17.229  0.00  0.00    +0.000 A 
ATOM     24  N   UNL     1      49.586   4.144  18.090  0.00  0.00    +0.000 NA
ATOM     25  C   UNL     1      50.800   3.784  18.510  0.00  0.00    +0.000 A 
ATOM     26  N   UNL     1      51.959   4.344  18.176  0.00  0.00    +0.000 NA
ATOM     27  C   UNL     1      51.823   5.359  17.306  0.00  0.00    +0.000 A 
ATOM     28  S   UNL     1      53.199   6.192  16.763  0.00  0.00    +0.000 S 
ATOM     29  C   UNL     1      52.257   7.217  15.786  0.00  0.00    +0.000 A 
ATOM     30  C   UNL     1      50.893   6.957  15.839  0.00  0.00    +0.000 A 
ATOM     31  C   UNL     1      50.639   5.846  16.763  0.00  0.00    +0.000 A 
BRANCH  23  33
ATOM     32  C   UNL     1      47.586   4.493  16.076  0.00  0.00    +0.000 C 
ATOM     33  O   UNL     1      48.244   5.537  16.786  0.00  0.00    +0.000 OA
ENDBRANCH  23  33
ENDBRANCH  19  30
ENDBRANCH  18  21
ENDBRANCH   1  18
TORSDOF 8
ENDMDL
MODEL 6
REMARK VINA RESULT:    -7.096      2.053      2.826
REMARK INTER + INTRA:         -12.223
REMARK INTER:                 -11.108
REMARK INTRA:                  -1.115
REMARK UNBOUND:                -1.809
REMARK  Name = 
REMARK  10 active torsions:
REMARK  status: ('A' for Active; 'I' for Inactive)
REMARK    1  A    between atoms: C_1  and  O_2
REMARK    2  A    between atoms: O_2  and  C_3
REMARK    3  A    between atoms: C_10  and  C_11
REMARK    4  A    between atoms: N_13  and  C_14
REMARK    5  A    between atoms: C_14  and  C_15
REMARK    6  A    between atoms: C_18  and  N_19
REMARK    7  A    between atoms: N_19  and  C_20
REMARK    8  A    between atoms: C_20  and  C_21
REMARK    9  A    between atoms: C_20  and  C_22
REMARK   10  A    between atoms: C_22  and  C_23
REMARK                            x       y       z     vdW  Elec       q    Type
REMARK                         _______ _______ _______ _____ _____    ______ ____
ROOT
ATOM      1  C   UNL     1      46.852   7.800  13.171  0.00  0.00    +0.000 A 
ATOM      2  C   UNL     1      47.287   6.580  12.643  0.00  0.00    +0.000 A 
ATOM      3  C   UNL     1      46.495   5.874  11.724  0.00  0.00    +0.000 A 
ATOM      4  C   UNL     1      45.270   6.378  11.272  0.00  0.00    +0.000 A 
ATOM      5  C   UNL     1      44.921   7.669  11.678  0.00  0.00    +0.000 A 
ATOM      6  C   UNL     1      45.687   8.364  12.633  0.00  0.00    +0.000 A 
ENDROOT
BRANCH   4   7
ATOM      7  N   UNL     1      44.361   5.643  10.498  0.00  0.00    +0.000 N 
ATOM      8  H   UNL     1      43.923   6.179   9.752  0.00  0.00    +0.000 HD
BRANCH   7   9
ATOM      9  C   UNL     1      44.662   4.235  10.181  0.00  0.00    +0.000 C 
ATOM     10  C   UNL     1      43.675   3.353  10.972  0.00  0.00    +0.000 C 
BRANCH   9  11
ATOM     11  C   UNL     1      44.530   3.941   8.668  0.00  0.00    +0.000 C 
BRANCH  11  12
ATOM     12  C   UNL     1      45.627   3.078   8.068  0.00  0.00    +0.000 A 
ATOM     13  C   UNL     1      45.807   1.741   8.454  0.00  0.00    +0.000 A 
ATOM     14  C   UNL     1      46.721   0.922   7.785  0.00  0.00    +0.000 A 
ATOM     15  C   UNL     1      47.488   1.434   6.741  0.00  0.00    +0.000 A 
ATOM     16  C   UNL     1      47.363   2.775   6.388  0.00  0.00    +0.000 A 
ATOM     17  C   UNL     1      46.436   3.591   7.043  0.00  0.00    +0.000 A 
ENDBRANCH  11  12
ENDBRANCH   9  11
ENDBRANCH   7   9
ENDBRANCH   4   7
BRANCH   1  18
ATOM     18  C   UNL     1      47.599   8.455  14.313  0.00  0.00    +0.000 C 
BRANCH  18  21
ATOM     19  C   UNL     1      48.675   7.836  16.463  0.00  0.00    +0.000 C 
ATOM     20  O   UNL     1      48.787   9.020  16.805  0.00  0.00    +0.000 OA
ATOM     21  N   UNL     1      48.101   7.488  15.266  0.00  0.00    +0.000 N 
ATOM     22  H   UNL     1      47.998   6.520  15.020  0.00  0.00    +0.000 HD
BRANCH  19  30
ATOM     23  C   UNL     1      51.666   6.162  16.729  0.00  0.00    +0.000 A 
ATOM     24  N   UNL     1      52.722   5.394  17.055  0.00  0.00    +0.000 NA
ATOM     25  C   UNL     1      52.572   4.513  18.045  0.00  0.00    +0.000 A 
ATOM     26  N   UNL     1      51.471   4.294  18.759  0.00  0.00    +0.000 NA
ATOM     27  C   UNL     1      50.447   5.090  18.408  0.00  0.00    +0.000 A 
ATOM     28  S   UNL     1      48.960   4.955  19.215  0.00  0.00    +0.000 S 
ATOM     29  C   UNL     1      48.275   6.192  18.270  0.00  0.00    +0.000 A 
ATOM     30  C   UNL     1      49.144   6.739  17.334  0.00  0.00    +0.000 A 
ATOM     31  C   UNL     1      50.444   6.065  17.415  0.00  0.00    +0.000 A 
BRANCH  23  33
ATOM     32  C   UNL     1      52.526   8.248  16.133  0.00  0.00    +0.000 C 
ATOM     33  O   UNL     1      51.826   7.081  15.715  0.00  0.00    +0.000 OA
ENDBRANCH  23  33
ENDBRANCH  19  30
ENDBRANCH  18  21
ENDBRANCH   1  18
TORSDOF 8
ENDMDL
MODEL 7
REMARK VINA RESULT:    -6.856      2.797      4.055
REMARK INTER + INTRA:         -11.871
REMARK INTER:                 -10.746
REMARK INTRA:                  -1.125
REMARK UNBOUND:                -1.809
REMARK  Name = 
REMARK  10 active torsions:
REMARK  status: ('A' for Active; 'I' for Inactive)
REMARK    1  A    between atoms: C_1  and  O_2
REMARK    2  A    between atoms: O_2  and  C_3
REMARK    3  A    between atoms: C_10  and  C_11
REMARK    4  A    between atoms: N_13  and  C_14
REMARK    5  A    between atoms: C_14  and  C_15
REMARK    6  A    between atoms: C_18  and  N_19
REMARK    7  A    between atoms: N_19  and  C_20
REMARK    8  A    between atoms: C_20  and  C_21
REMARK    9  A    between atoms: C_20  and  C_22
REMARK   10  A    between atoms: C_22  and  C_23
REMARK                            x       y       z     vdW  Elec       q    Type
REMARK                         _______ _______ _______ _____ _____    ______ ____
ROOT
ATOM      1  C   UNL     1      47.124   4.710  14.684  0.00  0.00    +0.000 A 
ATOM      2  C   UNL     1      47.251   5.971  14.094  0.00  0.00    +0.000 A 
ATOM      3  C   UNL     1      46.754   6.212  12.804  0.00  0.00    +0.000 A 
ATOM      4  C   UNL     1      46.080   5.221  12.080  0.00  0.00    +0.000 A 
ATOM      5  C   UNL     1      45.815   4.017  12.739  0.00  0.00    +0.000 A 
ATOM      6  C   UNL     1      46.348   3.753  14.015  0.00  0.00    +0.000 A 
ENDROOT
BRANCH   4   7
ATOM      7  N   UNL     1      45.721   5.348  10.731  0.00  0.00    +0.000 N 
ATOM      8  H   UNL     1      46.493   5.600  10.118  0.00  0.00    +0.000 HD
BRANCH   7   9
ATOM      9  C   UNL     1      44.732   4.416  10.160  0.00  0.00    +0.000 C 
ATOM     10  C   UNL     1      43.334   4.865  10.633  0.00  0.00    +0.000 C 
BRANCH   9  11
ATOM     11  C   UNL     1      44.779   4.395   8.614  0.00  0.00    +0.000 C 
BRANCH  11  12
ATOM     12  C   UNL     1      45.637   3.305   7.997  0.00  0.00    +0.000 A 
ATOM     13  C   UNL     1      46.558   3.581   6.975  0.00  0.00    +0.000 A 
ATOM     14  C   UNL     1      47.442   2.595   6.526  0.00  0.00    +0.000 A 
ATOM     15  C   UNL     1      47.401   1.315   7.071  0.00  0.00    +0.000 A 
ATOM     16  C   UNL     1      46.452   1.010   8.044  0.00  0.00    +0.000 A 
ATOM     17  C   UNL     1      45.579   1.999   8.507  0.00  0.00    +0.000 A 
ENDBRANCH  11  12
ENDBRANCH   9  11
ENDBRANCH   7   9
ENDBRANCH   4   7
BRANCH   1  18
ATOM     18  C   UNL     1      47.841   4.389  15.978  0.00  0.00    +0.000 C 
BRANCH  18  21
ATOM     19  C   UNL     1      48.598   6.007  17.702  0.00  0.00    +0.000 C 
ATOM     20  O   UNL     1      49.790   5.758  17.484  0.00  0.00    +0.000 OA
ATOM     21  N   UNL     1      47.596   5.383  17.001  0.00  0.00    +0.000 N 
ATOM     22  H   UNL     1      46.636   5.619  17.177  0.00  0.00    +0.000 HD
BRANCH  19  30
ATOM     23  C   UNL     1      47.973   9.385  17.574  0.00  0.00    +0.000 A 
ATOM     24  N   UNL     1      47.642  10.673  17.782  0.00  0.00    +0.000 NA
ATOM     25  C   UNL     1      47.285  11.036  19.015  0.00  0.00    +0.000 A 
ATOM     26  N   UNL     1      47.224  10.255  20.091  0.00  0.00    +0.000 NA
ATOM     27  C   UNL     1      47.551   8.977  19.834  0.00  0.00    +0.000 A 
ATOM     28  S   UNL     1      47.526   7.834  21.088  0.00  0.00    +0.000 S 
ATOM     29  C   UNL     1      48.010   6.590  20.034  0.00  0.00    +0.000 A 
ATOM     30  C   UNL     1      48.195   6.999  18.720  0.00  0.00    +0.000 A 
ATOM     31  C   UNL     1      47.928   8.437  18.609  0.00  0.00    +0.000 A 
BRANCH  23  33
ATOM     32  C   UNL     1      49.720   9.168  16.042  0.00  0.00    +0.000 C 
ATOM     33  O   UNL     1      48.329   9.010  16.298  0.00  0.00    +0.000 OA
ENDBRANCH  23  33
ENDBRANCH  19  30
ENDBRANCH  18  21
ENDBRANCH   1  18
TORSDOF 8
ENDMDL
MODEL 8
REMARK VINA RESULT:    -6.635      3.228      5.864
REMARK INTER + INTRA:         -11.548
REMARK INTER:                  -9.746
REMARK INTRA:                  -1.802
REMARK UNBOUND:                -1.809
REMARK  Name = 
REMARK  10 active torsions:
REMARK  status: ('A' for Active; 'I' for Inactive)
REMARK    1  A    between atoms: C_1  and  O_2
REMARK    2  A    between atoms: O_2  and  C_3
REMARK    3  A    between atoms: C_10  and  C_11
REMARK    4  A    between atoms: N_13  and  C_14
REMARK    5  A    between atoms: C_14  and  C_15
REMARK    6  A    between atoms: C_18  and  N_19
REMARK    7  A    between atoms: N_19  and  C_20
REMARK    8  A    between atoms: C_20  and  C_21
REMARK    9  A    between atoms: C_20  and  C_22
REMARK   10  A    between atoms: C_22  and  C_23
REMARK                            x       y       z     vdW  Elec       q    Type
REMARK                         _______ _______ _______ _____ _____    ______ ____
ROOT
ATOM      1  C   UNL     1      47.896   4.167  16.682  0.00  0.00    +0.000 A 
ATOM      2  C   UNL     1      48.434   5.456  16.624  0.00  0.00    +0.000 A 
ATOM      3  C   UNL     1      48.351   6.216  15.447  0.00  0.00    +0.000 A 
ATOM      4  C   UNL     1      47.695   5.735  14.308  0.00  0.00    +0.000 A 
ATOM      5  C   UNL     1      47.021   4.516  14.426  0.00  0.00    +0.000 A 
ATOM      6  C   UNL     1      47.137   3.729  15.587  0.00  0.00    +0.000 A 
ENDROOT
BRANCH   4   7
ATOM      7  N   UNL     1      47.733   6.369  13.058  0.00  0.00    +0.000 N 
ATOM      8  H   UNL     1      48.103   5.788  12.309  0.00  0.00    +0.000 HD
BRANCH   7   9
ATOM      9  C   UNL     1      46.635   7.276  12.680  0.00  0.00    +0.000 C 
ATOM     10  C   UNL     1      47.242   8.672  12.431  0.00  0.00    +0.000 C 
BRANCH   9  11
ATOM     11  C   UNL     1      45.896   6.794  11.410  0.00  0.00    +0.000 C 
BRANCH  11  12
ATOM     12  C   UNL     1      44.975   5.601  11.599  0.00  0.00    +0.000 A 
ATOM     13  C   UNL     1      45.022   4.490  10.742  0.00  0.00    +0.000 A 
ATOM     14  C   UNL     1      44.275   3.342  11.020  0.00  0.00    +0.000 A 
ATOM     15  C   UNL     1      43.450   3.297  12.141  0.00  0.00    +0.000 A 
ATOM     16  C   UNL     1      43.349   4.413  12.967  0.00  0.00    +0.000 A 
ATOM     17  C   UNL     1      44.109   5.555  12.701  0.00  0.00    +0.000 A 
ENDBRANCH  11  12
ENDBRANCH   9  11
ENDBRANCH   7   9
ENDBRANCH   4   7
BRANCH   1  18
ATOM     18  C   UNL     1      48.169   3.271  17.871  0.00  0.00    +0.000 C 
BRANCH  18  21
ATOM     19  C   UNL     1      50.325   2.224  17.225  0.00  0.00    +0.000 C 
ATOM     20  O   UNL     1      49.819   1.669  16.242  0.00  0.00    +0.000 OA
ATOM     21  N   UNL     1      49.582   3.022  18.058  0.00  0.00    +0.000 N 
ATOM     22  H   UNL     1      50.019   3.482  18.836  0.00  0.00    +0.000 HD
BRANCH  19  30
ATOM     23  C   UNL     1      52.894   4.456  17.710  0.00  0.00    +0.000 A 
ATOM     24  N   UNL     1      54.040   5.108  17.977  0.00  0.00    +0.000 NA
ATOM     25  C   UNL     1      55.119   4.381  18.269  0.00  0.00    +0.000 A 
ATOM     26  N   UNL     1      55.199   3.054  18.320  0.00  0.00    +0.000 NA
ATOM     27  C   UNL     1      54.029   2.446  18.059  0.00  0.00    +0.000 A 
ATOM     28  S   UNL     1      53.938   0.751  18.083  0.00  0.00    +0.000 S 
ATOM     29  C   UNL     1      52.282   0.783  17.695  0.00  0.00    +0.000 A 
ATOM     30  C   UNL     1      51.758   2.061  17.544  0.00  0.00    +0.000 A 
ATOM     31  C   UNL     1      52.816   3.055  17.754  0.00  0.00    +0.000 A 
BRANCH  23  33
ATOM     32  C   UNL     1      52.080   6.385  16.679  0.00  0.00    +0.000 C 
ATOM     33  O   UNL     1      51.777   5.209  17.422  0.00  0.00    +0.000 OA
ENDBRANCH  23  33
ENDBRANCH  19  30
ENDBRANCH  18  21
ENDBRANCH   1  18
TORSDOF 8
ENDMDL
MODEL 9
REMARK VINA RESULT:    -6.506      3.442      8.971
REMARK INTER + INTRA:         -11.358
REMARK INTER:                  -8.948
REMARK INTRA:                  -2.410
REMARK UNBOUND:                -1.809
REMARK  Name = 
REMARK  10 active torsions:
REMARK  status: ('A' for Active; 'I' for Inactive)
REMARK    1  A    between atoms: C_1  and  O_2
REMARK    2  A    between atoms: O_2  and  C_3
REMARK    3  A    between atoms: C_10  and  C_11
REMARK    4  A    between atoms: N_13  and  C_14
REMARK    5  A    between atoms: C_14  and  C_15
REMARK    6  A    between atoms: C_18  and  N_19
REMARK    7  A    between atoms: N_19  and  C_20
REMARK    8  A    between atoms: C_20  and  C_21
REMARK    9  A    between atoms: C_20  and  C_22
REMARK   10  A    between atoms: C_22  and  C_23
REMARK                            x       y       z     vdW  Elec       q    Type
REMARK                         _______ _______ _______ _____ _____    ______ ____
ROOT
ATOM      1  C   UNL     1      48.444   3.641  17.742  0.00  0.00    +0.000 A 
ATOM      2  C   UNL     1      49.635   3.171  17.181  0.00  0.00    +0.000 A 
ATOM      3  C   UNL     1      50.876   3.517  17.737  0.00  0.00    +0.000 A 
ATOM      4  C   UNL     1      50.968   4.306  18.891  0.00  0.00    +0.000 A 
ATOM      5  C   UNL     1      49.773   4.635  19.537  0.00  0.00    +0.000 A 
ATOM      6  C   UNL     1      48.526   4.329  18.961  0.00  0.00    +0.000 A 
ENDROOT
BRANCH   4   7
ATOM      7  N   UNL     1      52.171   4.827  19.386  0.00  0.00    +0.000 N 
ATOM      8  H   UNL     1      53.004   4.378  19.009  0.00  0.00    +0.000 HD
BRANCH   7   9
ATOM      9  C   UNL     1      52.281   6.276  19.628  0.00  0.00    +0.000 C 
ATOM     10  C   UNL     1      53.629   6.536  20.331  0.00  0.00    +0.000 C 
BRANCH   9  11
ATOM     11  C   UNL     1      52.212   7.090  18.315  0.00  0.00    +0.000 C 
BRANCH  11  12
ATOM     12  C   UNL     1      50.862   7.709  17.995  0.00  0.00    +0.000 A 
ATOM     13  C   UNL     1      50.076   7.252  16.926  0.00  0.00    +0.000 A 
ATOM     14  C   UNL     1      48.776   7.731  16.740  0.00  0.00    +0.000 A 
ATOM     15  C   UNL     1      48.253   8.691  17.602  0.00  0.00    +0.000 A 
ATOM     16  C   UNL     1      49.042   9.196  18.631  0.00  0.00    +0.000 A 
ATOM     17  C   UNL     1      50.336   8.706  18.830  0.00  0.00    +0.000 A 
ENDBRANCH  11  12
ENDBRANCH   9  11
ENDBRANCH   7   9
ENDBRANCH   4   7
BRANCH   1  18
ATOM     18  C   UNL     1      47.125   3.447  17.025  0.00  0.00    +0.000 C 
BRANCH  18  21
ATOM     19  C   UNL     1      47.034   4.214  14.666  0.00  0.00    +0.000 C 
ATOM     20  O   UNL     1      47.354   3.098  14.238  0.00  0.00    +0.000 OA
ATOM     21  N   UNL     1      46.898   4.453  16.011  0.00  0.00    +0.000 N 
ATOM     22  H   UNL     1      46.613   5.360  16.334  0.00  0.00    +0.000 HD
BRANCH  19  30
ATOM     23  C   UNL     1      44.306   5.125  12.784  0.00  0.00    +0.000 A 
ATOM     24  N   UNL     1      43.381   5.711  12.000  0.00  0.00    +0.000 NA
ATOM     25  C   UNL     1      43.713   6.846  11.384  0.00  0.00    +0.000 A 
ATOM     26  N   UNL     1      44.881   7.479  11.449  0.00  0.00    +0.000 NA
ATOM     27  C   UNL     1      45.768   6.866  12.252  0.00  0.00    +0.000 A 
ATOM     28  S   UNL     1      47.315   7.532  12.461  0.00  0.00    +0.000 S 
ATOM     29  C   UNL     1      47.768   6.282  13.521  0.00  0.00    +0.000 A 
ATOM     30  C   UNL     1      46.771   5.341  13.748  0.00  0.00    +0.000 A 
ATOM     31  C   UNL     1      45.576   5.693  12.974  0.00  0.00    +0.000 A 
BRANCH  23  33
ATOM     32  C   UNL     1      43.630   2.906  12.530  0.00  0.00    +0.000 C 
ATOM     33  O   UNL     1      43.957   3.960  13.429  0.00  0.00    +0.000 OA
ENDBRANCH  23  33
ENDBRANCH  19  30
ENDBRANCH  18  21
ENDBRANCH   1  18
TORSDOF 8
ENDMDL
