MODEL 1
REMARK VINA RESULT:    -7.321      0.000      0.000
REMARK INTER + INTRA:          -9.967
REMARK INTER:                  -9.461
REMARK INTRA:                  -0.506
REMARK UNBOUND:                -0.506
REMARK  Name = 
REMARK  7 active torsions:
REMARK  status: ('A' for Active; 'I' for Inactive)
REMARK    1  A    between atoms: C_1  and  N_2
REMARK    2  A    between atoms: C_3  and  C_5
REMARK    3  A    between atoms: N_9  and  C_10
REMARK    4  A    between atoms: C_10  and  C_11
REMARK    5  A    between atoms: C_11  and  C_12
REMARK    6  A    between atoms: C_11  and  C_13
REMARK    7  A    between atoms: C_17  and  C_18
REMARK                            x       y       z     vdW  Elec       q    Type
REMARK                         _______ _______ _______ _____ _____    ______ ____
ROOT
ATOM      1  C   UNL     1      45.807   5.644  10.874  0.00  0.00    +0.000 C 
ENDROOT
BRANCH   1   6
ATOM      2  C   UNL     1      48.010   5.467  15.479  0.00  0.00    +0.000 A 
ATOM      3  C   UNL     1      48.142   6.410  14.465  0.00  0.00    +0.000 A 
ATOM      4  C   UNL     1      47.316   6.328  13.344  0.00  0.00    +0.000 A 
ATOM      5  C   UNL     1      46.391   5.294  13.241  0.00  0.00    +0.000 A 
ATOM      6  N   UNL     1      45.463   5.204  12.219  0.00  0.00    +0.000 N 
ATOM      7  N   UNL     1      46.284   4.349  14.197  0.00  0.00    +0.000 NA
ATOM      8  C   UNL     1      47.092   4.447  15.288  0.00  0.00    +0.000 A 
ATOM      9  H   UNL     1      45.042   4.279  12.283  0.00  0.00    +0.000 HD
BRANCH   2  12
ATOM     10  C   UNL     1      48.751   5.872  19.157  0.00  0.00    +0.000 C 
ATOM     11  N   UNL     1      48.096   5.822  17.876  0.00  0.00    +0.000 N 
ATOM     12  C   UNL     1      48.800   5.523  16.728  0.00  0.00    +0.000 C 
ATOM     13  O   UNL     1      50.001   5.283  16.708  0.00  0.00    +0.000 OA
ATOM     14  H   UNL     1      47.084   5.819  17.861  0.00  0.00    +0.000 HD
ENDBRANCH   2  12
ENDBRANCH   1   6
BRANCH   1  15
ATOM     15  C   UNL     1      44.825   5.100   9.811  0.00  0.00    +0.000 C 
ATOM     16  C   UNL     1      43.389   5.031  10.355  0.00  0.00    +0.000 C 
BRANCH  15  17
ATOM     17  C   UNL     1      45.283   3.803   9.157  0.00  0.00    +0.000 A 
ATOM     18  C   UNL     1      44.833   2.548   9.595  0.00  0.00    +0.000 A 
ATOM     19  C   UNL     1      45.186   1.379   8.918  0.00  0.00    +0.000 A 
ATOM     20  C   UNL     1      46.007   1.441   7.798  0.00  0.00    +0.000 A 
ATOM     21  C   UNL     1      46.508   2.672   7.365  0.00  0.00    +0.000 A 
ATOM     22  C   UNL     1      46.148   3.847   8.049  0.00  0.00    +0.000 A 
BRANCH  21  23
ATOM     23  C   UNL     1      47.353   2.787   6.147  0.00  0.00    +0.000 C 
ATOM     24  N   UNL     1      48.690   2.528   6.278  0.00  0.00    +0.000 N 
ATOM     25  O   UNL     1      46.882   3.115   5.065  0.00  0.00    +0.000 OA
ATOM     26  H   UNL     1      49.157   2.472   7.171  0.00  0.00    +0.000 HD
ATOM     27  H   UNL     1      49.261   2.663   5.454  0.00  0.00    +0.000 HD
ENDBRANCH  21  23
ENDBRANCH  15  17
ENDBRANCH   1  15
TORSDOF 5
ENDMDL
MODEL 2
REMARK VINA RESULT:    -7.242      1.939      7.902
REMARK INTER + INTRA:          -9.865
REMARK INTER:                  -9.029
REMARK INTRA:                  -0.836
REMARK UNBOUND:                -0.506
REMARK  Name = 
REMARK  7 active torsions:
REMARK  status: ('A' for Active; 'I' for Inactive)
REMARK    1  A    between atoms: C_1  and  N_2
REMARK    2  A    between atoms: C_3  and  C_5
REMARK    3  A    between atoms: N_9  and  C_10
REMARK    4  A    between atoms: C_10  and  C_11
REMARK    5  A    between atoms: C_11  and  C_12
REMARK    6  A    between atoms: C_11  and  C_13
REMARK    7  A    between atoms: C_17  and  C_18
REMARK                            x       y       z     vdW  Elec       q    Type
REMARK                         _______ _______ _______ _____ _____    ______ ____
ROOT
ATOM      1  C   UNL     1      43.095   4.248  11.431  0.00  0.00    +0.000 C 
ENDROOT
BRANCH   1   6
ATOM      2  C   UNL     1      46.294   2.685   7.769  0.00  0.00    +0.000 A 
ATOM      3  C   UNL     1      45.668   1.956   8.775  0.00  0.00    +0.000 A 
ATOM      4  C   UNL     1      44.708   2.578   9.573  0.00  0.00    +0.000 A 
ATOM      5  C   UNL     1      44.408   3.922   9.373  0.00  0.00    +0.000 A 
ATOM      6  N   UNL     1      43.396   4.582  10.046  0.00  0.00    +0.000 N 
ATOM      7  N   UNL     1      45.041   4.650   8.432  0.00  0.00    +0.000 NA
ATOM      8  C   UNL     1      45.969   4.027   7.656  0.00  0.00    +0.000 A 
ATOM      9  H   UNL     1      43.509   5.575   9.850  0.00  0.00    +0.000 HD
BRANCH   2  12
ATOM     10  C   UNL     1      48.392   2.263   4.661  0.00  0.00    +0.000 C 
ATOM     11  N   UNL     1      47.443   2.737   5.635  0.00  0.00    +0.000 N 
ATOM     12  C   UNL     1      47.272   2.082   6.837  0.00  0.00    +0.000 C 
ATOM     13  O   UNL     1      47.894   1.079   7.162  0.00  0.00    +0.000 OA
ATOM     14  H   UNL     1      47.049   3.660   5.504  0.00  0.00    +0.000 HD
ENDBRANCH   2  12
ENDBRANCH   1   6
BRANCH   1  15
ATOM     15  C   UNL     1      43.419   5.410  12.398  0.00  0.00    +0.000 C 
ATOM     16  C   UNL     1      42.772   6.725  11.934  0.00  0.00    +0.000 C 
BRANCH  15  17
ATOM     17  C   UNL     1      44.903   5.551  12.716  0.00  0.00    +0.000 A 
ATOM     18  C   UNL     1      45.716   6.499  12.076  0.00  0.00    +0.000 A 
ATOM     19  C   UNL     1      47.048   6.678  12.454  0.00  0.00    +0.000 A 
ATOM     20  C   UNL     1      47.596   5.905  13.470  0.00  0.00    +0.000 A 
ATOM     21  C   UNL     1      46.824   4.921  14.096  0.00  0.00    +0.000 A 
ATOM     22  C   UNL     1      45.482   4.745  13.713  0.00  0.00    +0.000 A 
BRANCH  21  23
ATOM     23  C   UNL     1      47.359   4.103  15.215  0.00  0.00    +0.000 C 
ATOM     24  N   UNL     1      47.323   4.647  16.470  0.00  0.00    +0.000 N 
ATOM     25  O   UNL     1      47.830   2.987  15.030  0.00  0.00    +0.000 OA
ATOM     26  H   UNL     1      47.154   5.627  16.643  0.00  0.00    +0.000 HD
ATOM     27  H   UNL     1      47.739   4.101  17.213  0.00  0.00    +0.000 HD
ENDBRANCH  21  23
ENDBRANCH  15  17
ENDBRANCH   1  15
TORSDOF 5
ENDMDL
MODEL 3
REMARK VINA RESULT:    -6.920      3.731      5.499
REMARK INTER + INTRA:          -9.448
REMARK INTER:                  -8.749
REMARK INTRA:                  -0.700
REMARK UNBOUND:                -0.506
REMARK  Name = 
REMARK  7 active torsions:
REMARK  status: ('A' for Active; 'I' for Inactive)
REMARK    1  A    between atoms: C_1  and  N_2
REMARK    2  A    between atoms: C_3  and  C_5
REMARK    3  A    between atoms: N_9  and  C_10
REMARK    4  A    between atoms: C_10  and  C_11
REMARK    5  A    between atoms: C_11  and  C_12
REMARK    6  A    between atoms: C_11  and  C_13
REMARK    7  A    between atoms: C_17  and  C_18
REMARK                            x       y       z     vdW  Elec       q    Type
REMARK                         _______ _______ _______ _____ _____    ______ ____
ROOT
ATOM      1  C   UNL     1      46.864   4.670  15.711  0.00  0.00    +0.000 C 
ENDROOT
BRANCH   1   6
ATOM      2  C   UNL     1      51.076   2.348  17.429  0.00  0.00    +0.000 A 
ATOM      3  C   UNL     1      50.575   3.613  17.721  0.00  0.00    +0.000 A 
ATOM      4  C   UNL     1      49.315   3.975  17.245  0.00  0.00    +0.000 A 
ATOM      5  C   UNL     1      48.588   3.081  16.464  0.00  0.00    +0.000 A 
ATOM      6  N   UNL     1      47.292   3.319  16.046  0.00  0.00    +0.000 N 
ATOM      7  N   UNL     1      49.083   1.870  16.137  0.00  0.00    +0.000 NA
ATOM      8  C   UNL     1      50.310   1.528  16.616  0.00  0.00    +0.000 A 
ATOM      9  H   UNL     1      47.068   2.606  15.355  0.00  0.00    +0.000 HD
BRANCH   2  12
ATOM     10  C   UNL     1      54.082   0.105  17.848  0.00  0.00    +0.000 C 
ATOM     11  N   UNL     1      52.818   0.662  17.441  0.00  0.00    +0.000 N 
ATOM     12  C   UNL     1      52.372   1.863  17.952  0.00  0.00    +0.000 C 
ATOM     13  O   UNL     1      52.997   2.531  18.766  0.00  0.00    +0.000 OA
ATOM     14  H   UNL     1      52.359   0.256  16.635  0.00  0.00    +0.000 HD
ENDBRANCH   2  12
ENDBRANCH   1   6
BRANCH   1  15
ATOM     15  C   UNL     1      47.287   5.081  14.282  0.00  0.00    +0.000 C 
ATOM     16  C   UNL     1      48.206   6.313  14.299  0.00  0.00    +0.000 C 
BRANCH  15  17
ATOM     17  C   UNL     1      46.121   5.215  13.310  0.00  0.00    +0.000 A 
ATOM     18  C   UNL     1      45.641   6.465  12.889  0.00  0.00    +0.000 A 
ATOM     19  C   UNL     1      44.639   6.565  11.922  0.00  0.00    +0.000 A 
ATOM     20  C   UNL     1      44.088   5.415  11.366  0.00  0.00    +0.000 A 
ATOM     21  C   UNL     1      44.514   4.155  11.798  0.00  0.00    +0.000 A 
ATOM     22  C   UNL     1      45.525   4.061  12.771  0.00  0.00    +0.000 A 
BRANCH  21  23
ATOM     23  C   UNL     1      43.982   2.904  11.198  0.00  0.00    +0.000 C 
ATOM     24  N   UNL     1      44.679   2.355  10.157  0.00  0.00    +0.000 N 
ATOM     25  O   UNL     1      42.950   2.383  11.605  0.00  0.00    +0.000 OA
ATOM     26  H   UNL     1      45.396   2.852   9.649  0.00  0.00    +0.000 HD
ATOM     27  H   UNL     1      44.276   1.534   9.724  0.00  0.00    +0.000 HD
ENDBRANCH  21  23
ENDBRANCH  15  17
ENDBRANCH   1  15
TORSDOF 5
ENDMDL
MODEL 4
REMARK VINA RESULT:    -6.706      2.800      8.474
REMARK INTER + INTRA:          -9.172
REMARK INTER:                  -8.450
REMARK INTRA:                  -0.723
REMARK UNBOUND:                -0.506
REMARK  Name = 
REMARK  7 active torsions:
REMARK  status: ('A' for Active; 'I' for Inactive)
REMARK    1  A    between atoms: C_1  and  N_2
REMARK    2  A    between atoms: C_3  and  C_5
REMARK    3  A    between atoms: N_9  and  C_10
REMARK    4  A    between atoms: C_10  and  C_11
REMARK    5  A    between atoms: C_11  and  C_12
REMARK    6  A    between atoms: C_11  and  C_13
REMARK    7  A    between atoms: C_17  and  C_18
REMARK                            x       y       z     vdW  Elec       q    Type
REMARK                         _______ _______ _______ _____ _____    ______ ____
ROOT
ATOM      1  C   UNL     1      48.648   6.640  14.800  0.00  0.00    +0.000 C 
ENDROOT
BRANCH   1   6
ATOM      2  C   UNL     1      45.323   4.152  11.827  0.00  0.00    +0.000 A 
ATOM      3  C   UNL     1      46.088   3.685  12.891  0.00  0.00    +0.000 A 
ATOM      4  C   UNL     1      46.818   4.594  13.658  0.00  0.00    +0.000 A 
ATOM      5  C   UNL     1      46.793   5.946  13.335  0.00  0.00    +0.000 A 
ATOM      6  N   UNL     1      47.399   6.921  14.107  0.00  0.00    +0.000 N 
ATOM      7  N   UNL     1      46.091   6.405  12.280  0.00  0.00    +0.000 NA
ATOM      8  C   UNL     1      45.378   5.508  11.546  0.00  0.00    +0.000 A 
ATOM      9  H   UNL     1      47.385   7.781  13.562  0.00  0.00    +0.000 HD
BRANCH   2  12
ATOM     10  C   UNL     1      44.384   1.676   9.138  0.00  0.00    +0.000 C 
ATOM     11  N   UNL     1      45.103   2.594   9.982  0.00  0.00    +0.000 N 
ATOM     12  C   UNL     1      44.469   3.264  11.008  0.00  0.00    +0.000 C 
ATOM     13  O   UNL     1      43.281   3.134  11.274  0.00  0.00    +0.000 OA
ATOM     14  H   UNL     1      46.114   2.591   9.933  0.00  0.00    +0.000 HD
ENDBRANCH   2  12
ENDBRANCH   1   6
BRANCH   1  15
ATOM     15  C   UNL     1      48.595   7.042  16.292  0.00  0.00    +0.000 C 
ATOM     16  C   UNL     1      49.569   8.190  16.600  0.00  0.00    +0.000 C 
BRANCH  15  17
ATOM     17  C   UNL     1      48.728   5.867  17.252  0.00  0.00    +0.000 A 
ATOM     18  C   UNL     1      48.240   5.919  18.566  0.00  0.00    +0.000 A 
ATOM     19  C   UNL     1      48.283   4.797  19.396  0.00  0.00    +0.000 A 
ATOM     20  C   UNL     1      48.827   3.605  18.931  0.00  0.00    +0.000 A 
ATOM     21  C   UNL     1      49.362   3.535  17.642  0.00  0.00    +0.000 A 
ATOM     22  C   UNL     1      49.314   4.667  16.809  0.00  0.00    +0.000 A 
BRANCH  21  23
ATOM     23  C   UNL     1      49.912   2.268  17.092  0.00  0.00    +0.000 C 
ATOM     24  N   UNL     1      50.898   1.644  17.806  0.00  0.00    +0.000 N 
ATOM     25  O   UNL     1      49.516   1.801  16.031  0.00  0.00    +0.000 OA
ATOM     26  H   UNL     1      51.405   2.091  18.556  0.00  0.00    +0.000 HD
ATOM     27  H   UNL     1      51.300   0.813  17.393  0.00  0.00    +0.000 HD
ENDBRANCH  21  23
ENDBRANCH  15  17
ENDBRANCH   1  15
TORSDOF 5
ENDMDL
MODEL 5
REMARK VINA RESULT:    -6.679      3.152      3.978
REMARK INTER + INTRA:          -9.138
REMARK INTER:                  -8.361
REMARK INTRA:                  -0.777
REMARK UNBOUND:                -0.506
REMARK  Name = 
REMARK  7 active torsions:
REMARK  status: ('A' for Active; 'I' for Inactive)
REMARK    1  A    between atoms: C_1  and  N_2
REMARK    2  A    between atoms: C_3  and  C_5
REMARK    3  A    between atoms: N_9  and  C_10
REMARK    4  A    between atoms: C_10  and  C_11
REMARK    5  A    between atoms: C_11  and  C_12
REMARK    6  A    between atoms: C_11  and  C_13
REMARK    7  A    between atoms: C_17  and  C_18
REMARK                            x       y       z     vdW  Elec       q    Type
REMARK                         _______ _______ _______ _____ _____    ______ ____
ROOT
ATOM      1  C   UNL     1      44.655   5.744  12.750  0.00  0.00    +0.000 C 
ENDROOT
BRANCH   1   6
ATOM      2  C   UNL     1      48.897   8.550  12.290  0.00  0.00    +0.000 A 
ATOM      3  C   UNL     1      48.464   7.462  11.539  0.00  0.00    +0.000 A 
ATOM      4  C   UNL     1      47.185   6.948  11.756  0.00  0.00    +0.000 A 
ATOM      5  C   UNL     1      46.372   7.509  12.736  0.00  0.00    +0.000 A 
ATOM      6  N   UNL     1      45.058   7.130  12.939  0.00  0.00    +0.000 N 
ATOM      7  N   UNL     1      46.798   8.534  13.501  0.00  0.00    +0.000 NA
ATOM      8  C   UNL     1      48.045   9.030  13.272  0.00  0.00    +0.000 A 
ATOM      9  H   UNL     1      44.759   7.557  13.814  0.00  0.00    +0.000 HD
BRANCH   2  12
ATOM     10  C   UNL     1      52.453   8.979  11.099  0.00  0.00    +0.000 C 
ATOM     11  N   UNL     1      51.149   8.445  11.397  0.00  0.00    +0.000 N 
ATOM     12  C   UNL     1      50.210   9.196  12.075  0.00  0.00    +0.000 C 
ATOM     13  O   UNL     1      50.405  10.341  12.463  0.00  0.00    +0.000 OA
ATOM     14  H   UNL     1      50.870   7.589  10.935  0.00  0.00    +0.000 HD
ENDBRANCH   2  12
ENDBRANCH   1   6
BRANCH   1  15
ATOM     15  C   UNL     1      43.816   5.547  11.467  0.00  0.00    +0.000 C 
ATOM     16  C   UNL     1      42.310   5.549  11.773  0.00  0.00    +0.000 C 
BRANCH  15  17
ATOM     17  C   UNL     1      44.255   4.359  10.620  0.00  0.00    +0.000 A 
ATOM     18  C   UNL     1      43.785   3.058  10.859  0.00  0.00    +0.000 A 
ATOM     19  C   UNL     1      44.122   2.002  10.010  0.00  0.00    +0.000 A 
ATOM     20  C   UNL     1      44.946   2.224   8.913  0.00  0.00    +0.000 A 
ATOM     21  C   UNL     1      45.466   3.499   8.674  0.00  0.00    +0.000 A 
ATOM     22  C   UNL     1      45.122   4.560   9.531  0.00  0.00    +0.000 A 
BRANCH  21  23
ATOM     23  C   UNL     1      46.315   3.788   7.488  0.00  0.00    +0.000 C 
ATOM     24  N   UNL     1      46.331   2.861   6.481  0.00  0.00    +0.000 N 
ATOM     25  O   UNL     1      46.990   4.807   7.412  0.00  0.00    +0.000 OA
ATOM     26  H   UNL     1      45.975   1.923   6.588  0.00  0.00    +0.000 HD
ATOM     27  H   UNL     1      46.954   3.045   5.706  0.00  0.00    +0.000 HD
ENDBRANCH  21  23
ENDBRANCH  15  17
ENDBRANCH   1  15
TORSDOF 5
ENDMDL
MODEL 6
REMARK VINA RESULT:    -6.366      3.912      8.340
REMARK INTER + INTRA:          -8.733
REMARK INTER:                  -7.880
REMARK INTRA:                  -0.853
REMARK UNBOUND:                -0.506
REMARK  Name = 
REMARK  7 active torsions:
REMARK  status: ('A' for Active; 'I' for Inactive)
REMARK    1  A    between atoms: C_1  and  N_2
REMARK    2  A    between atoms: C_3  and  C_5
REMARK    3  A    between atoms: N_9  and  C_10
REMARK    4  A    between atoms: C_10  and  C_11
REMARK    5  A    between atoms: C_11  and  C_12
REMARK    6  A    between atoms: C_11  and  C_13
REMARK    7  A    between atoms: C_17  and  C_18
REMARK                            x       y       z     vdW  Elec       q    Type
REMARK                         _______ _______ _______ _____ _____    ______ ____
ROOT
ATOM      1  C   UNL     1      49.687   8.300  15.251  0.00  0.00    +0.000 C 
ENDROOT
BRANCH   1   6
ATOM      2  C   UNL     1      45.898   6.366  12.426  0.00  0.00    +0.000 A 
ATOM      3  C   UNL     1      46.068   7.653  12.926  0.00  0.00    +0.000 A 
ATOM      4  C   UNL     1      47.270   7.991  13.549  0.00  0.00    +0.000 A 
ATOM      5  C   UNL     1      48.270   7.033  13.686  0.00  0.00    +0.000 A 
ATOM      6  N   UNL     1      49.526   7.315  14.191  0.00  0.00    +0.000 N 
ATOM      7  N   UNL     1      48.099   5.770  13.246  0.00  0.00    +0.000 NA
ATOM      8  C   UNL     1      46.925   5.458  12.633  0.00  0.00    +0.000 A 
ATOM      9  H   UNL     1      49.988   6.422  14.349  0.00  0.00    +0.000 HD
BRANCH   2  12
ATOM     10  C   UNL     1      42.252   5.614  11.802  0.00  0.00    +0.000 C 
ATOM     11  N   UNL     1      43.506   5.968  12.415  0.00  0.00    +0.000 N 
ATOM     12  C   UNL     1      44.682   5.948  11.694  0.00  0.00    +0.000 C 
ATOM     13  O   UNL     1      44.751   5.639  10.511  0.00  0.00    +0.000 OA
ATOM     14  H   UNL     1      43.480   6.414  13.323  0.00  0.00    +0.000 HD
ENDBRANCH   2  12
ENDBRANCH   1   6
BRANCH   1  15
ATOM     15  C   UNL     1      50.204   7.667  16.564  0.00  0.00    +0.000 C 
ATOM     16  C   UNL     1      51.481   6.845  16.328  0.00  0.00    +0.000 C 
BRANCH  15  17
ATOM     17  C   UNL     1      49.136   6.909  17.344  0.00  0.00    +0.000 A 
ATOM     18  C   UNL     1      48.546   7.435  18.503  0.00  0.00    +0.000 A 
ATOM     19  C   UNL     1      47.500   6.769  19.145  0.00  0.00    +0.000 A 
ATOM     20  C   UNL     1      47.032   5.558  18.646  0.00  0.00    +0.000 A 
ATOM     21  C   UNL     1      47.631   4.987  17.518  0.00  0.00    +0.000 A 
ATOM     22  C   UNL     1      48.683   5.663  16.875  0.00  0.00    +0.000 A 
BRANCH  21  23
ATOM     23  C   UNL     1      47.133   3.717  16.929  0.00  0.00    +0.000 C 
ATOM     24  N   UNL     1      47.158   3.600  15.566  0.00  0.00    +0.000 N 
ATOM     25  O   UNL     1      46.700   2.808  17.627  0.00  0.00    +0.000 OA
ATOM     26  H   UNL     1      47.294   4.385  14.946  0.00  0.00    +0.000 HD
ATOM     27  H   UNL     1      46.767   2.752  15.176  0.00  0.00    +0.000 HD
ENDBRANCH  21  23
ENDBRANCH  15  17
ENDBRANCH   1  15
TORSDOF 5
ENDMDL
MODEL 7
REMARK VINA RESULT:    -6.347      2.779      8.363
REMARK INTER + INTRA:          -8.708
REMARK INTER:                  -7.921
REMARK INTRA:                  -0.787
REMARK UNBOUND:                -0.506
REMARK  Name = 
REMARK  7 active torsions:
REMARK  status: ('A' for Active; 'I' for Inactive)
REMARK    1  A    between atoms: C_1  and  N_2
REMARK    2  A    between atoms: C_3  and  C_5
REMARK    3  A    between atoms: N_9  and  C_10
REMARK    4  A    between atoms: C_10  and  C_11
REMARK    5  A    between atoms: C_11  and  C_12
REMARK    6  A    between atoms: C_11  and  C_13
REMARK    7  A    between atoms: C_17  and  C_18
REMARK                            x       y       z     vdW  Elec       q    Type
REMARK                         _______ _______ _______ _____ _____    ______ ____
ROOT
ATOM      1  C   UNL     1      48.527   8.548  14.618  0.00  0.00    +0.000 C 
ENDROOT
BRANCH   1   6
ATOM      2  C   UNL     1      45.364   6.061  11.472  0.00  0.00    +0.000 A 
ATOM      3  C   UNL     1      46.406   5.573  12.255  0.00  0.00    +0.000 A 
ATOM      4  C   UNL     1      47.038   6.428  13.159  0.00  0.00    +0.000 A 
ATOM      5  C   UNL     1      46.639   7.757  13.248  0.00  0.00    +0.000 A 
ATOM      6  N   UNL     1      47.138   8.637  14.191  0.00  0.00    +0.000 N 
ATOM      7  N   UNL     1      45.661   8.252  12.463  0.00  0.00    +0.000 NA
ATOM      8  C   UNL     1      45.049   7.405  11.591  0.00  0.00    +0.000 A 
ATOM      9  H   UNL     1      46.821   9.568  13.924  0.00  0.00    +0.000 HD
BRANCH   2  12
ATOM     10  C   UNL     1      44.609   4.016   8.391  0.00  0.00    +0.000 C 
ATOM     11  N   UNL     1      45.239   4.871   9.363  0.00  0.00    +0.000 N 
ATOM     12  C   UNL     1      44.600   5.205  10.539  0.00  0.00    +0.000 C 
ATOM     13  O   UNL     1      43.480   4.811  10.841  0.00  0.00    +0.000 OA
ATOM     14  H   UNL     1      46.228   5.063   9.256  0.00  0.00    +0.000 HD
ENDBRANCH   2  12
ENDBRANCH   1   6
BRANCH   1  15
ATOM     15  C   UNL     1      48.665   8.482  16.156  0.00  0.00    +0.000 C 
ATOM     16  C   UNL     1      49.570   9.606  16.688  0.00  0.00    +0.000 C 
BRANCH  15  17
ATOM     17  C   UNL     1      49.046   7.104  16.682  0.00  0.00    +0.000 A 
ATOM     18  C   UNL     1      50.101   6.917  17.588  0.00  0.00    +0.000 A 
ATOM     19  C   UNL     1      50.369   5.660  18.134  0.00  0.00    +0.000 A 
ATOM     20  C   UNL     1      49.595   4.563  17.773  0.00  0.00    +0.000 A 
ATOM     21  C   UNL     1      48.566   4.709  16.838  0.00  0.00    +0.000 A 
ATOM     22  C   UNL     1      48.299   5.978  16.293  0.00  0.00    +0.000 A 
BRANCH  21  23
ATOM     23  C   UNL     1      47.688   3.571  16.459  0.00  0.00    +0.000 C 
ATOM     24  N   UNL     1      47.051   2.899  17.467  0.00  0.00    +0.000 N 
ATOM     25  O   UNL     1      47.545   3.230  15.291  0.00  0.00    +0.000 OA
ATOM     26  H   UNL     1      47.302   2.996  18.440  0.00  0.00    +0.000 HD
ATOM     27  H   UNL     1      46.501   2.095  17.199  0.00  0.00    +0.000 HD
ENDBRANCH  21  23
ENDBRANCH  15  17
ENDBRANCH   1  15
TORSDOF 5
ENDMDL
MODEL 8
REMARK VINA RESULT:    -6.104      2.585      4.398
REMARK INTER + INTRA:          -8.395
REMARK INTER:                  -7.836
REMARK INTRA:                  -0.559
REMARK UNBOUND:                -0.506
REMARK  Name = 
REMARK  7 active torsions:
REMARK  status: ('A' for Active; 'I' for Inactive)
REMARK    1  A    between atoms: C_1  and  N_2
REMARK    2  A    between atoms: C_3  and  C_5
REMARK    3  A    between atoms: N_9  and  C_10
REMARK    4  A    between atoms: C_10  and  C_11
REMARK    5  A    between atoms: C_11  and  C_12
REMARK    6  A    between atoms: C_11  and  C_13
REMARK    7  A    between atoms: C_17  and  C_18
REMARK                            x       y       z     vdW  Elec       q    Type
REMARK                         _______ _______ _______ _____ _____    ______ ____
ROOT
ATOM      1  C   UNL     1      46.412   4.381  15.119  0.00  0.00    +0.000 C 
ENDROOT
BRANCH   1   6
ATOM      2  C   UNL     1      50.009   4.593  18.739  0.00  0.00    +0.000 A 
ATOM      3  C   UNL     1      48.770   5.223  18.678  0.00  0.00    +0.000 A 
ATOM      4  C   UNL     1      47.885   4.891  17.652  0.00  0.00    +0.000 A 
ATOM      5  C   UNL     1      48.260   3.957  16.691  0.00  0.00    +0.000 A 
ATOM      6  N   UNL     1      47.404   3.493  15.709  0.00  0.00    +0.000 N 
ATOM      7  N   UNL     1      49.475   3.374  16.715  0.00  0.00    +0.000 NA
ATOM      8  C   UNL     1      50.325   3.702  17.726  0.00  0.00    +0.000 A 
ATOM      9  H   UNL     1      47.972   2.970  15.045  0.00  0.00    +0.000 HD
BRANCH   2  12
ATOM     10  C   UNL     1      53.106   4.177  20.855  0.00  0.00    +0.000 C 
ATOM     11  N   UNL     1      52.079   4.013  19.859  0.00  0.00    +0.000 N 
ATOM     12  C   UNL     1      50.976   4.840  19.831  0.00  0.00    +0.000 C 
ATOM     13  O   UNL     1      50.788   5.753  20.625  0.00  0.00    +0.000 OA
ATOM     14  H   UNL     1      52.276   3.409  19.071  0.00  0.00    +0.000 HD
ENDBRANCH   2  12
ENDBRANCH   1   6
BRANCH   1  15
ATOM     15  C   UNL     1      46.747   4.744  13.655  0.00  0.00    +0.000 C 
ATOM     16  C   UNL     1      47.514   6.073  13.566  0.00  0.00    +0.000 C 
BRANCH  15  17
ATOM     17  C   UNL     1      45.549   4.678  12.715  0.00  0.00    +0.000 A 
ATOM     18  C   UNL     1      44.233   4.848  13.171  0.00  0.00    +0.000 A 
ATOM     19  C   UNL     1      43.160   4.883  12.279  0.00  0.00    +0.000 A 
ATOM     20  C   UNL     1      43.380   4.736  10.915  0.00  0.00    +0.000 A 
ATOM     21  C   UNL     1      44.675   4.520  10.434  0.00  0.00    +0.000 A 
ATOM     22  C   UNL     1      45.754   4.487  11.336  0.00  0.00    +0.000 A 
BRANCH  21  23
ATOM     23  C   UNL     1      44.959   4.402   8.979  0.00  0.00    +0.000 C 
ATOM     24  N   UNL     1      44.148   3.584   8.241  0.00  0.00    +0.000 N 
ATOM     25  O   UNL     1      45.892   4.998   8.455  0.00  0.00    +0.000 OA
ATOM     26  H   UNL     1      43.518   2.912   8.654  0.00  0.00    +0.000 HD
ATOM     27  H   UNL     1      44.386   3.471   7.265  0.00  0.00    +0.000 HD
ENDBRANCH  21  23
ENDBRANCH  15  17
ENDBRANCH   1  15
TORSDOF 5
ENDMDL
MODEL 9
REMARK VINA RESULT:    -5.964      3.576      5.071
REMARK INTER + INTRA:          -8.213
REMARK INTER:                  -7.653
REMARK INTRA:                  -0.561
REMARK UNBOUND:                -0.506
REMARK  Name = 
REMARK  7 active torsions:
REMARK  status: ('A' for Active; 'I' for Inactive)
REMARK    1  A    between atoms: C_1  and  N_2
REMARK    2  A    between atoms: C_3  and  C_5
REMARK    3  A    between atoms: N_9  and  C_10
REMARK    4  A    between atoms: C_10  and  C_11
REMARK    5  A    between atoms: C_11  and  C_12
REMARK    6  A    between atoms: C_11  and  C_13
REMARK    7  A    between atoms: C_17  and  C_18
REMARK                            x       y       z     vdW  Elec       q    Type
REMARK                         _______ _______ _______ _____ _____    ______ ____
ROOT
ATOM      1  C   UNL     1      48.175   7.268  14.204  0.00  0.00    +0.000 C 
ENDROOT
BRANCH   1   6
ATOM      2  C   UNL     1      50.786   4.933  17.921  0.00  0.00    +0.000 A 
ATOM      3  C   UNL     1      50.928   6.218  17.406  0.00  0.00    +0.000 A 
ATOM      4  C   UNL     1      49.990   6.692  16.488  0.00  0.00    +0.000 A 
ATOM      5  C   UNL     1      48.945   5.870  16.080  0.00  0.00    +0.000 A 
ATOM      6  N   UNL     1      47.917   6.300  15.261  0.00  0.00    +0.000 N 
ATOM      7  N   UNL     1      48.823   4.608  16.538  0.00  0.00    +0.000 NA
ATOM      8  C   UNL     1      49.741   4.162  17.439  0.00  0.00    +0.000 A 
ATOM      9  H   UNL     1      47.398   5.471  14.977  0.00  0.00    +0.000 HD
BRANCH   2  12
ATOM     10  C   UNL     1      53.604   2.901  19.394  0.00  0.00    +0.000 C 
ATOM     11  N   UNL     1      52.641   3.481  18.495  0.00  0.00    +0.000 N 
ATOM     12  C   UNL     1      51.697   4.381  18.947  0.00  0.00    +0.000 C 
ATOM     13  O   UNL     1      51.608   4.747  20.112  0.00  0.00    +0.000 OA
ATOM     14  H   UNL     1      52.791   3.366  17.501  0.00  0.00    +0.000 HD
ENDBRANCH   2  12
ENDBRANCH   1   6
BRANCH   1  15
ATOM     15  C   UNL     1      48.010   6.656  12.795  0.00  0.00    +0.000 C 
ATOM     16  C   UNL     1      48.847   7.413  11.751  0.00  0.00    +0.000 C 
BRANCH  15  17
ATOM     17  C   UNL     1      46.558   6.461  12.374  0.00  0.00    +0.000 A 
ATOM     18  C   UNL     1      45.742   7.536  11.991  0.00  0.00    +0.000 A 
ATOM     19  C   UNL     1      44.447   7.324  11.513  0.00  0.00    +0.000 A 
ATOM     20  C   UNL     1      43.939   6.033  11.423  0.00  0.00    +0.000 A 
ATOM     21  C   UNL     1      44.712   4.945  11.840  0.00  0.00    +0.000 A 
ATOM     22  C   UNL     1      46.016   5.164  12.318  0.00  0.00    +0.000 A 
BRANCH  21  23
ATOM     23  C   UNL     1      44.222   3.547  11.719  0.00  0.00    +0.000 C 
ATOM     24  N   UNL     1      44.787   2.606  12.535  0.00  0.00    +0.000 N 
ATOM     25  O   UNL     1      43.355   3.236  10.910  0.00  0.00    +0.000 OA
ATOM     26  H   UNL     1      45.640   2.763  13.050  0.00  0.00    +0.000 HD
ATOM     27  H   UNL     1      44.483   1.651  12.404  0.00  0.00    +0.000 HD
ENDBRANCH  21  23
ENDBRANCH  15  17
ENDBRANCH   1  15
TORSDOF 5
ENDMDL
