MODEL 1
REMARK VINA RESULT:    -8.804      0.000      0.000
REMARK INTER + INTRA:         -13.062
REMARK INTER:                 -11.892
REMARK INTRA:                  -1.169
REMARK UNBOUND:                -1.169
REMARK  Name = 
REMARK  7 active torsions:
REMARK  status: ('A' for Active; 'I' for Inactive)
REMARK    1  A    between atoms: C_1  and  C_2
REMARK    2  A    between atoms: C_6  and  C_7
REMARK    3  A    between atoms: C_7  and  O_8
REMARK    4  A    between atoms: O_8  and  C_9
REMARK    5  A    between atoms: C_12  and  C_13
REMARK    6  A    between atoms: C_13  and  N_14
REMARK    7  A    between atoms: C_15  and  C_17
REMARK                            x       y       z     vdW  Elec       q    Type
REMARK                         _______ _______ _______ _____ _____    ______ ____
ROOT
ATOM      1  C   UNL     1      46.917   7.932  13.253  0.00  0.00    +0.000 C 
ENDROOT
BRANCH   1   5
ATOM      2  C   UNL     1      44.869   4.959  10.900  0.00  0.00    +0.000 A 
ATOM      3  C   UNL     1      45.820   5.786  10.298  0.00  0.00    +0.000 A 
ATOM      4  C   UNL     1      46.481   6.761  11.050  0.00  0.00    +0.000 A 
ATOM      5  C   UNL     1      46.194   6.918  12.412  0.00  0.00    +0.000 A 
ATOM      6  C   UNL     1      45.189   6.132  12.988  0.00  0.00    +0.000 A 
ATOM      7  C   UNL     1      44.529   5.162  12.237  0.00  0.00    +0.000 A 
BRANCH   2   8
ATOM      8  O   UNL     1      44.331   3.986  10.101  0.00  0.00    +0.000 OA
BRANCH   8   9
ATOM      9  C   UNL     1      44.494   4.209   8.696  0.00  0.00    +0.000 C 
BRANCH   9  15
ATOM     10  C   UNL     1      47.737   2.693   5.170  0.00  0.00    +0.000 C 
ATOM     11  C   UNL     1      46.947   2.392   6.408  0.00  0.00    +0.000 A 
ATOM     12  C   UNL     1      47.035   1.149   7.042  0.00  0.00    +0.000 A 
ATOM     13  C   UNL     1      46.295   0.890   8.197  0.00  0.00    +0.000 A 
ATOM     14  C   UNL     1      45.460   1.873   8.728  0.00  0.00    +0.000 A 
ATOM     15  C   UNL     1      45.352   3.122   8.104  0.00  0.00    +0.000 A 
ATOM     16  C   UNL     1      46.107   3.374   6.949  0.00  0.00    +0.000 A 
ENDBRANCH   9  15
ENDBRANCH   8   9
ENDBRANCH   2   8
ENDBRANCH   1   5
BRANCH   1  17
ATOM     17  N   UNL     1      47.365   7.361  14.496  0.00  0.00    +0.000 N 
ATOM     18  C   UNL     1      48.590   6.750  14.574  0.00  0.00    +0.000 C 
ATOM     19  O   UNL     1      49.356   6.712  13.613  0.00  0.00    +0.000 OA
ATOM     20  H   UNL     1      46.671   7.200  15.219  0.00  0.00    +0.000 HD
BRANCH  18  21
ATOM     21  C   UNL     1      48.972   6.189  15.873  0.00  0.00    +0.000 A 
ATOM     22  C   UNL     1      50.003   6.780  16.590  0.00  0.00    +0.000 A 
ATOM     23  S   UNL     1      50.320   6.025  18.084  0.00  0.00    +0.000 S 
ATOM     24  C   UNL     1      49.118   4.852  17.807  0.00  0.00    +0.000 A 
ATOM     25  N   UNL     1      48.896   3.858  18.708  0.00  0.00    +0.000 NA
ATOM     26  C   UNL     1      47.974   3.022  18.360  0.00  0.00    +0.000 A 
ATOM     27  N   UNL     1      47.246   3.101  17.200  0.00  0.00    +0.000 N 
ATOM     28  C   UNL     1      47.417   4.103  16.274  0.00  0.00    +0.000 A 
ATOM     29  O   UNL     1      46.720   4.168  15.268  0.00  0.00    +0.000 OA
ATOM     30  C   UNL     1      48.461   5.054  16.607  0.00  0.00    +0.000 A 
ATOM     31  H   UNL     1      46.527   2.422  16.998  0.00  0.00    +0.000 HD
ENDBRANCH  18  21
ENDBRANCH   1  17
TORSDOF 6
ENDMDL
MODEL 2
REMARK VINA RESULT:    -8.376      1.504      1.997
REMARK INTER + INTRA:         -12.483
REMARK INTER:                 -11.612
REMARK INTRA:                  -0.870
REMARK UNBOUND:                -1.169
REMARK  Name = 
REMARK  7 active torsions:
REMARK  status: ('A' for Active; 'I' for Inactive)
REMARK    1  A    between atoms: C_1  and  C_2
REMARK    2  A    between atoms: C_6  and  C_7
REMARK    3  A    between atoms: C_7  and  O_8
REMARK    4  A    between atoms: O_8  and  C_9
REMARK    5  A    between atoms: C_12  and  C_13
REMARK    6  A    between atoms: C_13  and  N_14
REMARK    7  A    between atoms: C_15  and  C_17
REMARK                            x       y       z     vdW  Elec       q    Type
REMARK                         _______ _______ _______ _____ _____    ______ ____
ROOT
ATOM      1  C   UNL     1      47.851   7.238  13.391  0.00  0.00    +0.000 C 
ENDROOT
BRANCH   1   5
ATOM      2  C   UNL     1      45.246   4.211  11.770  0.00  0.00    +0.000 A 
ATOM      3  C   UNL     1      45.256   5.490  11.211  0.00  0.00    +0.000 A 
ATOM      4  C   UNL     1      46.088   6.483  11.736  0.00  0.00    +0.000 A 
ATOM      5  C   UNL     1      46.918   6.202  12.830  0.00  0.00    +0.000 A 
ATOM      6  C   UNL     1      46.848   4.938  13.427  0.00  0.00    +0.000 A 
ATOM      7  C   UNL     1      46.016   3.951  12.903  0.00  0.00    +0.000 A 
BRANCH   2   8
ATOM      8  O   UNL     1      44.455   3.288  11.140  0.00  0.00    +0.000 OA
BRANCH   8   9
ATOM      9  C   UNL     1      44.076   3.639   9.805  0.00  0.00    +0.000 C 
BRANCH   9  15
ATOM     10  C   UNL     1      46.801  -0.004   7.670  0.00  0.00    +0.000 C 
ATOM     11  C   UNL     1      46.461   1.452   7.785  0.00  0.00    +0.000 A 
ATOM     12  C   UNL     1      47.091   2.410   6.984  0.00  0.00    +0.000 A 
ATOM     13  C   UNL     1      46.757   3.760   7.103  0.00  0.00    +0.000 A 
ATOM     14  C   UNL     1      45.792   4.164   8.025  0.00  0.00    +0.000 A 
ATOM     15  C   UNL     1      45.157   3.221   8.842  0.00  0.00    +0.000 A 
ATOM     16  C   UNL     1      45.493   1.867   8.707  0.00  0.00    +0.000 A 
ENDBRANCH   9  15
ENDBRANCH   8   9
ENDBRANCH   2   8
ENDBRANCH   1   5
BRANCH   1  17
ATOM     17  N   UNL     1      47.821   7.248  14.830  0.00  0.00    +0.000 N 
ATOM     18  C   UNL     1      48.953   6.959  15.546  0.00  0.00    +0.000 C 
ATOM     19  O   UNL     1      50.028   6.731  14.993  0.00  0.00    +0.000 OA
ATOM     20  H   UNL     1      46.914   7.223  15.284  0.00  0.00    +0.000 HD
BRANCH  18  21
ATOM     21  C   UNL     1      48.841   6.985  17.008  0.00  0.00    +0.000 A 
ATOM     22  C   UNL     1      48.751   8.208  17.659  0.00  0.00    +0.000 A 
ATOM     23  S   UNL     1      48.612   8.075  19.351  0.00  0.00    +0.000 S 
ATOM     24  C   UNL     1      48.711   6.378  19.279  0.00  0.00    +0.000 A 
ATOM     25  N   UNL     1      48.692   5.631  20.416  0.00  0.00    +0.000 NA
ATOM     26  C   UNL     1      48.802   4.359  20.219  0.00  0.00    +0.000 A 
ATOM     27  N   UNL     1      48.913   3.767  18.986  0.00  0.00    +0.000 N 
ATOM     28  C   UNL     1      48.909   4.479  17.809  0.00  0.00    +0.000 A 
ATOM     29  O   UNL     1      48.969   3.915  16.722  0.00  0.00    +0.000 OA
ATOM     30  C   UNL     1      48.815   5.917  17.979  0.00  0.00    +0.000 A 
ATOM     31  H   UNL     1      48.978   2.764  18.902  0.00  0.00    +0.000 HD
ENDBRANCH  18  21
ENDBRANCH   1  17
TORSDOF 6
ENDMDL
MODEL 3
REMARK VINA RESULT:    -7.925      2.152      3.531
REMARK INTER + INTRA:         -11.874
REMARK INTER:                 -10.734
REMARK INTRA:                  -1.140
REMARK UNBOUND:                -1.169
REMARK  Name = 
REMARK  7 active torsions:
REMARK  status: ('A' for Active; 'I' for Inactive)
REMARK    1  A    between atoms: C_1  and  C_2
REMARK    2  A    between atoms: C_6  and  C_7
REMARK    3  A    between atoms: C_7  and  O_8
REMARK    4  A    between atoms: O_8  and  C_9
REMARK    5  A    between atoms: C_12  and  C_13
REMARK    6  A    between atoms: C_13  and  N_14
REMARK    7  A    between atoms: C_15  and  C_17
REMARK                            x       y       z     vdW  Elec       q    Type
REMARK                         _______ _______ _______ _____ _____    ______ ____
ROOT
ATOM      1  C   UNL     1      47.406   4.130  15.034  0.00  0.00    +0.000 C 
ENDROOT
BRANCH   1   5
ATOM      2  C   UNL     1      45.248   4.835  11.371  0.00  0.00    +0.000 A 
ATOM      3  C   UNL     1      45.907   5.891  12.003  0.00  0.00    +0.000 A 
ATOM      4  C   UNL     1      46.600   5.676  13.197  0.00  0.00    +0.000 A 
ATOM      5  C   UNL     1      46.637   4.398  13.772  0.00  0.00    +0.000 A 
ATOM      6  C   UNL     1      45.915   3.363  13.168  0.00  0.00    +0.000 A 
ATOM      7  C   UNL     1      45.223   3.580  11.978  0.00  0.00    +0.000 A 
BRANCH   2   8
ATOM      8  O   UNL     1      44.661   5.128  10.169  0.00  0.00    +0.000 OA
BRANCH   8   9
ATOM      9  C   UNL     1      44.193   3.988   9.440  0.00  0.00    +0.000 C 
BRANCH   9  15
ATOM     10  C   UNL     1      46.738   0.017   7.708  0.00  0.00    +0.000 C 
ATOM     11  C   UNL     1      46.528   1.501   7.733  0.00  0.00    +0.000 A 
ATOM     12  C   UNL     1      47.310   2.359   6.952  0.00  0.00    +0.000 A 
ATOM     13  C   UNL     1      47.094   3.737   6.986  0.00  0.00    +0.000 A 
ATOM     14  C   UNL     1      46.096   4.271   7.801  0.00  0.00    +0.000 A 
ATOM     15  C   UNL     1      45.308   3.430   8.595  0.00  0.00    +0.000 A 
ATOM     16  C   UNL     1      45.527   2.045   8.547  0.00  0.00    +0.000 A 
ENDBRANCH   9  15
ENDBRANCH   8   9
ENDBRANCH   2   8
ENDBRANCH   1   5
BRANCH   1  17
ATOM     17  N   UNL     1      47.525   5.317  15.839  0.00  0.00    +0.000 N 
ATOM     18  C   UNL     1      48.607   5.488  16.663  0.00  0.00    +0.000 C 
ATOM     19  O   UNL     1      49.523   4.668  16.706  0.00  0.00    +0.000 OA
ATOM     20  H   UNL     1      46.694   5.885  15.971  0.00  0.00    +0.000 HD
BRANCH  18  21
ATOM     21  C   UNL     1      48.654   6.722  17.454  0.00  0.00    +0.000 A 
ATOM     22  C   UNL     1      48.715   6.638  18.838  0.00  0.00    +0.000 A 
ATOM     23  S   UNL     1      48.777   8.153  19.615  0.00  0.00    +0.000 S 
ATOM     24  C   UNL     1      48.681   8.978  18.129  0.00  0.00    +0.000 A 
ATOM     25  N   UNL     1      48.647  10.337  18.089  0.00  0.00    +0.000 NA
ATOM     26  C   UNL     1      48.546  10.831  16.900  0.00  0.00    +0.000 A 
ATOM     27  N   UNL     1      48.490  10.089  15.747  0.00  0.00    +0.000 N 
ATOM     28  C   UNL     1      48.547   8.714  15.738  0.00  0.00    +0.000 A 
ATOM     29  O   UNL     1      48.537   8.083  14.687  0.00  0.00    +0.000 OA
ATOM     30  C   UNL     1      48.635   8.109  17.053  0.00  0.00    +0.000 A 
ATOM     31  H   UNL     1      48.428  10.540  14.848  0.00  0.00    +0.000 HD
ENDBRANCH  18  21
ENDBRANCH   1  17
TORSDOF 6
ENDMDL
MODEL 4
REMARK VINA RESULT:    -7.514      2.719      3.449
REMARK INTER + INTRA:         -11.319
REMARK INTER:                 -10.221
REMARK INTRA:                  -1.098
REMARK UNBOUND:                -1.169
REMARK  Name = 
REMARK  7 active torsions:
REMARK  status: ('A' for Active; 'I' for Inactive)
REMARK    1  A    between atoms: C_1  and  C_2
REMARK    2  A    between atoms: C_6  and  C_7
REMARK    3  A    between atoms: C_7  and  O_8
REMARK    4  A    between atoms: O_8  and  C_9
REMARK    5  A    between atoms: C_12  and  C_13
REMARK    6  A    between atoms: C_13  and  N_14
REMARK    7  A    between atoms: C_15  and  C_17
REMARK                            x       y       z     vdW  Elec       q    Type
REMARK                         _______ _______ _______ _____ _____    ______ ____
ROOT
ATOM      1  C   UNL     1      47.893   5.135  14.849  0.00  0.00    +0.000 C 
ENDROOT
BRANCH   1   5
ATOM      2  C   UNL     1      45.194   4.925  11.496  0.00  0.00    +0.000 A 
ATOM      3  C   UNL     1      46.118   5.967  11.578  0.00  0.00    +0.000 A 
ATOM      4  C   UNL     1      46.991   6.051  12.667  0.00  0.00    +0.000 A 
ATOM      5  C   UNL     1      46.942   5.091  13.686  0.00  0.00    +0.000 A 
ATOM      6  C   UNL     1      45.964   4.091  13.629  0.00  0.00    +0.000 A 
ATOM      7  C   UNL     1      45.094   4.010  12.544  0.00  0.00    +0.000 A 
BRANCH   2   8
ATOM      8  O   UNL     1      44.435   4.885  10.356  0.00  0.00    +0.000 OA
BRANCH   8   9
ATOM      9  C   UNL     1      44.145   3.568   9.878  0.00  0.00    +0.000 C 
BRANCH   9  15
ATOM     10  C   UNL     1      46.791  -0.081   7.655  0.00  0.00    +0.000 C 
ATOM     11  C   UNL     1      46.456   1.376   7.778  0.00  0.00    +0.000 A 
ATOM     12  C   UNL     1      47.056   2.331   6.952  0.00  0.00    +0.000 A 
ATOM     13  C   UNL     1      46.727   3.681   7.080  0.00  0.00    +0.000 A 
ATOM     14  C   UNL     1      45.796   4.088   8.035  0.00  0.00    +0.000 A 
ATOM     15  C   UNL     1      45.190   3.148   8.877  0.00  0.00    +0.000 A 
ATOM     16  C   UNL     1      45.521   1.793   8.734  0.00  0.00    +0.000 A 
ENDBRANCH   9  15
ENDBRANCH   8   9
ENDBRANCH   2   8
ENDBRANCH   1   5
BRANCH   1  17
ATOM     17  N   UNL     1      47.901   6.431  15.472  0.00  0.00    +0.000 N 
ATOM     18  C   UNL     1      49.065   6.948  15.978  0.00  0.00    +0.000 C 
ATOM     19  O   UNL     1      50.136   6.352  15.875  0.00  0.00    +0.000 OA
ATOM     20  H   UNL     1      47.008   6.829  15.748  0.00  0.00    +0.000 HD
BRANCH  18  21
ATOM     21  C   UNL     1      48.990   8.273  16.601  0.00  0.00    +0.000 A 
ATOM     22  C   UNL     1      49.565   9.360  15.956  0.00  0.00    +0.000 A 
ATOM     23  S   UNL     1      49.383  10.830  16.796  0.00  0.00    +0.000 S 
ATOM     24  C   UNL     1      48.567  10.060  18.076  0.00  0.00    +0.000 A 
ATOM     25  N   UNL     1      48.160  10.765  19.165  0.00  0.00    +0.000 NA
ATOM     26  C   UNL     1      47.578  10.053  20.072  0.00  0.00    +0.000 A 
ATOM     27  N   UNL     1      47.353   8.702  19.979  0.00  0.00    +0.000 N 
ATOM     28  C   UNL     1      47.723   7.954  18.886  0.00  0.00    +0.000 A 
ATOM     29  O   UNL     1      47.470   6.756  18.817  0.00  0.00    +0.000 OA
ATOM     30  C   UNL     1      48.406   8.705  17.849  0.00  0.00    +0.000 A 
ATOM     31  H   UNL     1      46.876   8.209  20.719  0.00  0.00    +0.000 HD
ENDBRANCH  18  21
ENDBRANCH   1  17
TORSDOF 6
ENDMDL
MODEL 5
REMARK VINA RESULT:    -7.356      2.198      3.196
REMARK INTER + INTRA:         -11.105
REMARK INTER:                 -10.143
REMARK INTRA:                  -0.963
REMARK UNBOUND:                -1.169
REMARK  Name = 
REMARK  7 active torsions:
REMARK  status: ('A' for Active; 'I' for Inactive)
REMARK    1  A    between atoms: C_1  and  C_2
REMARK    2  A    between atoms: C_6  and  C_7
REMARK    3  A    between atoms: C_7  and  O_8
REMARK    4  A    between atoms: O_8  and  C_9
REMARK    5  A    between atoms: C_12  and  C_13
REMARK    6  A    between atoms: C_13  and  N_14
REMARK    7  A    between atoms: C_15  and  C_17
REMARK                            x       y       z     vdW  Elec       q    Type
REMARK                         _______ _______ _______ _____ _____    ______ ____
ROOT
ATOM      1  C   UNL     1      46.901   4.146  14.996  0.00  0.00    +0.000 C 
ENDROOT
BRANCH   1   5
ATOM      2  C   UNL     1      45.325   4.882  11.053  0.00  0.00    +0.000 A 
ATOM      3  C   UNL     1      46.095   5.859  11.686  0.00  0.00    +0.000 A 
ATOM      4  C   UNL     1      46.601   5.635  12.969  0.00  0.00    +0.000 A 
ATOM      5  C   UNL     1      46.337   4.429  13.632  0.00  0.00    +0.000 A 
ATOM      6  C   UNL     1      45.506   3.486  13.017  0.00  0.00    +0.000 A 
ATOM      7  C   UNL     1      45.000   3.712  11.738  0.00  0.00    +0.000 A 
BRANCH   2   8
ATOM      8  O   UNL     1      44.938   5.163   9.770  0.00  0.00    +0.000 OA
BRANCH   8   9
ATOM      9  C   UNL     1      44.418   4.043   9.045  0.00  0.00    +0.000 C 
BRANCH   9  15
ATOM     10  C   UNL     1      46.708  -0.230   7.722  0.00  0.00    +0.000 C 
ATOM     11  C   UNL     1      46.635   1.266   7.656  0.00  0.00    +0.000 A 
ATOM     12  C   UNL     1      47.550   2.005   6.900  0.00  0.00    +0.000 A 
ATOM     13  C   UNL     1      47.462   3.397   6.847  0.00  0.00    +0.000 A 
ATOM     14  C   UNL     1      46.458   4.063   7.551  0.00  0.00    +0.000 A 
ATOM     15  C   UNL     1      45.538   3.341   8.321  0.00  0.00    +0.000 A 
ATOM     16  C   UNL     1      45.630   1.942   8.359  0.00  0.00    +0.000 A 
ENDBRANCH   9  15
ENDBRANCH   8   9
ENDBRANCH   2   8
ENDBRANCH   1   5
BRANCH   1  17
ATOM     17  N   UNL     1      47.901   5.113  15.362  0.00  0.00    +0.000 N 
ATOM     18  C   UNL     1      48.176   5.357  16.683  0.00  0.00    +0.000 C 
ATOM     19  O   UNL     1      47.620   4.734  17.585  0.00  0.00    +0.000 OA
ATOM     20  H   UNL     1      48.206   5.771  14.651  0.00  0.00    +0.000 HD
BRANCH  18  21
ATOM     21  C   UNL     1      49.206   6.360  16.974  0.00  0.00    +0.000 A 
ATOM     22  C   UNL     1      48.856   7.702  17.004  0.00  0.00    +0.000 A 
ATOM     23  S   UNL     1      50.154   8.742  17.369  0.00  0.00    +0.000 S 
ATOM     24  C   UNL     1      51.243   7.437  17.457  0.00  0.00    +0.000 A 
ATOM     25  N   UNL     1      52.564   7.649  17.704  0.00  0.00    +0.000 NA
ATOM     26  C   UNL     1      53.281   6.574  17.717  0.00  0.00    +0.000 A 
ATOM     27  N   UNL     1      52.793   5.307  17.520  0.00  0.00    +0.000 N 
ATOM     28  C   UNL     1      51.462   5.044  17.294  0.00  0.00    +0.000 A 
ATOM     29  O   UNL     1      51.053   3.895  17.164  0.00  0.00    +0.000 OA
ATOM     30  C   UNL     1      50.618   6.222  17.244  0.00  0.00    +0.000 A 
ATOM     31  H   UNL     1      53.407   4.508  17.561  0.00  0.00    +0.000 HD
ENDBRANCH  18  21
ENDBRANCH   1  17
TORSDOF 6
ENDMDL
MODEL 6
REMARK VINA RESULT:    -7.215      3.379      8.361
REMARK INTER + INTRA:         -10.916
REMARK INTER:                  -9.405
REMARK INTRA:                  -1.511
REMARK UNBOUND:                -1.169
REMARK  Name = 
REMARK  7 active torsions:
REMARK  status: ('A' for Active; 'I' for Inactive)
REMARK    1  A    between atoms: C_1  and  C_2
REMARK    2  A    between atoms: C_6  and  C_7
REMARK    3  A    between atoms: C_7  and  O_8
REMARK    4  A    between atoms: O_8  and  C_9
REMARK    5  A    between atoms: C_12  and  C_13
REMARK    6  A    between atoms: C_13  and  N_14
REMARK    7  A    between atoms: C_15  and  C_17
REMARK                            x       y       z     vdW  Elec       q    Type
REMARK                         _______ _______ _______ _____ _____    ______ ____
ROOT
ATOM      1  C   UNL     1      47.686   7.927  11.851  0.00  0.00    +0.000 C 
ENDROOT
BRANCH   1   5
ATOM      2  C   UNL     1      49.563   8.127  15.725  0.00  0.00    +0.000 A 
ATOM      3  C   UNL     1      48.354   8.790  15.505  0.00  0.00    +0.000 A 
ATOM      4  C   UNL     1      47.743   8.741  14.249  0.00  0.00    +0.000 A 
ATOM      5  C   UNL     1      48.340   8.029  13.200  0.00  0.00    +0.000 A 
ATOM      6  C   UNL     1      49.586   7.427  13.412  0.00  0.00    +0.000 A 
ATOM      7  C   UNL     1      50.195   7.479  14.665  0.00  0.00    +0.000 A 
BRANCH   2   8
ATOM      8  O   UNL     1      50.045   8.171  17.006  0.00  0.00    +0.000 OA
BRANCH   8   9
ATOM      9  C   UNL     1      49.230   7.501  17.974  0.00  0.00    +0.000 C 
BRANCH   9  15
ATOM     10  C   UNL     1      47.262   2.913  17.401  0.00  0.00    +0.000 C 
ATOM     11  C   UNL     1      48.471   3.786  17.555  0.00  0.00    +0.000 A 
ATOM     12  C   UNL     1      49.761   3.248  17.543  0.00  0.00    +0.000 A 
ATOM     13  C   UNL     1      50.874   4.078  17.682  0.00  0.00    +0.000 A 
ATOM     14  C   UNL     1      50.707   5.454  17.837  0.00  0.00    +0.000 A 
ATOM     15  C   UNL     1      49.423   6.011  17.860  0.00  0.00    +0.000 A 
ATOM     16  C   UNL     1      48.312   5.169  17.709  0.00  0.00    +0.000 A 
ENDBRANCH   9  15
ENDBRANCH   8   9
ENDBRANCH   2   8
ENDBRANCH   1   5
BRANCH   1  17
ATOM     17  N   UNL     1      46.990   6.676  11.698  0.00  0.00    +0.000 N 
ATOM     18  C   UNL     1      45.623   6.630  11.791  0.00  0.00    +0.000 C 
ATOM     19  O   UNL     1      44.952   7.647  11.959  0.00  0.00    +0.000 OA
ATOM     20  H   UNL     1      47.532   5.821  11.772  0.00  0.00    +0.000 HD
BRANCH  18  21
ATOM     21  C   UNL     1      44.989   5.318  11.628  0.00  0.00    +0.000 A 
ATOM     22  C   UNL     1      44.305   4.758  12.697  0.00  0.00    +0.000 A 
ATOM     23  S   UNL     1      43.612   3.241  12.350  0.00  0.00    +0.000 S 
ATOM     24  C   UNL     1      44.239   3.258  10.767  0.00  0.00    +0.000 A 
ATOM     25  N   UNL     1      44.038   2.207   9.928  0.00  0.00    +0.000 NA
ATOM     26  C   UNL     1      44.591   2.340   8.768  0.00  0.00    +0.000 A 
ATOM     27  N   UNL     1      45.313   3.436   8.368  0.00  0.00    +0.000 N 
ATOM     28  C   UNL     1      45.518   4.532   9.172  0.00  0.00    +0.000 A 
ATOM     29  O   UNL     1      46.133   5.513   8.768  0.00  0.00    +0.000 OA
ATOM     30  C   UNL     1      44.939   4.420  10.498  0.00  0.00    +0.000 A 
ATOM     31  H   UNL     1      45.704   3.482   7.439  0.00  0.00    +0.000 HD
ENDBRANCH  18  21
ENDBRANCH   1  17
TORSDOF 6
ENDMDL
MODEL 7
REMARK VINA RESULT:    -6.603      4.042      8.367
REMARK INTER + INTRA:         -10.088
REMARK INTER:                  -8.726
REMARK INTRA:                  -1.362
REMARK UNBOUND:                -1.169
REMARK  Name = 
REMARK  7 active torsions:
REMARK  status: ('A' for Active; 'I' for Inactive)
REMARK    1  A    between atoms: C_1  and  C_2
REMARK    2  A    between atoms: C_6  and  C_7
REMARK    3  A    between atoms: C_7  and  O_8
REMARK    4  A    between atoms: O_8  and  C_9
REMARK    5  A    between atoms: C_12  and  C_13
REMARK    6  A    between atoms: C_13  and  N_14
REMARK    7  A    between atoms: C_15  and  C_17
REMARK                            x       y       z     vdW  Elec       q    Type
REMARK                         _______ _______ _______ _____ _____    ______ ____
ROOT
ATOM      1  C   UNL     1      48.552   8.506  14.460  0.00  0.00    +0.000 C 
ENDROOT
BRANCH   1   5
ATOM      2  C   UNL     1      50.973   7.043  17.711  0.00  0.00    +0.000 A 
ATOM      3  C   UNL     1      49.809   7.763  17.983  0.00  0.00    +0.000 A 
ATOM      4  C   UNL     1      49.022   8.252  16.936  0.00  0.00    +0.000 A 
ATOM      5  C   UNL     1      49.398   8.025  15.605  0.00  0.00    +0.000 A 
ATOM      6  C   UNL     1      50.603   7.364  15.344  0.00  0.00    +0.000 A 
ATOM      7  C   UNL     1      51.388   6.879  16.389  0.00  0.00    +0.000 A 
BRANCH   2   8
ATOM      8  O   UNL     1      51.636   6.542  18.800  0.00  0.00    +0.000 OA
BRANCH   8   9
ATOM      9  C   UNL     1      50.869   5.635  19.599  0.00  0.00    +0.000 C 
BRANCH   9  15
ATOM     10  C   UNL     1      47.257   2.863  17.471  0.00  0.00    +0.000 C 
ATOM     11  C   UNL     1      48.715   3.111  17.716  0.00  0.00    +0.000 A 
ATOM     12  C   UNL     1      49.696   2.288  17.153  0.00  0.00    +0.000 A 
ATOM     13  C   UNL     1      51.048   2.538  17.389  0.00  0.00    +0.000 A 
ATOM     14  C   UNL     1      51.433   3.612  18.192  0.00  0.00    +0.000 A 
ATOM     15  C   UNL     1      50.466   4.442  18.772  0.00  0.00    +0.000 A 
ATOM     16  C   UNL     1      49.110   4.187  18.520  0.00  0.00    +0.000 A 
ENDBRANCH   9  15
ENDBRANCH   8   9
ENDBRANCH   2   8
ENDBRANCH   1   5
BRANCH   1  17
ATOM     17  N   UNL     1      47.513   7.561  14.142  0.00  0.00    +0.000 N 
ATOM     18  C   UNL     1      47.737   6.570  13.222  0.00  0.00    +0.000 C 
ATOM     19  O   UNL     1      48.832   6.428  12.679  0.00  0.00    +0.000 OA
ATOM     20  H   UNL     1      46.563   7.793  14.416  0.00  0.00    +0.000 HD
BRANCH  18  21
ATOM     21  C   UNL     1      46.629   5.651  12.951  0.00  0.00    +0.000 A 
ATOM     22  C   UNL     1      46.772   4.305  13.261  0.00  0.00    +0.000 A 
ATOM     23  S   UNL     1      45.396   3.368  12.902  0.00  0.00    +0.000 S 
ATOM     24  C   UNL     1      44.573   4.720  12.277  0.00  0.00    +0.000 A 
ATOM     25  N   UNL     1      43.324   4.593  11.752  0.00  0.00    +0.000 NA
ATOM     26  C   UNL     1      42.828   5.692  11.289  0.00  0.00    +0.000 A 
ATOM     27  N   UNL     1      43.462   6.908  11.317  0.00  0.00    +0.000 N 
ATOM     28  C   UNL     1      44.713   7.088  11.860  0.00  0.00    +0.000 A 
ATOM     29  O   UNL     1      45.234   8.198  11.907  0.00  0.00    +0.000 OA
ATOM     30  C   UNL     1      45.325   5.877  12.371  0.00  0.00    +0.000 A 
ATOM     31  H   UNL     1      43.009   7.732  10.952  0.00  0.00    +0.000 HD
ENDBRANCH  18  21
ENDBRANCH   1  17
TORSDOF 6
ENDMDL
MODEL 8
REMARK VINA RESULT:    -6.589      3.670      8.071
REMARK INTER + INTRA:         -10.069
REMARK INTER:                  -9.201
REMARK INTRA:                  -0.869
REMARK UNBOUND:                -1.169
REMARK  Name = 
REMARK  7 active torsions:
REMARK  status: ('A' for Active; 'I' for Inactive)
REMARK    1  A    between atoms: C_1  and  C_2
REMARK    2  A    between atoms: C_6  and  C_7
REMARK    3  A    between atoms: C_7  and  O_8
REMARK    4  A    between atoms: O_8  and  C_9
REMARK    5  A    between atoms: C_12  and  C_13
REMARK    6  A    between atoms: C_13  and  N_14
REMARK    7  A    between atoms: C_15  and  C_17
REMARK                            x       y       z     vdW  Elec       q    Type
REMARK                         _______ _______ _______ _____ _____    ______ ____
ROOT
ATOM      1  C   UNL     1      48.223   8.246  11.844  0.00  0.00    +0.000 C 
ENDROOT
BRANCH   1   5
ATOM      2  C   UNL     1      50.290   7.412  15.533  0.00  0.00    +0.000 A 
ATOM      3  C   UNL     1      51.004   7.876  14.427  0.00  0.00    +0.000 A 
ATOM      4  C   UNL     1      50.345   8.138  13.222  0.00  0.00    +0.000 A 
ATOM      5  C   UNL     1      48.963   7.935  13.115  0.00  0.00    +0.000 A 
ATOM      6  C   UNL     1      48.269   7.404  14.208  0.00  0.00    +0.000 A 
ATOM      7  C   UNL     1      48.928   7.141  15.407  0.00  0.00    +0.000 A 
BRANCH   2   8
ATOM      8  O   UNL     1      51.009   7.256  16.688  0.00  0.00    +0.000 OA
BRANCH   8   9
ATOM      9  C   UNL     1      50.249   6.784  17.805  0.00  0.00    +0.000 C 
BRANCH   9  15
ATOM     10  C   UNL     1      47.302   2.717  17.612  0.00  0.00    +0.000 C 
ATOM     11  C   UNL     1      48.679   3.312  17.608  0.00  0.00    +0.000 A 
ATOM     12  C   UNL     1      49.816   2.509  17.483  0.00  0.00    +0.000 A 
ATOM     13  C   UNL     1      51.089   3.083  17.476  0.00  0.00    +0.000 A 
ATOM     14  C   UNL     1      51.235   4.465  17.595  0.00  0.00    +0.000 A 
ATOM     15  C   UNL     1      50.108   5.285  17.728  0.00  0.00    +0.000 A 
ATOM     16  C   UNL     1      48.834   4.699  17.724  0.00  0.00    +0.000 A 
ENDBRANCH   9  15
ENDBRANCH   8   9
ENDBRANCH   2   8
ENDBRANCH   1   5
BRANCH   1  17
ATOM     17  N   UNL     1      47.577   7.075  11.313  0.00  0.00    +0.000 N 
ATOM     18  C   UNL     1      46.210   6.974  11.322  0.00  0.00    +0.000 C 
ATOM     19  O   UNL     1      45.498   7.888  11.735  0.00  0.00    +0.000 OA
ATOM     20  H   UNL     1      48.145   6.245  11.171  0.00  0.00    +0.000 HD
BRANCH  18  21
ATOM     21  C   UNL     1      45.629   5.749  10.767  0.00  0.00    +0.000 A 
ATOM     22  C   UNL     1      45.784   5.477   9.415  0.00  0.00    +0.000 A 
ATOM     23  S   UNL     1      45.067   4.012   8.922  0.00  0.00    +0.000 S 
ATOM     24  C   UNL     1      44.484   3.709  10.493  0.00  0.00    +0.000 A 
ATOM     25  N   UNL     1      43.734   2.605  10.755  0.00  0.00    +0.000 NA
ATOM     26  C   UNL     1      43.335   2.512  11.980  0.00  0.00    +0.000 A 
ATOM     27  N   UNL     1      43.632   3.416  12.969  0.00  0.00    +0.000 N 
ATOM     28  C   UNL     1      44.409   4.531  12.756  0.00  0.00    +0.000 A 
ATOM     29  O   UNL     1      44.690   5.297  13.671  0.00  0.00    +0.000 OA
ATOM     30  C   UNL     1      44.860   4.695  11.387  0.00  0.00    +0.000 A 
ATOM     31  H   UNL     1      43.301   3.274  13.911  0.00  0.00    +0.000 HD
ENDBRANCH  18  21
ENDBRANCH   1  17
TORSDOF 6
ENDMDL
MODEL 9
REMARK VINA RESULT:    -6.387      3.517      9.208
REMARK INTER + INTRA:          -9.797
REMARK INTER:                  -8.638
REMARK INTRA:                  -1.159
REMARK UNBOUND:                -1.169
REMARK  Name = 
REMARK  7 active torsions:
REMARK  status: ('A' for Active; 'I' for Inactive)
REMARK    1  A    between atoms: C_1  and  C_2
REMARK    2  A    between atoms: C_6  and  C_7
REMARK    3  A    between atoms: C_7  and  O_8
REMARK    4  A    between atoms: O_8  and  C_9
REMARK    5  A    between atoms: C_12  and  C_13
REMARK    6  A    between atoms: C_13  and  N_14
REMARK    7  A    between atoms: C_15  and  C_17
REMARK                            x       y       z     vdW  Elec       q    Type
REMARK                         _______ _______ _______ _____ _____    ______ ____
ROOT
ATOM      1  C   UNL     1      47.475   7.987  11.883  0.00  0.00    +0.000 C 
ENDROOT
BRANCH   1   5
ATOM      2  C   UNL     1      49.539   8.251  15.657  0.00  0.00    +0.000 A 
ATOM      3  C   UNL     1      50.077   7.480  14.625  0.00  0.00    +0.000 A 
ATOM      4  C   UNL     1      49.410   7.379  13.401  0.00  0.00    +0.000 A 
ATOM      5  C   UNL     1      48.194   8.047  13.201  0.00  0.00    +0.000 A 
ATOM      6  C   UNL     1      47.630   8.759  14.266  0.00  0.00    +0.000 A 
ATOM      7  C   UNL     1      48.296   8.858  15.486  0.00  0.00    +0.000 A 
BRANCH   2   8
ATOM      8  O   UNL     1      50.302   8.350  16.790  0.00  0.00    +0.000 OA
BRANCH   8   9
ATOM      9  C   UNL     1      50.562   7.104  17.445  0.00  0.00    +0.000 C 
BRANCH   9  15
ATOM     10  C   UNL     1      47.282   8.844  20.831  0.00  0.00    +0.000 C 
ATOM     11  C   UNL     1      47.883   7.682  20.099  0.00  0.00    +0.000 A 
ATOM     12  C   UNL     1      47.437   6.375  20.320  0.00  0.00    +0.000 A 
ATOM     13  C   UNL     1      48.007   5.307  19.625  0.00  0.00    +0.000 A 
ATOM     14  C   UNL     1      49.029   5.537  18.704  0.00  0.00    +0.000 A 
ATOM     15  C   UNL     1      49.495   6.837  18.475  0.00  0.00    +0.000 A 
ATOM     16  C   UNL     1      48.909   7.903  19.172  0.00  0.00    +0.000 A 
ENDBRANCH   9  15
ENDBRANCH   8   9
ENDBRANCH   2   8
ENDBRANCH   1   5
BRANCH   1  17
ATOM     17  N   UNL     1      46.823   6.718  11.698  0.00  0.00    +0.000 N 
ATOM     18  C   UNL     1      45.457   6.650  11.604  0.00  0.00    +0.000 C 
ATOM     19  O   UNL     1      44.756   7.660  11.626  0.00  0.00    +0.000 OA
ATOM     20  H   UNL     1      47.360   5.878  11.890  0.00  0.00    +0.000 HD
BRANCH  18  21
ATOM     21  C   UNL     1      44.868   5.320  11.420  0.00  0.00    +0.000 A 
ATOM     22  C   UNL     1      44.134   4.755  12.454  0.00  0.00    +0.000 A 
ATOM     23  S   UNL     1      43.503   3.216  12.086  0.00  0.00    +0.000 S 
ATOM     24  C   UNL     1      44.225   3.230  10.545  0.00  0.00    +0.000 A 
ATOM     25  N   UNL     1      44.104   2.163   9.710  0.00  0.00    +0.000 NA
ATOM     26  C   UNL     1      44.723   2.296   8.584  0.00  0.00    +0.000 A 
ATOM     27  N   UNL     1      45.440   3.406   8.214  0.00  0.00    +0.000 N 
ATOM     28  C   UNL     1      45.567   4.517   9.014  0.00  0.00    +0.000 A 
ATOM     29  O   UNL     1      46.181   5.509   8.634  0.00  0.00    +0.000 OA
ATOM     30  C   UNL     1      44.910   4.407  10.302  0.00  0.00    +0.000 A 
ATOM     31  H   UNL     1      45.887   3.450   7.310  0.00  0.00    +0.000 HD
ENDBRANCH  18  21
ENDBRANCH   1  17
TORSDOF 6
ENDMDL
