MODEL 1
REMARK VINA RESULT:    -7.063      0.000      0.000
REMARK INTER + INTRA:         -11.427
REMARK INTER:                  -9.953
REMARK INTRA:                  -1.474
REMARK UNBOUND:                -1.474
REMARK  Name = 
REMARK  7 active torsions:
REMARK  status: ('A' for Active; 'I' for Inactive)
REMARK    1  A    between atoms: C_2  and  C_19
REMARK    2  A    between atoms: N_3  and  C_4
REMARK    3  A    between atoms: C_4  and  C_5
REMARK    4  A    between atoms: C_8  and  O_9
REMARK    5  A    between atoms: O_9  and  C_10
REMARK    6  A    between atoms: C_10  and  C_11
REMARK    7  A    between atoms: C_11  and  C_12
REMARK                            x       y       z     vdW  Elec       q    Type
REMARK                         _______ _______ _______ _____ _____    ______ ____
ROOT
ATOM      1  C   UNL     1      47.358   8.266  13.673  0.00  0.00    +0.000 C 
ENDROOT
BRANCH   1   2
ATOM      2  C   UNL     1      46.515   7.497  12.691  0.00  0.00    +0.000 A 
ATOM      3  C   UNL     1      47.113   6.901  11.575  0.00  0.00    +0.000 A 
ATOM      4  C   UNL     1      46.349   6.162  10.667  0.00  0.00    +0.000 A 
ATOM      5  C   UNL     1      44.978   6.003  10.868  0.00  0.00    +0.000 A 
ATOM      6  C   UNL     1      44.365   6.649  11.942  0.00  0.00    +0.000 A 
ATOM      7  C   UNL     1      45.127   7.392  12.850  0.00  0.00    +0.000 A 
BRANCH   5   8
ATOM      8  O   UNL     1      44.151   5.251  10.074  0.00  0.00    +0.000 OA
BRANCH   8   9
ATOM      9  C   UNL     1      43.772   3.985  10.627  0.00  0.00    +0.000 C 
BRANCH   9  10
ATOM     10  C   UNL     1      44.857   2.959  10.303  0.00  0.00    +0.000 C 
BRANCH  10  11
ATOM     11  C   UNL     1      44.701   2.398   8.881  0.00  0.00    +0.000 C 
ATOM     12  C   UNL     1      45.922   1.625   8.409  0.00  0.00    +0.000 C 
ATOM     13  O   UNL     1      46.777   2.583   7.779  0.00  0.00    +0.000 OA
ATOM     14  C   UNL     1      45.987   3.743   7.538  0.00  0.00    +0.000 C 
ATOM     15  N   UNL     1      44.594   3.463   7.873  0.00  0.00    +0.000 NA
ATOM     16  H   UNL     1      44.175   3.063   7.034  0.00  0.00    +0.000 HD
ENDBRANCH  10  11
ENDBRANCH   9  10
ENDBRANCH   8   9
ENDBRANCH   5   8
ENDBRANCH   1   2
BRANCH   1  19
ATOM     17  O   UNL     1      49.828   6.979  14.132  0.00  0.00    +0.000 OA
ATOM     18  C   UNL     1      48.951   6.914  14.985  0.00  0.00    +0.000 C 
ATOM     19  N   UNL     1      47.705   7.455  14.811  0.00  0.00    +0.000 N 
ATOM     20  H   UNL     1      47.090   7.543  15.612  0.00  0.00    +0.000 HD
BRANCH  18  21
ATOM     21  C   UNL     1      49.161   6.190  16.247  0.00  0.00    +0.000 A 
ATOM     22  C   UNL     1      50.111   6.641  17.154  0.00  0.00    +0.000 A 
ATOM     23  S   UNL     1      50.244   5.662  18.544  0.00  0.00    +0.000 S 
ATOM     24  C   UNL     1      49.000   4.632  18.007  0.00  0.00    +0.000 A 
ATOM     25  N   UNL     1      48.591   3.577  18.761  0.00  0.00    +0.000 NA
ATOM     26  C   UNL     1      47.607   2.910  18.256  0.00  0.00    +0.000 A 
ATOM     27  N   UNL     1      47.002   3.196  17.060  0.00  0.00    +0.000 N 
ATOM     28  C   UNL     1      47.437   4.200  16.228  0.00  0.00    +0.000 A 
ATOM     29  O   UNL     1      46.968   4.333  15.102  0.00  0.00    +0.000 OA
ATOM     30  C   UNL     1      48.508   5.013  16.772  0.00  0.00    +0.000 A 
ATOM     31  H   UNL     1      46.255   2.617  16.704  0.00  0.00    +0.000 HD
ENDBRANCH  18  21
ENDBRANCH   1  19
TORSDOF 7
ENDMDL
MODEL 2
REMARK VINA RESULT:    -6.726      2.479      7.792
REMARK INTER + INTRA:         -10.952
REMARK INTER:                  -9.626
REMARK INTRA:                  -1.325
REMARK UNBOUND:                -1.474
REMARK  Name = 
REMARK  7 active torsions:
REMARK  status: ('A' for Active; 'I' for Inactive)
REMARK    1  A    between atoms: C_2  and  C_19
REMARK    2  A    between atoms: N_3  and  C_4
REMARK    3  A    between atoms: C_4  and  C_5
REMARK    4  A    between atoms: C_8  and  O_9
REMARK    5  A    between atoms: O_9  and  C_10
REMARK    6  A    between atoms: C_10  and  C_11
REMARK    7  A    between atoms: C_11  and  C_12
REMARK                            x       y       z     vdW  Elec       q    Type
REMARK                         _______ _______ _______ _____ _____    ______ ____
ROOT
ATOM      1  C   UNL     1      47.416   7.842  11.962  0.00  0.00    +0.000 C 
ENDROOT
BRANCH   1   2
ATOM      2  C   UNL     1      48.072   7.930  13.314  0.00  0.00    +0.000 A 
ATOM      3  C   UNL     1      47.656   8.903  14.229  0.00  0.00    +0.000 A 
ATOM      4  C   UNL     1      48.237   8.983  15.497  0.00  0.00    +0.000 A 
ATOM      5  C   UNL     1      49.237   8.084  15.870  0.00  0.00    +0.000 A 
ATOM      6  C   UNL     1      49.702   7.155  14.939  0.00  0.00    +0.000 A 
ATOM      7  C   UNL     1      49.124   7.075  13.668  0.00  0.00    +0.000 A 
BRANCH   5   8
ATOM      8  O   UNL     1      49.828   8.037  17.106  0.00  0.00    +0.000 OA
BRANCH   8   9
ATOM      9  C   UNL     1      49.773   6.761  17.752  0.00  0.00    +0.000 C 
BRANCH   9  10
ATOM     10  C   UNL     1      48.333   6.488  18.187  0.00  0.00    +0.000 C 
BRANCH  10  11
ATOM     11  C   UNL     1      48.082   4.989  18.408  0.00  0.00    +0.000 C 
ATOM     12  C   UNL     1      49.110   4.105  17.718  0.00  0.00    +0.000 C 
ATOM     13  O   UNL     1      48.593   3.848  16.409  0.00  0.00    +0.000 OA
ATOM     14  C   UNL     1      47.215   4.206  16.433  0.00  0.00    +0.000 C 
ATOM     15  N   UNL     1      46.821   4.540  17.799  0.00  0.00    +0.000 NA
ATOM     16  H   UNL     1      46.552   3.662  18.240  0.00  0.00    +0.000 HD
ENDBRANCH  10  11
ENDBRANCH   9  10
ENDBRANCH   8   9
ENDBRANCH   5   8
ENDBRANCH   1   2
BRANCH   1  19
ATOM     17  O   UNL     1      44.614   7.491  11.947  0.00  0.00    +0.000 OA
ATOM     18  C   UNL     1      45.340   6.524  11.750  0.00  0.00    +0.000 C 
ATOM     19  N   UNL     1      46.707   6.598  11.806  0.00  0.00    +0.000 N 
ATOM     20  H   UNL     1      47.257   5.826  11.447  0.00  0.00    +0.000 HD
BRANCH  18  21
ATOM     21  C   UNL     1      44.784   5.188  11.495  0.00  0.00    +0.000 A 
ATOM     22  C   UNL     1      44.033   4.552  12.475  0.00  0.00    +0.000 A 
ATOM     23  S   UNL     1      43.499   2.997  12.022  0.00  0.00    +0.000 S 
ATOM     24  C   UNL     1      44.206   3.141  10.482  0.00  0.00    +0.000 A 
ATOM     25  N   UNL     1      44.094   2.143   9.564  0.00  0.00    +0.000 NA
ATOM     26  C   UNL     1      44.636   2.406   8.421  0.00  0.00    +0.000 A 
ATOM     27  N   UNL     1      45.289   3.571   8.116  0.00  0.00    +0.000 N 
ATOM     28  C   UNL     1      45.499   4.569   9.037  0.00  0.00    +0.000 A 
ATOM     29  O   UNL     1      46.213   5.531   8.773  0.00  0.00    +0.000 OA
ATOM     30  C   UNL     1      44.865   4.346  10.323  0.00  0.00    +0.000 A 
ATOM     31  H   UNL     1      45.719   3.703   7.213  0.00  0.00    +0.000 HD
ENDBRANCH  18  21
ENDBRANCH   1  19
TORSDOF 7
ENDMDL
MODEL 3
REMARK VINA RESULT:    -6.547      2.124      2.517
REMARK INTER + INTRA:         -10.700
REMARK INTER:                  -9.448
REMARK INTRA:                  -1.252
REMARK UNBOUND:                -1.474
REMARK  Name = 
REMARK  7 active torsions:
REMARK  status: ('A' for Active; 'I' for Inactive)
REMARK    1  A    between atoms: C_2  and  C_19
REMARK    2  A    between atoms: N_3  and  C_4
REMARK    3  A    between atoms: C_4  and  C_5
REMARK    4  A    between atoms: C_8  and  O_9
REMARK    5  A    between atoms: O_9  and  C_10
REMARK    6  A    between atoms: C_10  and  C_11
REMARK    7  A    between atoms: C_11  and  C_12
REMARK                            x       y       z     vdW  Elec       q    Type
REMARK                         _______ _______ _______ _____ _____    ______ ____
ROOT
ATOM      1  C   UNL     1      48.973   8.024  13.192  0.00  0.00    +0.000 C 
ENDROOT
BRANCH   1   2
ATOM      2  C   UNL     1      47.579   7.815  12.662  0.00  0.00    +0.000 A 
ATOM      3  C   UNL     1      46.560   8.707  13.012  0.00  0.00    +0.000 A 
ATOM      4  C   UNL     1      45.266   8.542  12.509  0.00  0.00    +0.000 A 
ATOM      5  C   UNL     1      44.978   7.488  11.643  0.00  0.00    +0.000 A 
ATOM      6  C   UNL     1      45.973   6.558  11.344  0.00  0.00    +0.000 A 
ATOM      7  C   UNL     1      47.268   6.719  11.848  0.00  0.00    +0.000 A 
BRANCH   5   8
ATOM      8  O   UNL     1      43.762   7.272  11.047  0.00  0.00    +0.000 OA
BRANCH   8   9
ATOM      9  C   UNL     1      43.033   6.149  11.555  0.00  0.00    +0.000 C 
BRANCH   9  10
ATOM     10  C   UNL     1      43.336   4.928  10.687  0.00  0.00    +0.000 C 
BRANCH  10  11
ATOM     11  C   UNL     1      43.260   3.624  11.495  0.00  0.00    +0.000 C 
ATOM     12  C   UNL     1      43.317   3.852  12.998  0.00  0.00    +0.000 C 
ATOM     13  O   UNL     1      44.703   3.814  13.349  0.00  0.00    +0.000 OA
ATOM     14  C   UNL     1      45.392   3.233  12.247  0.00  0.00    +0.000 C 
ATOM     15  N   UNL     1      44.424   2.757  11.263  0.00  0.00    +0.000 NA
ATOM     16  H   UNL     1      44.174   1.810  11.545  0.00  0.00    +0.000 HD
ENDBRANCH  10  11
ENDBRANCH   9  10
ENDBRANCH   8   9
ENDBRANCH   5   8
ENDBRANCH   1   2
BRANCH   1  19
ATOM     17  O   UNL     1      48.565   8.660  15.912  0.00  0.00    +0.000 OA
ATOM     18  C   UNL     1      48.950   7.537  15.612  0.00  0.00    +0.000 C 
ATOM     19  N   UNL     1      49.234   7.171  14.322  0.00  0.00    +0.000 N 
ATOM     20  H   UNL     1      49.359   6.188  14.106  0.00  0.00    +0.000 HD
BRANCH  18  21
ATOM     21  C   UNL     1      49.195   6.511  16.634  0.00  0.00    +0.000 A 
ATOM     22  C   UNL     1      50.127   6.741  17.637  0.00  0.00    +0.000 A 
ATOM     23  S   UNL     1      50.307   5.431  18.714  0.00  0.00    +0.000 S 
ATOM     24  C   UNL     1      49.106   4.532  17.910  0.00  0.00    +0.000 A 
ATOM     25  N   UNL     1      48.744   3.296  18.349  0.00  0.00    +0.000 NA
ATOM     26  C   UNL     1      47.788   2.749  17.676  0.00  0.00    +0.000 A 
ATOM     27  N   UNL     1      47.168   3.320  16.596  0.00  0.00    +0.000 N 
ATOM     28  C   UNL     1      47.557   4.527  16.067  0.00  0.00    +0.000 A 
ATOM     29  O   UNL     1      47.079   4.939  15.014  0.00  0.00    +0.000 OA
ATOM     30  C   UNL     1      48.594   5.209  16.818  0.00  0.00    +0.000 A 
ATOM     31  H   UNL     1      46.446   2.827  16.091  0.00  0.00    +0.000 HD
ENDBRANCH  18  21
ENDBRANCH   1  19
TORSDOF 7
ENDMDL
MODEL 4
REMARK VINA RESULT:    -6.534      2.675      3.469
REMARK INTER + INTRA:         -10.681
REMARK INTER:                  -9.705
REMARK INTRA:                  -0.976
REMARK UNBOUND:                -1.474
REMARK  Name = 
REMARK  7 active torsions:
REMARK  status: ('A' for Active; 'I' for Inactive)
REMARK    1  A    between atoms: C_2  and  C_19
REMARK    2  A    between atoms: N_3  and  C_4
REMARK    3  A    between atoms: C_4  and  C_5
REMARK    4  A    between atoms: C_8  and  O_9
REMARK    5  A    between atoms: O_9  and  C_10
REMARK    6  A    between atoms: C_10  and  C_11
REMARK    7  A    between atoms: C_11  and  C_12
REMARK                            x       y       z     vdW  Elec       q    Type
REMARK                         _______ _______ _______ _____ _____    ______ ____
ROOT
ATOM      1  C   UNL     1      47.021   4.062  16.123  0.00  0.00    +0.000 C 
ENDROOT
BRANCH   1   2
ATOM      2  C   UNL     1      46.862   4.690  14.764  0.00  0.00    +0.000 A 
ATOM      3  C   UNL     1      47.725   5.716  14.364  0.00  0.00    +0.000 A 
ATOM      4  C   UNL     1      47.607   6.293  13.097  0.00  0.00    +0.000 A 
ATOM      5  C   UNL     1      46.629   5.844  12.209  0.00  0.00    +0.000 A 
ATOM      6  C   UNL     1      45.724   4.869  12.626  0.00  0.00    +0.000 A 
ATOM      7  C   UNL     1      45.838   4.292  13.895  0.00  0.00    +0.000 A 
BRANCH   5   8
ATOM      8  O   UNL     1      46.467   6.298  10.925  0.00  0.00    +0.000 OA
BRANCH   8   9
ATOM      9  C   UNL     1      45.397   5.683  10.199  0.00  0.00    +0.000 C 
BRANCH   9  10
ATOM     10  C   UNL     1      45.960   5.063   8.920  0.00  0.00    +0.000 C 
BRANCH  10  11
ATOM     11  C   UNL     1      44.987   4.045   8.307  0.00  0.00    +0.000 C 
ATOM     12  C   UNL     1      44.589   2.944   9.277  0.00  0.00    +0.000 C 
ATOM     13  O   UNL     1      45.553   1.901   9.108  0.00  0.00    +0.000 OA
ATOM     14  C   UNL     1      46.235   2.166   7.887  0.00  0.00    +0.000 C 
ATOM     15  N   UNL     1      45.596   3.287   7.204  0.00  0.00    +0.000 NA
ATOM     16  H   UNL     1      44.845   2.888   6.642  0.00  0.00    +0.000 HD
ENDBRANCH  10  11
ENDBRANCH   9  10
ENDBRANCH   8   9
ENDBRANCH   5   8
ENDBRANCH   1   2
BRANCH   1  19
ATOM     17  O   UNL     1      48.122   4.940  18.570  0.00  0.00    +0.000 OA
ATOM     18  C   UNL     1      48.849   4.398  17.747  0.00  0.00    +0.000 C 
ATOM     19  N   UNL     1      48.406   4.004  16.512  0.00  0.00    +0.000 N 
ATOM     20  H   UNL     1      48.990   3.392  15.952  0.00  0.00    +0.000 HD
BRANCH  18  21
ATOM     21  C   UNL     1      50.279   4.184  18.009  0.00  0.00    +0.000 A 
ATOM     22  C   UNL     1      51.025   5.178  18.630  0.00  0.00    +0.000 A 
ATOM     23  S   UNL     1      52.671   4.774  18.822  0.00  0.00    +0.000 S 
ATOM     24  C   UNL     1      52.433   3.237  18.133  0.00  0.00    +0.000 A 
ATOM     25  N   UNL     1      53.461   2.353  18.019  0.00  0.00    +0.000 NA
ATOM     26  C   UNL     1      53.129   1.208  17.524  0.00  0.00    +0.000 A 
ATOM     27  N   UNL     1      51.864   0.869  17.120  0.00  0.00    +0.000 N 
ATOM     28  C   UNL     1      50.815   1.757  17.139  0.00  0.00    +0.000 A 
ATOM     29  O   UNL     1      49.734   1.467  16.634  0.00  0.00    +0.000 OA
ATOM     30  C   UNL     1      51.123   3.043  17.735  0.00  0.00    +0.000 A 
ATOM     31  H   UNL     1      51.674  -0.033  16.711  0.00  0.00    +0.000 HD
ENDBRANCH  18  21
ENDBRANCH   1  19
TORSDOF 7
ENDMDL
MODEL 5
REMARK VINA RESULT:    -6.485      3.156      4.320
REMARK INTER + INTRA:         -10.613
REMARK INTER:                  -9.501
REMARK INTRA:                  -1.112
REMARK UNBOUND:                -1.474
REMARK  Name = 
REMARK  7 active torsions:
REMARK  status: ('A' for Active; 'I' for Inactive)
REMARK    1  A    between atoms: C_2  and  C_19
REMARK    2  A    between atoms: N_3  and  C_4
REMARK    3  A    between atoms: C_4  and  C_5
REMARK    4  A    between atoms: C_8  and  O_9
REMARK    5  A    between atoms: O_9  and  C_10
REMARK    6  A    between atoms: C_10  and  C_11
REMARK    7  A    between atoms: C_11  and  C_12
REMARK                            x       y       z     vdW  Elec       q    Type
REMARK                         _______ _______ _______ _____ _____    ______ ____
ROOT
ATOM      1  C   UNL     1      49.502   6.372  17.415  0.00  0.00    +0.000 C 
ENDROOT
BRANCH   1   2
ATOM      2  C   UNL     1      48.649   5.951  16.248  0.00  0.00    +0.000 A 
ATOM      3  C   UNL     1      48.646   6.713  15.075  0.00  0.00    +0.000 A 
ATOM      4  C   UNL     1      47.879   6.324  13.974  0.00  0.00    +0.000 A 
ATOM      5  C   UNL     1      47.111   5.160  14.028  0.00  0.00    +0.000 A 
ATOM      6  C   UNL     1      47.058   4.432  15.217  0.00  0.00    +0.000 A 
ATOM      7  C   UNL     1      47.822   4.822  16.321  0.00  0.00    +0.000 A 
BRANCH   5   8
ATOM      8  O   UNL     1      46.374   4.657  12.988  0.00  0.00    +0.000 OA
BRANCH   8   9
ATOM      9  C   UNL     1      44.979   4.490  13.263  0.00  0.00    +0.000 C 
BRANCH   9  10
ATOM     10  C   UNL     1      44.188   5.525  12.463  0.00  0.00    +0.000 C 
BRANCH  10  11
ATOM     11  C   UNL     1      43.166   4.860  11.529  0.00  0.00    +0.000 C 
ATOM     12  C   UNL     1      43.286   3.344  11.498  0.00  0.00    +0.000 C 
ATOM     13  O   UNL     1      44.215   3.044  10.453  0.00  0.00    +0.000 OA
ATOM     14  C   UNL     1      44.347   4.224   9.667  0.00  0.00    +0.000 C 
ATOM     15  N   UNL     1      43.382   5.222  10.121  0.00  0.00    +0.000 NA
ATOM     16  H   UNL     1      42.519   5.036   9.610  0.00  0.00    +0.000 HD
ENDBRANCH  10  11
ENDBRANCH   9  10
ENDBRANCH   8   9
ENDBRANCH   5   8
ENDBRANCH   1   2
BRANCH   1  19
ATOM     17  O   UNL     1      52.140   6.134  16.439  0.00  0.00    +0.000 OA
ATOM     18  C   UNL     1      51.741   5.342  17.284  0.00  0.00    +0.000 C 
ATOM     19  N   UNL     1      50.456   5.350  17.759  0.00  0.00    +0.000 N 
ATOM     20  H   UNL     1      50.234   4.808  18.587  0.00  0.00    +0.000 HD
BRANCH  18  21
ATOM     21  C   UNL     1      52.608   4.279  17.808  0.00  0.00    +0.000 A 
ATOM     22  C   UNL     1      53.822   4.603  18.400  0.00  0.00    +0.000 A 
ATOM     23  S   UNL     1      54.712   3.244  18.919  0.00  0.00    +0.000 S 
ATOM     24  C   UNL     1      53.483   2.178  18.420  0.00  0.00    +0.000 A 
ATOM     25  N   UNL     1      53.604   0.835  18.604  0.00  0.00    +0.000 NA
ATOM     26  C   UNL     1      52.576   0.151  18.225  0.00  0.00    +0.000 A 
ATOM     27  N   UNL     1      51.445   0.685  17.667  0.00  0.00    +0.000 N 
ATOM     28  C   UNL     1      51.315   2.024  17.386  0.00  0.00    +0.000 A 
ATOM     29  O   UNL     1      50.351   2.445  16.754  0.00  0.00    +0.000 OA
ATOM     30  C   UNL     1      52.420   2.845  17.841  0.00  0.00    +0.000 A 
ATOM     31  H   UNL     1      50.687   0.092  17.362  0.00  0.00    +0.000 HD
ENDBRANCH  18  21
ENDBRANCH   1  19
TORSDOF 7
ENDMDL
MODEL 6
REMARK VINA RESULT:    -6.446      3.138      7.279
REMARK INTER + INTRA:         -10.558
REMARK INTER:                  -9.048
REMARK INTRA:                  -1.510
REMARK UNBOUND:                -1.474
REMARK  Name = 
REMARK  7 active torsions:
REMARK  status: ('A' for Active; 'I' for Inactive)
REMARK    1  A    between atoms: C_2  and  C_19
REMARK    2  A    between atoms: N_3  and  C_4
REMARK    3  A    between atoms: C_4  and  C_5
REMARK    4  A    between atoms: C_8  and  O_9
REMARK    5  A    between atoms: O_9  and  C_10
REMARK    6  A    between atoms: C_10  and  C_11
REMARK    7  A    between atoms: C_11  and  C_12
REMARK                            x       y       z     vdW  Elec       q    Type
REMARK                         _______ _______ _______ _____ _____    ______ ____
ROOT
ATOM      1  C   UNL     1      48.031   8.904  14.128  0.00  0.00    +0.000 C 
ENDROOT
BRANCH   1   2
ATOM      2  C   UNL     1      48.594   8.205  15.336  0.00  0.00    +0.000 A 
ATOM      3  C   UNL     1      49.437   7.101  15.173  0.00  0.00    +0.000 A 
ATOM      4  C   UNL     1      49.989   6.455  16.283  0.00  0.00    +0.000 A 
ATOM      5  C   UNL     1      49.710   6.911  17.572  0.00  0.00    +0.000 A 
ATOM      6  C   UNL     1      48.819   7.970  17.744  0.00  0.00    +0.000 A 
ATOM      7  C   UNL     1      48.263   8.616  16.635  0.00  0.00    +0.000 A 
BRANCH   5   8
ATOM      8  O   UNL     1      50.246   6.390  18.722  0.00  0.00    +0.000 OA
BRANCH   8   9
ATOM      9  C   UNL     1      50.205   4.962  18.813  0.00  0.00    +0.000 C 
BRANCH   9  10
ATOM     10  C   UNL     1      48.799   4.533  19.233  0.00  0.00    +0.000 C 
BRANCH  10  11
ATOM     11  C   UNL     1      48.397   3.198  18.589  0.00  0.00    +0.000 C 
ATOM     12  C   UNL     1      49.208   2.870  17.345  0.00  0.00    +0.000 C 
ATOM     13  O   UNL     1      48.496   3.445  16.246  0.00  0.00    +0.000 OA
ATOM     14  C   UNL     1      47.187   3.749  16.719  0.00  0.00    +0.000 C 
ATOM     15  N   UNL     1      47.022   3.222  18.070  0.00  0.00    +0.000 NA
ATOM     16  H   UNL     1      46.707   2.259  17.963  0.00  0.00    +0.000 HD
ENDBRANCH  10  11
ENDBRANCH   9  10
ENDBRANCH   8   9
ENDBRANCH   5   8
ENDBRANCH   1   2
BRANCH   1  19
ATOM     17  O   UNL     1      47.918   7.333  11.786  0.00  0.00    +0.000 OA
ATOM     18  C   UNL     1      46.925   7.417  12.498  0.00  0.00    +0.000 C 
ATOM     19  N   UNL     1      46.878   8.211  13.614  0.00  0.00    +0.000 N 
ATOM     20  H   UNL     1      46.112   8.095  14.268  0.00  0.00    +0.000 HD
BRANCH  18  21
ATOM     21  C   UNL     1      45.681   6.710  12.166  0.00  0.00    +0.000 A 
ATOM     22  C   UNL     1      44.623   7.404  11.593  0.00  0.00    +0.000 A 
ATOM     23  S   UNL     1      43.248   6.435  11.308  0.00  0.00    +0.000 S 
ATOM     24  C   UNL     1      44.037   5.044  11.890  0.00  0.00    +0.000 A 
ATOM     25  N   UNL     1      43.413   3.836  11.898  0.00  0.00    +0.000 NA
ATOM     26  C   UNL     1      44.145   2.859  12.320  0.00  0.00    +0.000 A 
ATOM     27  N   UNL     1      45.442   2.982  12.745  0.00  0.00    +0.000 N 
ATOM     28  C   UNL     1      46.083   4.195  12.833  0.00  0.00    +0.000 A 
ATOM     29  O   UNL     1      47.190   4.286  13.355  0.00  0.00    +0.000 OA
ATOM     30  C   UNL     1      45.322   5.319  12.322  0.00  0.00    +0.000 A 
ATOM     31  H   UNL     1      45.952   2.184  13.093  0.00  0.00    +0.000 HD
ENDBRANCH  18  21
ENDBRANCH   1  19
TORSDOF 7
ENDMDL
MODEL 7
REMARK VINA RESULT:    -6.432      4.580      8.944
REMARK INTER + INTRA:         -10.538
REMARK INTER:                  -9.610
REMARK INTRA:                  -0.927
REMARK UNBOUND:                -1.474
REMARK  Name = 
REMARK  7 active torsions:
REMARK  status: ('A' for Active; 'I' for Inactive)
REMARK    1  A    between atoms: C_2  and  C_19
REMARK    2  A    between atoms: N_3  and  C_4
REMARK    3  A    between atoms: C_4  and  C_5
REMARK    4  A    between atoms: C_8  and  O_9
REMARK    5  A    between atoms: O_9  and  C_10
REMARK    6  A    between atoms: C_10  and  C_11
REMARK    7  A    between atoms: C_11  and  C_12
REMARK                            x       y       z     vdW  Elec       q    Type
REMARK                         _______ _______ _______ _____ _____    ______ ____
ROOT
ATOM      1  C   UNL     1      47.173   3.466  16.931  0.00  0.00    +0.000 C 
ENDROOT
BRANCH   1   2
ATOM      2  C   UNL     1      48.636   3.490  17.286  0.00  0.00    +0.000 A 
ATOM      3  C   UNL     1      49.193   4.630  17.873  0.00  0.00    +0.000 A 
ATOM      4  C   UNL     1      50.544   4.660  18.231  0.00  0.00    +0.000 A 
ATOM      5  C   UNL     1      51.353   3.545  18.014  0.00  0.00    +0.000 A 
ATOM      6  C   UNL     1      50.820   2.429  17.369  0.00  0.00    +0.000 A 
ATOM      7  C   UNL     1      49.469   2.398  17.006  0.00  0.00    +0.000 A 
BRANCH   5   8
ATOM      8  O   UNL     1      52.670   3.448  18.382  0.00  0.00    +0.000 OA
BRANCH   8   9
ATOM      9  C   UNL     1      53.471   2.611  17.541  0.00  0.00    +0.000 C 
BRANCH   9  10
ATOM     10  C   UNL     1      54.189   1.578  18.409  0.00  0.00    +0.000 C 
BRANCH  10  11
ATOM     11  C   UNL     1      53.661   0.158  18.154  0.00  0.00    +0.000 C 
ATOM     12  C   UNL     1      54.613  -0.926  18.634  0.00  0.00    +0.000 C 
ATOM     13  O   UNL     1      55.477  -1.209  17.530  0.00  0.00    +0.000 OA
ATOM     14  C   UNL     1      54.867  -0.643  16.374  0.00  0.00    +0.000 C 
ATOM     15  N   UNL     1      53.540  -0.141  16.719  0.00  0.00    +0.000 NA
ATOM     16  H   UNL     1      52.901  -0.928  16.613  0.00  0.00    +0.000 HD
ENDBRANCH  10  11
ENDBRANCH   9  10
ENDBRANCH   8   9
ENDBRANCH   5   8
ENDBRANCH   1   2
BRANCH   1  19
ATOM     17  O   UNL     1      47.281   3.071  14.137  0.00  0.00    +0.000 OA
ATOM     18  C   UNL     1      46.887   4.146  14.575  0.00  0.00    +0.000 C 
ATOM     19  N   UNL     1      46.868   4.438  15.914  0.00  0.00    +0.000 N 
ATOM     20  H   UNL     1      46.357   5.254  16.231  0.00  0.00    +0.000 HD
BRANCH  18  21
ATOM     21  C   UNL     1      46.459   5.228  13.680  0.00  0.00    +0.000 A 
ATOM     22  C   UNL     1      47.315   6.292  13.421  0.00  0.00    +0.000 A 
ATOM     23  S   UNL     1      46.642   7.472  12.391  0.00  0.00    +0.000 S 
ATOM     24  C   UNL     1      45.206   6.578  12.210  0.00  0.00    +0.000 A 
ATOM     25  N   UNL     1      44.197   7.026  11.415  0.00  0.00    +0.000 NA
ATOM     26  C   UNL     1      43.187   6.225  11.332  0.00  0.00    +0.000 A 
ATOM     27  N   UNL     1      43.090   5.022  11.979  0.00  0.00    +0.000 N 
ATOM     28  C   UNL     1      44.046   4.570  12.857  0.00  0.00    +0.000 A 
ATOM     29  O   UNL     1      43.859   3.561  13.530  0.00  0.00    +0.000 OA
ATOM     30  C   UNL     1      45.226   5.408  12.948  0.00  0.00    +0.000 A 
ATOM     31  H   UNL     1      42.259   4.454  11.897  0.00  0.00    +0.000 HD
ENDBRANCH  18  21
ENDBRANCH   1  19
TORSDOF 7
ENDMDL
MODEL 8
REMARK VINA RESULT:    -6.329      3.117      7.218
REMARK INTER + INTRA:         -10.393
REMARK INTER:                  -8.959
REMARK INTRA:                  -1.434
REMARK UNBOUND:                -1.474
REMARK  Name = 
REMARK  7 active torsions:
REMARK  status: ('A' for Active; 'I' for Inactive)
REMARK    1  A    between atoms: C_2  and  C_19
REMARK    2  A    between atoms: N_3  and  C_4
REMARK    3  A    between atoms: C_4  and  C_5
REMARK    4  A    between atoms: C_8  and  O_9
REMARK    5  A    between atoms: O_9  and  C_10
REMARK    6  A    between atoms: C_10  and  C_11
REMARK    7  A    between atoms: C_11  and  C_12
REMARK                            x       y       z     vdW  Elec       q    Type
REMARK                         _______ _______ _______ _____ _____    ______ ____
ROOT
ATOM      1  C   UNL     1      48.153   8.277  11.938  0.00  0.00    +0.000 C 
ENDROOT
BRANCH   1   2
ATOM      2  C   UNL     1      48.610   8.095  13.360  0.00  0.00    +0.000 A 
ATOM      3  C   UNL     1      49.810   7.428  13.628  0.00  0.00    +0.000 A 
ATOM      4  C   UNL     1      50.260   7.271  14.942  0.00  0.00    +0.000 A 
ATOM      5  C   UNL     1      49.520   7.788  16.005  0.00  0.00    +0.000 A 
ATOM      6  C   UNL     1      48.291   8.396  15.749  0.00  0.00    +0.000 A 
ATOM      7  C   UNL     1      47.836   8.551  14.436  0.00  0.00    +0.000 A 
BRANCH   5   8
ATOM      8  O   UNL     1      49.901   7.744  17.321  0.00  0.00    +0.000 OA
BRANCH   8   9
ATOM      9  C   UNL     1      49.116   6.877  18.147  0.00  0.00    +0.000 C 
BRANCH   9  10
ATOM     10  C   UNL     1      49.415   5.426  17.767  0.00  0.00    +0.000 C 
BRANCH  10  11
ATOM     11  C   UNL     1      48.149   4.558  17.804  0.00  0.00    +0.000 C 
ATOM     12  C   UNL     1      48.372   3.158  17.253  0.00  0.00    +0.000 C 
ATOM     13  O   UNL     1      48.098   3.237  15.852  0.00  0.00    +0.000 OA
ATOM     14  C   UNL     1      47.399   4.459  15.638  0.00  0.00    +0.000 C 
ATOM     15  N   UNL     1      47.092   5.077  16.925  0.00  0.00    +0.000 NA
ATOM     16  H   UNL     1      46.204   4.678  17.227  0.00  0.00    +0.000 HD
ENDBRANCH  10  11
ENDBRANCH   9  10
ENDBRANCH   8   9
ENDBRANCH   5   8
ENDBRANCH   1   2
BRANCH   1  19
ATOM     17  O   UNL     1      45.356   7.905  11.840  0.00  0.00    +0.000 OA
ATOM     18  C   UNL     1      46.092   7.035  11.390  0.00  0.00    +0.000 C 
ATOM     19  N   UNL     1      47.458   7.110  11.459  0.00  0.00    +0.000 N 
ATOM     20  H   UNL     1      48.015   6.468  10.906  0.00  0.00    +0.000 HD
BRANCH  18  21
ATOM     21  C   UNL     1      45.551   5.807  10.791  0.00  0.00    +0.000 A 
ATOM     22  C   UNL     1      45.790   5.527   9.452  0.00  0.00    +0.000 A 
ATOM     23  S   UNL     1      45.058   4.082   8.918  0.00  0.00    +0.000 S 
ATOM     24  C   UNL     1      44.442   3.753  10.469  0.00  0.00    +0.000 A 
ATOM     25  N   UNL     1      43.723   2.624  10.713  0.00  0.00    +0.000 NA
ATOM     26  C   UNL     1      43.360   2.478  11.944  0.00  0.00    +0.000 A 
ATOM     27  N   UNL     1      43.640   3.363  12.951  0.00  0.00    +0.000 N 
ATOM     28  C   UNL     1      44.290   4.555  12.734  0.00  0.00    +0.000 A 
ATOM     29  O   UNL     1      44.394   5.389  13.629  0.00  0.00    +0.000 OA
ATOM     30  C   UNL     1      44.765   4.745  11.377  0.00  0.00    +0.000 A 
ATOM     31  H   UNL     1      43.301   3.207  13.889  0.00  0.00    +0.000 HD
ENDBRANCH  18  21
ENDBRANCH   1  19
TORSDOF 7
ENDMDL
MODEL 9
REMARK VINA RESULT:    -6.052      2.627      3.351
REMARK INTER + INTRA:         -10.003
REMARK INTER:                  -9.019
REMARK INTRA:                  -0.984
REMARK UNBOUND:                -1.474
REMARK  Name = 
REMARK  7 active torsions:
REMARK  status: ('A' for Active; 'I' for Inactive)
REMARK    1  A    between atoms: C_2  and  C_19
REMARK    2  A    between atoms: N_3  and  C_4
REMARK    3  A    between atoms: C_4  and  C_5
REMARK    4  A    between atoms: C_8  and  O_9
REMARK    5  A    between atoms: O_9  and  C_10
REMARK    6  A    between atoms: C_10  and  C_11
REMARK    7  A    between atoms: C_11  and  C_12
REMARK                            x       y       z     vdW  Elec       q    Type
REMARK                         _______ _______ _______ _____ _____    ______ ____
ROOT
ATOM      1  C   UNL     1      47.184   4.203  15.383  0.00  0.00    +0.000 C 
ENDROOT
BRANCH   1   2
ATOM      2  C   UNL     1      46.671   4.521  14.004  0.00  0.00    +0.000 A 
ATOM      3  C   UNL     1      46.002   3.540  13.265  0.00  0.00    +0.000 A 
ATOM      4  C   UNL     1      45.499   3.826  11.993  0.00  0.00    +0.000 A 
ATOM      5  C   UNL     1      45.650   5.101  11.447  0.00  0.00    +0.000 A 
ATOM      6  C   UNL     1      46.374   6.064  12.151  0.00  0.00    +0.000 A 
ATOM      7  C   UNL     1      46.882   5.779  13.423  0.00  0.00    +0.000 A 
BRANCH   5   8
ATOM      8  O   UNL     1      45.143   5.503  10.238  0.00  0.00    +0.000 OA
BRANCH   8   9
ATOM      9  C   UNL     1      44.882   4.443   9.312  0.00  0.00    +0.000 C 
BRANCH   9  10
ATOM     10  C   UNL     1      46.023   4.382   8.295  0.00  0.00    +0.000 C 
BRANCH  10  11
ATOM     11  C   UNL     1      45.804   3.266   7.264  0.00  0.00    +0.000 C 
ATOM     12  C   UNL     1      46.024   1.875   7.836  0.00  0.00    +0.000 C 
ATOM     13  O   UNL     1      47.411   1.582   7.639  0.00  0.00    +0.000 OA
ATOM     14  C   UNL     1      47.900   2.527   6.693  0.00  0.00    +0.000 C 
ATOM     15  N   UNL     1      46.787   3.317   6.172  0.00  0.00    +0.000 NA
ATOM     16  H   UNL     1      46.411   2.793   5.383  0.00  0.00    +0.000 HD
ENDBRANCH  10  11
ENDBRANCH   9  10
ENDBRANCH   8   9
ENDBRANCH   5   8
ENDBRANCH   1   2
BRANCH   1  19
ATOM     17  O   UNL     1      49.689   4.547  16.639  0.00  0.00    +0.000 OA
ATOM     18  C   UNL     1      48.912   5.493  16.585  0.00  0.00    +0.000 C 
ATOM     19  N   UNL     1      47.653   5.389  16.052  0.00  0.00    +0.000 N 
ATOM     20  H   UNL     1      47.131   6.235  15.856  0.00  0.00    +0.000 HD
BRANCH  18  21
ATOM     21  C   UNL     1      49.258   6.804  17.149  0.00  0.00    +0.000 A 
ATOM     22  C   UNL     1      50.227   7.588  16.535  0.00  0.00    +0.000 A 
ATOM     23  S   UNL     1      50.526   9.059  17.344  0.00  0.00    +0.000 S 
ATOM     24  C   UNL     1      49.334   8.725  18.512  0.00  0.00    +0.000 A 
ATOM     25  N   UNL     1      49.058   9.613  19.505  0.00  0.00    +0.000 NA
ATOM     26  C   UNL     1      48.099   9.253  20.290  0.00  0.00    +0.000 A 
ATOM     27  N   UNL     1      47.397   8.081  20.181  0.00  0.00    +0.000 N 
ATOM     28  C   UNL     1      47.698   7.120  19.247  0.00  0.00    +0.000 A 
ATOM     29  O   UNL     1      47.148   6.022  19.271  0.00  0.00    +0.000 OA
ATOM     30  C   UNL     1      48.735   7.496  18.305  0.00  0.00    +0.000 A 
ATOM     31  H   UNL     1      46.677   7.843  20.847  0.00  0.00    +0.000 HD
ENDBRANCH  18  21
ENDBRANCH   1  19
TORSDOF 7
ENDMDL
