MODEL 1
REMARK VINA RESULT:    -8.128      0.000      0.000
REMARK INTER + INTRA:         -13.321
REMARK INTER:                 -11.929
REMARK INTRA:                  -1.392
REMARK UNBOUND:                -1.392
REMARK  Name = 
REMARK  9 active torsions:
REMARK  status: ('A' for Active; 'I' for Inactive)
REMARK    1  A    between atoms: C_1  and  O_2
REMARK    2  A    between atoms: O_2  and  C_3
REMARK    3  A    between atoms: C_10  and  C_11
REMARK    4  A    between atoms: N_13  and  C_14
REMARK    5  A    between atoms: C_14  and  C_15
REMARK    6  A    between atoms: C_18  and  C_19
REMARK    7  A    between atoms: C_19  and  N_20
REMARK    8  A    between atoms: N_20  and  C_21
REMARK    9  A    between atoms: C_21  and  C_22
REMARK                            x       y       z     vdW  Elec       q    Type
REMARK                         _______ _______ _______ _____ _____    ______ ____
ROOT
ATOM      1  C   UNL     1      47.174   8.318  13.324  0.00  0.00    +0.000 C 
ENDROOT
BRANCH   1   2
ATOM      2  C   UNL     1      46.277   7.457  12.465  0.00  0.00    +0.000 A 
ATOM      3  C   UNL     1      44.893   7.671  12.436  0.00  0.00    +0.000 A 
ATOM      4  C   UNL     1      44.059   6.875  11.637  0.00  0.00    +0.000 A 
ATOM      5  C   UNL     1      44.590   5.843  10.848  0.00  0.00    +0.000 A 
ATOM      6  C   UNL     1      45.971   5.609  10.906  0.00  0.00    +0.000 A 
ATOM      7  C   UNL     1      46.803   6.400  11.709  0.00  0.00    +0.000 A 
BRANCH   5   8
ATOM      8  C   UNL     1      43.695   4.987   9.968  0.00  0.00    +0.000 C 
BRANCH   8   9
ATOM      9  N   UNL     1      44.436   4.426   8.837  0.00  0.00    +0.000 NA
ATOM     10  H   UNL     1      45.377   4.820   8.842  0.00  0.00    +0.000 HD
BRANCH   9  11
ATOM     11  C   UNL     1      44.541   2.967   8.907  0.00  0.00    +0.000 C 
BRANCH  11  12
ATOM     12  C   UNL     1      45.752   2.469   8.151  0.00  0.00    +0.000 A 
ATOM     13  C   UNL     1      46.077   1.106   8.136  0.00  0.00    +0.000 A 
ATOM     14  C   UNL     1      47.200   0.691   7.432  0.00  0.00    +0.000 A 
ATOM     15  N   UNL     1      48.014   1.526   6.750  0.00  0.00    +0.000 NA
ATOM     16  C   UNL     1      47.684   2.835   6.770  0.00  0.00    +0.000 A 
ATOM     17  C   UNL     1      46.579   3.344   7.437  0.00  0.00    +0.000 A 
ENDBRANCH  11  12
ENDBRANCH   9  11
ENDBRANCH   8   9
ENDBRANCH   5   8
ENDBRANCH   1   2
BRANCH   1  20
ATOM     18  C   UNL     1      48.806   6.997  14.622  0.00  0.00    +0.000 C 
ATOM     19  O   UNL     1      49.622   7.011  13.704  0.00  0.00    +0.000 OA
ATOM     20  N   UNL     1      47.591   7.614  14.510  0.00  0.00    +0.000 N 
ATOM     21  H   UNL     1      46.919   7.544  15.259  0.00  0.00    +0.000 HD
BRANCH  18  29
ATOM     22  C   UNL     1      47.351   4.334  16.245  0.00  0.00    +0.000 A 
ATOM     23  N   UNL     1      46.976   3.347  17.075  0.00  0.00    +0.000 NA
ATOM     24  C   UNL     1      47.658   3.192  18.211  0.00  0.00    +0.000 A 
ATOM     25  N   UNL     1      48.693   3.915  18.629  0.00  0.00    +0.000 NA
ATOM     26  C   UNL     1      49.041   4.885  17.767  0.00  0.00    +0.000 A 
ATOM     27  S   UNL     1      50.349   5.906  18.131  0.00  0.00    +0.000 S 
ATOM     28  C   UNL     1      50.144   6.771  16.682  0.00  0.00    +0.000 A 
ATOM     29  C   UNL     1      49.092   6.312  15.897  0.00  0.00    +0.000 A 
ATOM     30  C   UNL     1      48.437   5.178  16.547  0.00  0.00    +0.000 A 
BRANCH  22  32
ATOM     31  C   UNL     1      47.073   3.491  14.084  0.00  0.00    +0.000 C 
ATOM     32  O   UNL     1      46.669   4.458  15.050  0.00  0.00    +0.000 OA
ENDBRANCH  22  32
ENDBRANCH  18  29
ENDBRANCH   1  20
TORSDOF 8
ENDMDL
MODEL 2
REMARK VINA RESULT:    -7.849      1.569      1.816
REMARK INTER + INTRA:         -12.912
REMARK INTER:                 -11.606
REMARK INTRA:                  -1.306
REMARK UNBOUND:                -1.392
REMARK  Name = 
REMARK  9 active torsions:
REMARK  status: ('A' for Active; 'I' for Inactive)
REMARK    1  A    between atoms: C_1  and  O_2
REMARK    2  A    between atoms: O_2  and  C_3
REMARK    3  A    between atoms: C_10  and  C_11
REMARK    4  A    between atoms: N_13  and  C_14
REMARK    5  A    between atoms: C_14  and  C_15
REMARK    6  A    between atoms: C_18  and  C_19
REMARK    7  A    between atoms: C_19  and  N_20
REMARK    8  A    between atoms: N_20  and  C_21
REMARK    9  A    between atoms: C_21  and  C_22
REMARK                            x       y       z     vdW  Elec       q    Type
REMARK                         _______ _______ _______ _____ _____    ______ ____
ROOT
ATOM      1  C   UNL     1      47.844   7.278  13.208  0.00  0.00    +0.000 C 
ENDROOT
BRANCH   1   2
ATOM      2  C   UNL     1      46.771   6.360  12.670  0.00  0.00    +0.000 A 
ATOM      3  C   UNL     1      46.205   5.368  13.480  0.00  0.00    +0.000 A 
ATOM      4  C   UNL     1      45.207   4.517  12.984  0.00  0.00    +0.000 A 
ATOM      5  C   UNL     1      44.752   4.636  11.662  0.00  0.00    +0.000 A 
ATOM      6  C   UNL     1      45.345   5.607  10.842  0.00  0.00    +0.000 A 
ATOM      7  C   UNL     1      46.346   6.453  11.337  0.00  0.00    +0.000 A 
BRANCH   5   8
ATOM      8  C   UNL     1      43.660   3.729  11.121  0.00  0.00    +0.000 C 
BRANCH   8   9
ATOM      9  N   UNL     1      43.846   3.459   9.694  0.00  0.00    +0.000 NA
ATOM     10  H   UNL     1      44.427   4.199   9.300  0.00  0.00    +0.000 HD
BRANCH   9  11
ATOM     11  C   UNL     1      44.501   2.172   9.451  0.00  0.00    +0.000 C 
BRANCH  11  12
ATOM     12  C   UNL     1      45.589   2.301   8.409  0.00  0.00    +0.000 A 
ATOM     13  C   UNL     1      46.372   1.196   8.050  0.00  0.00    +0.000 A 
ATOM     14  C   UNL     1      47.364   1.358   7.091  0.00  0.00    +0.000 A 
ATOM     15  N   UNL     1      47.630   2.528   6.472  0.00  0.00    +0.000 NA
ATOM     16  C   UNL     1      46.863   3.582   6.825  0.00  0.00    +0.000 A 
ATOM     17  C   UNL     1      45.844   3.517   7.765  0.00  0.00    +0.000 A 
ENDBRANCH  11  12
ENDBRANCH   9  11
ENDBRANCH   8   9
ENDBRANCH   5   8
ENDBRANCH   1   2
BRANCH   1  20
ATOM     18  C   UNL     1      48.939   7.008  15.404  0.00  0.00    +0.000 C 
ATOM     19  O   UNL     1      50.013   6.711  14.888  0.00  0.00    +0.000 OA
ATOM     20  N   UNL     1      47.838   7.299  14.648  0.00  0.00    +0.000 N 
ATOM     21  H   UNL     1      46.954   7.490  15.097  0.00  0.00    +0.000 HD
BRANCH  18  29
ATOM     22  C   UNL     1      48.843   4.605  17.865  0.00  0.00    +0.000 A 
ATOM     23  N   UNL     1      48.765   3.885  18.996  0.00  0.00    +0.000 NA
ATOM     24  C   UNL     1      48.576   4.541  20.142  0.00  0.00    +0.000 A 
ATOM     25  N   UNL     1      48.454   5.855  20.303  0.00  0.00    +0.000 NA
ATOM     26  C   UNL     1      48.546   6.538  19.149  0.00  0.00    +0.000 A 
ATOM     27  S   UNL     1      48.422   8.231  19.162  0.00  0.00    +0.000 S 
ATOM     28  C   UNL     1      48.617   8.310  17.475  0.00  0.00    +0.000 A 
ATOM     29  C   UNL     1      48.778   7.069  16.869  0.00  0.00    +0.000 A 
ATOM     30  C   UNL     1      48.742   6.009  17.876  0.00  0.00    +0.000 A 
BRANCH  22  32
ATOM     31  C   UNL     1      47.945   3.205  16.225  0.00  0.00    +0.000 C 
ATOM     32  O   UNL     1      49.086   3.923  16.688  0.00  0.00    +0.000 OA
ENDBRANCH  22  32
ENDBRANCH  18  29
ENDBRANCH   1  20
TORSDOF 8
ENDMDL
MODEL 3
REMARK VINA RESULT:    -7.760      2.039      3.467
REMARK INTER + INTRA:         -12.781
REMARK INTER:                 -11.593
REMARK INTRA:                  -1.188
REMARK UNBOUND:                -1.392
REMARK  Name = 
REMARK  9 active torsions:
REMARK  status: ('A' for Active; 'I' for Inactive)
REMARK    1  A    between atoms: C_1  and  O_2
REMARK    2  A    between atoms: O_2  and  C_3
REMARK    3  A    between atoms: C_10  and  C_11
REMARK    4  A    between atoms: N_13  and  C_14
REMARK    5  A    between atoms: C_14  and  C_15
REMARK    6  A    between atoms: C_18  and  C_19
REMARK    7  A    between atoms: C_19  and  N_20
REMARK    8  A    between atoms: N_20  and  C_21
REMARK    9  A    between atoms: C_21  and  C_22
REMARK                            x       y       z     vdW  Elec       q    Type
REMARK                         _______ _______ _______ _____ _____    ______ ____
ROOT
ATOM      1  C   UNL     1      47.382   3.252  14.904  0.00  0.00    +0.000 C 
ENDROOT
BRANCH   1   2
ATOM      2  C   UNL     1      46.773   3.927  13.696  0.00  0.00    +0.000 A 
ATOM      3  C   UNL     1      47.115   5.244  13.364  0.00  0.00    +0.000 A 
ATOM      4  C   UNL     1      46.554   5.871  12.242  0.00  0.00    +0.000 A 
ATOM      5  C   UNL     1      45.633   5.196  11.426  0.00  0.00    +0.000 A 
ATOM      6  C   UNL     1      45.267   3.890  11.781  0.00  0.00    +0.000 A 
ATOM      7  C   UNL     1      45.824   3.265  12.905  0.00  0.00    +0.000 A 
BRANCH   5   8
ATOM      8  C   UNL     1      45.033   5.862  10.200  0.00  0.00    +0.000 C 
BRANCH   8   9
ATOM      9  N   UNL     1      45.639   5.358   8.966  0.00  0.00    +0.000 NA
ATOM     10  H   UNL     1      46.611   5.120   9.159  0.00  0.00    +0.000 HD
BRANCH   9  11
ATOM     11  C   UNL     1      44.958   4.165   8.459  0.00  0.00    +0.000 C 
BRANCH  11  12
ATOM     12  C   UNL     1      45.950   3.156   7.925  0.00  0.00    +0.000 A 
ATOM     13  C   UNL     1      46.955   3.544   7.029  0.00  0.00    +0.000 A 
ATOM     14  C   UNL     1      47.844   2.585   6.560  0.00  0.00    +0.000 A 
ATOM     15  N   UNL     1      47.803   1.282   6.913  0.00  0.00    +0.000 NA
ATOM     16  C   UNL     1      46.833   0.926   7.781  0.00  0.00    +0.000 A 
ATOM     17  C   UNL     1      45.905   1.811   8.311  0.00  0.00    +0.000 A 
ENDBRANCH  11  12
ENDBRANCH   9  11
ENDBRANCH   8   9
ENDBRANCH   5   8
ENDBRANCH   1   2
BRANCH   1  20
ATOM     18  C   UNL     1      47.391   4.127  17.212  0.00  0.00    +0.000 C 
ATOM     19  O   UNL     1      46.694   3.200  17.619  0.00  0.00    +0.000 OA
ATOM     20  N   UNL     1      47.768   4.217  15.901  0.00  0.00    +0.000 N 
ATOM     21  H   UNL     1      48.297   5.015  15.583  0.00  0.00    +0.000 HD
BRANCH  18  29
ATOM     22  C   UNL     1      50.510   5.356  17.989  0.00  0.00    +0.000 A 
ATOM     23  N   UNL     1      51.585   6.002  18.467  0.00  0.00    +0.000 NA
ATOM     24  C   UNL     1      51.387   6.960  19.373  0.00  0.00    +0.000 A 
ATOM     25  N   UNL     1      50.222   7.363  19.872  0.00  0.00    +0.000 NA
ATOM     26  C   UNL     1      49.172   6.697  19.362  0.00  0.00    +0.000 A 
ATOM     27  S   UNL     1      47.600   7.083  19.877  0.00  0.00    +0.000 S 
ATOM     28  C   UNL     1      46.922   5.900  18.862  0.00  0.00    +0.000 A 
ATOM     29  C   UNL     1      47.860   5.193  18.117  0.00  0.00    +0.000 A 
ATOM     30  C   UNL     1      49.207   5.677  18.415  0.00  0.00    +0.000 A 
BRANCH  22  32
ATOM     31  C   UNL     1      50.930   3.097  17.563  0.00  0.00    +0.000 C 
ATOM     32  O   UNL     1      50.719   4.397  17.017  0.00  0.00    +0.000 OA
ENDBRANCH  22  32
ENDBRANCH  18  29
ENDBRANCH   1  20
TORSDOF 8
ENDMDL
MODEL 4
REMARK VINA RESULT:    -7.698      2.153      2.925
REMARK INTER + INTRA:         -12.690
REMARK INTER:                 -11.698
REMARK INTRA:                  -0.992
REMARK UNBOUND:                -1.392
REMARK  Name = 
REMARK  9 active torsions:
REMARK  status: ('A' for Active; 'I' for Inactive)
REMARK    1  A    between atoms: C_1  and  O_2
REMARK    2  A    between atoms: O_2  and  C_3
REMARK    3  A    between atoms: C_10  and  C_11
REMARK    4  A    between atoms: N_13  and  C_14
REMARK    5  A    between atoms: C_14  and  C_15
REMARK    6  A    between atoms: C_18  and  C_19
REMARK    7  A    between atoms: C_19  and  N_20
REMARK    8  A    between atoms: N_20  and  C_21
REMARK    9  A    between atoms: C_21  and  C_22
REMARK                            x       y       z     vdW  Elec       q    Type
REMARK                         _______ _______ _______ _____ _____    ______ ____
ROOT
ATOM      1  C   UNL     1      48.018   6.844  13.737  0.00  0.00    +0.000 C 
ENDROOT
BRANCH   1   2
ATOM      2  C   UNL     1      46.911   6.216  12.922  0.00  0.00    +0.000 A 
ATOM      3  C   UNL     1      46.435   6.838  11.761  0.00  0.00    +0.000 A 
ATOM      4  C   UNL     1      45.410   6.256  11.001  0.00  0.00    +0.000 A 
ATOM      5  C   UNL     1      44.833   5.036  11.387  0.00  0.00    +0.000 A 
ATOM      6  C   UNL     1      45.288   4.433  12.569  0.00  0.00    +0.000 A 
ATOM      7  C   UNL     1      46.308   5.018  13.330  0.00  0.00    +0.000 A 
BRANCH   5   8
ATOM      8  C   UNL     1      43.733   4.390  10.562  0.00  0.00    +0.000 C 
BRANCH   8   9
ATOM      9  N   UNL     1      44.259   3.314   9.719  0.00  0.00    +0.000 NA
ATOM     10  H   UNL     1      43.510   2.643   9.550  0.00  0.00    +0.000 HD
BRANCH   9  11
ATOM     11  C   UNL     1      44.743   3.806   8.427  0.00  0.00    +0.000 C 
BRANCH  11  12
ATOM     12  C   UNL     1      45.847   2.924   7.886  0.00  0.00    +0.000 A 
ATOM     13  C   UNL     1      46.836   3.450   7.045  0.00  0.00    +0.000 A 
ATOM     14  C   UNL     1      47.830   2.605   6.567  0.00  0.00    +0.000 A 
ATOM     15  N   UNL     1      47.907   1.290   6.862  0.00  0.00    +0.000 NA
ATOM     16  C   UNL     1      46.949   0.800   7.677  0.00  0.00    +0.000 A 
ATOM     17  C   UNL     1      45.922   1.565   8.211  0.00  0.00    +0.000 A 
ENDBRANCH  11  12
ENDBRANCH   9  11
ENDBRANCH   8   9
ENDBRANCH   5   8
ENDBRANCH   1   2
BRANCH   1  20
ATOM     18  C   UNL     1      49.020   6.353  15.939  0.00  0.00    +0.000 C 
ATOM     19  O   UNL     1      50.154   6.591  15.531  0.00  0.00    +0.000 OA
ATOM     20  N   UNL     1      47.929   6.457  15.122  0.00  0.00    +0.000 N 
ATOM     21  H   UNL     1      47.015   6.207  15.468  0.00  0.00    +0.000 HD
BRANCH  18  29
ATOM     22  C   UNL     1      47.897   8.030  18.726  0.00  0.00    +0.000 A 
ATOM     23  N   UNL     1      47.497   8.438  19.941  0.00  0.00    +0.000 NA
ATOM     24  C   UNL     1      47.497   7.545  20.931  0.00  0.00    +0.000 A 
ATOM     25  N   UNL     1      47.853   6.266  20.857  0.00  0.00    +0.000 NA
ATOM     26  C   UNL     1      48.238   5.897  19.624  0.00  0.00    +0.000 A 
ATOM     27  S   UNL     1      48.720   4.294  19.337  0.00  0.00    +0.000 S 
ATOM     28  C   UNL     1      49.027   4.624  17.699  0.00  0.00    +0.000 A 
ATOM     29  C   UNL     1      48.774   5.942  17.334  0.00  0.00    +0.000 A 
ATOM     30  C   UNL     1      48.295   6.700  18.488  0.00  0.00    +0.000 A 
BRANCH  22  32
ATOM     31  C   UNL     1      49.089   9.630  17.510  0.00  0.00    +0.000 C 
ATOM     32  O   UNL     1      47.851   8.948  17.695  0.00  0.00    +0.000 OA
ENDBRANCH  22  32
ENDBRANCH  18  29
ENDBRANCH   1  20
TORSDOF 8
ENDMDL
MODEL 5
REMARK VINA RESULT:    -7.591      2.047      3.746
REMARK INTER + INTRA:         -12.534
REMARK INTER:                 -11.059
REMARK INTRA:                  -1.474
REMARK UNBOUND:                -1.392
REMARK  Name = 
REMARK  9 active torsions:
REMARK  status: ('A' for Active; 'I' for Inactive)
REMARK    1  A    between atoms: C_1  and  O_2
REMARK    2  A    between atoms: O_2  and  C_3
REMARK    3  A    between atoms: C_10  and  C_11
REMARK    4  A    between atoms: N_13  and  C_14
REMARK    5  A    between atoms: C_14  and  C_15
REMARK    6  A    between atoms: C_18  and  C_19
REMARK    7  A    between atoms: C_19  and  N_20
REMARK    8  A    between atoms: N_20  and  C_21
REMARK    9  A    between atoms: C_21  and  C_22
REMARK                            x       y       z     vdW  Elec       q    Type
REMARK                         _______ _______ _______ _____ _____    ______ ____
ROOT
ATOM      1  C   UNL     1      47.213   4.542  14.850  0.00  0.00    +0.000 C 
ENDROOT
BRANCH   1   2
ATOM      2  C   UNL     1      46.287   4.512  13.656  0.00  0.00    +0.000 A 
ATOM      3  C   UNL     1      45.648   5.678  13.216  0.00  0.00    +0.000 A 
ATOM      4  C   UNL     1      44.791   5.653  12.106  0.00  0.00    +0.000 A 
ATOM      5  C   UNL     1      44.550   4.458  11.410  0.00  0.00    +0.000 A 
ATOM      6  C   UNL     1      45.163   3.286  11.874  0.00  0.00    +0.000 A 
ATOM      7  C   UNL     1      46.015   3.310  12.987  0.00  0.00    +0.000 A 
BRANCH   5   8
ATOM      8  C   UNL     1      43.636   4.425  10.198  0.00  0.00    +0.000 C 
BRANCH   8   9
ATOM      9  N   UNL     1      44.097   3.453   9.205  0.00  0.00    +0.000 NA
ATOM     10  H   UNL     1      43.284   3.091   8.707  0.00  0.00    +0.000 HD
BRANCH   9  11
ATOM     11  C   UNL     1      45.015   4.045   8.230  0.00  0.00    +0.000 C 
BRANCH  11  12
ATOM     12  C   UNL     1      46.022   3.029   7.740  0.00  0.00    +0.000 A 
ATOM     13  C   UNL     1      45.969   1.699   8.177  0.00  0.00    +0.000 A 
ATOM     14  C   UNL     1      46.915   0.798   7.705  0.00  0.00    +0.000 A 
ATOM     15  N   UNL     1      47.900   1.123   6.840  0.00  0.00    +0.000 NA
ATOM     16  C   UNL     1      47.934   2.407   6.424  0.00  0.00    +0.000 A 
ATOM     17  C   UNL     1      47.029   3.377   6.832  0.00  0.00    +0.000 A 
ENDBRANCH  11  12
ENDBRANCH   9  11
ENDBRANCH   8   9
ENDBRANCH   5   8
ENDBRANCH   1   2
BRANCH   1  20
ATOM     18  C   UNL     1      48.667   6.198  15.963  0.00  0.00    +0.000 C 
ATOM     19  O   UNL     1      49.401   5.323  16.415  0.00  0.00    +0.000 OA
ATOM     20  N   UNL     1      47.581   5.892  15.190  0.00  0.00    +0.000 N 
ATOM     21  H   UNL     1      46.965   6.626  14.874  0.00  0.00    +0.000 HD
BRANCH  18  29
ATOM     22  C   UNL     1      48.693   8.998  13.963  0.00  0.00    +0.000 A 
ATOM     23  N   UNL     1      48.773  10.223  13.419  0.00  0.00    +0.000 NA
ATOM     24  C   UNL     1      49.086  11.243  14.220  0.00  0.00    +0.000 A 
ATOM     25  N   UNL     1      49.333  11.190  15.526  0.00  0.00    +0.000 NA
ATOM     26  C   UNL     1      49.234   9.949  16.031  0.00  0.00    +0.000 A 
ATOM     27  S   UNL     1      49.507   9.691  17.687  0.00  0.00    +0.000 S 
ATOM     28  C   UNL     1      49.223   8.023  17.527  0.00  0.00    +0.000 A 
ATOM     29  C   UNL     1      48.917   7.627  16.229  0.00  0.00    +0.000 A 
ATOM     30  C   UNL     1      48.918   8.785  15.337  0.00  0.00    +0.000 A 
BRANCH  22  32
ATOM     31  C   UNL     1      49.429   7.390  12.437  0.00  0.00    +0.000 C 
ATOM     32  O   UNL     1      48.324   7.954  13.137  0.00  0.00    +0.000 OA
ENDBRANCH  22  32
ENDBRANCH  18  29
ENDBRANCH   1  20
TORSDOF 8
ENDMDL
MODEL 6
REMARK VINA RESULT:    -7.427      2.190      3.496
REMARK INTER + INTRA:         -12.292
REMARK INTER:                 -11.008
REMARK INTRA:                  -1.284
REMARK UNBOUND:                -1.392
REMARK  Name = 
REMARK  9 active torsions:
REMARK  status: ('A' for Active; 'I' for Inactive)
REMARK    1  A    between atoms: C_1  and  O_2
REMARK    2  A    between atoms: O_2  and  C_3
REMARK    3  A    between atoms: C_10  and  C_11
REMARK    4  A    between atoms: N_13  and  C_14
REMARK    5  A    between atoms: C_14  and  C_15
REMARK    6  A    between atoms: C_18  and  C_19
REMARK    7  A    between atoms: C_19  and  N_20
REMARK    8  A    between atoms: N_20  and  C_21
REMARK    9  A    between atoms: C_21  and  C_22
REMARK                            x       y       z     vdW  Elec       q    Type
REMARK                         _______ _______ _______ _____ _____    ______ ____
ROOT
ATOM      1  C   UNL     1      47.463   3.935  15.207  0.00  0.00    +0.000 C 
ENDROOT
BRANCH   1   2
ATOM      2  C   UNL     1      46.802   4.380  13.923  0.00  0.00    +0.000 A 
ATOM      3  C   UNL     1      47.036   5.659  13.403  0.00  0.00    +0.000 A 
ATOM      4  C   UNL     1      46.427   6.073  12.210  0.00  0.00    +0.000 A 
ATOM      5  C   UNL     1      45.564   5.217  11.508  0.00  0.00    +0.000 A 
ATOM      6  C   UNL     1      45.304   3.950  12.049  0.00  0.00    +0.000 A 
ATOM      7  C   UNL     1      45.910   3.539  13.244  0.00  0.00    +0.000 A 
BRANCH   5   8
ATOM      8  C   UNL     1      44.912   5.652  10.207  0.00  0.00    +0.000 C 
BRANCH   8   9
ATOM      9  N   UNL     1      45.637   5.133   9.045  0.00  0.00    +0.000 NA
ATOM     10  H   UNL     1      46.554   4.811   9.356  0.00  0.00    +0.000 HD
BRANCH   9  11
ATOM     11  C   UNL     1      44.941   4.012   8.409  0.00  0.00    +0.000 C 
BRANCH  11  12
ATOM     12  C   UNL     1      45.921   3.034   7.801  0.00  0.00    +0.000 A 
ATOM     13  C   UNL     1      45.992   1.713   8.261  0.00  0.00    +0.000 A 
ATOM     14  C   UNL     1      46.909   0.847   7.678  0.00  0.00    +0.000 A 
ATOM     15  N   UNL     1      47.751   1.199   6.683  0.00  0.00    +0.000 NA
ATOM     16  C   UNL     1      47.665   2.474   6.247  0.00  0.00    +0.000 A 
ATOM     17  C   UNL     1      46.777   3.409   6.760  0.00  0.00    +0.000 A 
ENDBRANCH  11  12
ENDBRANCH   9  11
ENDBRANCH   8   9
ENDBRANCH   5   8
ENDBRANCH   1   2
BRANCH   1  20
ATOM     18  C   UNL     1      48.253   4.969  17.305  0.00  0.00    +0.000 C 
ATOM     19  O   UNL     1      49.001   4.025  17.547  0.00  0.00    +0.000 OA
ATOM     20  N   UNL     1      47.474   4.996  16.182  0.00  0.00    +0.000 N 
ATOM     21  H   UNL     1      46.830   5.759  16.033  0.00  0.00    +0.000 HD
BRANCH  18  29
ATOM     22  C   UNL     1      48.635   8.359  16.854  0.00  0.00    +0.000 A 
ATOM     23  N   UNL     1      48.734   9.695  16.953  0.00  0.00    +0.000 NA
ATOM     24  C   UNL     1      48.545  10.248  18.151  0.00  0.00    +0.000 A 
ATOM     25  N   UNL     1      48.262   9.620  19.289  0.00  0.00    +0.000 NA
ATOM     26  C   UNL     1      48.164   8.287  19.144  0.00  0.00    +0.000 A 
ATOM     27  S   UNL     1      47.798   7.319  20.491  0.00  0.00    +0.000 S 
ATOM     28  C   UNL     1      47.859   5.902  19.555  0.00  0.00    +0.000 A 
ATOM     29  C   UNL     1      48.155   6.126  18.214  0.00  0.00    +0.000 A 
ATOM     30  C   UNL     1      48.330   7.557  17.971  0.00  0.00    +0.000 A 
BRANCH  22  32
ATOM     31  C   UNL     1      50.150   7.546  15.273  0.00  0.00    +0.000 C 
ATOM     32  O   UNL     1      48.786   7.797  15.600  0.00  0.00    +0.000 OA
ENDBRANCH  22  32
ENDBRANCH  18  29
ENDBRANCH   1  20
TORSDOF 8
ENDMDL
MODEL 7
REMARK VINA RESULT:    -7.107      2.600      3.652
REMARK INTER + INTRA:         -11.823
REMARK INTER:                 -10.885
REMARK INTRA:                  -0.938
REMARK UNBOUND:                -1.392
REMARK  Name = 
REMARK  9 active torsions:
REMARK  status: ('A' for Active; 'I' for Inactive)
REMARK    1  A    between atoms: C_1  and  O_2
REMARK    2  A    between atoms: O_2  and  C_3
REMARK    3  A    between atoms: C_10  and  C_11
REMARK    4  A    between atoms: N_13  and  C_14
REMARK    5  A    between atoms: C_14  and  C_15
REMARK    6  A    between atoms: C_18  and  C_19
REMARK    7  A    between atoms: C_19  and  N_20
REMARK    8  A    between atoms: N_20  and  C_21
REMARK    9  A    between atoms: C_21  and  C_22
REMARK                            x       y       z     vdW  Elec       q    Type
REMARK                         _______ _______ _______ _____ _____    ______ ____
ROOT
ATOM      1  C   UNL     1      47.261   4.623  15.094  0.00  0.00    +0.000 C 
ENDROOT
BRANCH   1   2
ATOM      2  C   UNL     1      46.471   4.706  13.808  0.00  0.00    +0.000 A 
ATOM      3  C   UNL     1      46.068   3.544  13.139  0.00  0.00    +0.000 A 
ATOM      4  C   UNL     1      45.333   3.618  11.947  0.00  0.00    +0.000 A 
ATOM      5  C   UNL     1      44.985   4.860  11.393  0.00  0.00    +0.000 A 
ATOM      6  C   UNL     1      45.420   6.022  12.046  0.00  0.00    +0.000 A 
ATOM      7  C   UNL     1      46.159   5.946  13.234  0.00  0.00    +0.000 A 
BRANCH   5   8
ATOM      8  C   UNL     1      44.175   4.949  10.111  0.00  0.00    +0.000 C 
BRANCH   8   9
ATOM      9  N   UNL     1      45.024   4.781   8.929  0.00  0.00    +0.000 NA
ATOM     10  H   UNL     1      45.982   4.619   9.241  0.00  0.00    +0.000 HD
BRANCH   9  11
ATOM     11  C   UNL     1      44.606   3.647   8.101  0.00  0.00    +0.000 C 
BRANCH  11  12
ATOM     12  C   UNL     1      45.801   2.860   7.610  0.00  0.00    +0.000 A 
ATOM     13  C   UNL     1      46.660   3.393   6.641  0.00  0.00    +0.000 A 
ATOM     14  C   UNL     1      47.744   2.635   6.214  0.00  0.00    +0.000 A 
ATOM     15  N   UNL     1      48.028   1.399   6.677  0.00  0.00    +0.000 NA
ATOM     16  C   UNL     1      47.193   0.902   7.615  0.00  0.00    +0.000 A 
ATOM     17  C   UNL     1      46.091   1.585   8.110  0.00  0.00    +0.000 A 
ENDBRANCH  11  12
ENDBRANCH   9  11
ENDBRANCH   8   9
ENDBRANCH   5   8
ENDBRANCH   1   2
BRANCH   1  20
ATOM     18  C   UNL     1      48.843   6.119  16.257  0.00  0.00    +0.000 C 
ATOM     19  O   UNL     1      49.547   5.178  16.614  0.00  0.00    +0.000 OA
ATOM     20  N   UNL     1      47.713   5.925  15.512  0.00  0.00    +0.000 N 
ATOM     21  H   UNL     1      47.125   6.710  15.276  0.00  0.00    +0.000 HD
BRANCH  18  29
ATOM     22  C   UNL     1      47.924   8.173  18.861  0.00  0.00    +0.000 A 
ATOM     23  N   UNL     1      47.724   9.164  19.746  0.00  0.00    +0.000 NA
ATOM     24  C   UNL     1      48.332  10.330  19.525  0.00  0.00    +0.000 A 
ATOM     25  N   UNL     1      49.133  10.637  18.509  0.00  0.00    +0.000 NA
ATOM     26  C   UNL     1      49.313   9.617  17.653  0.00  0.00    +0.000 A 
ATOM     27  S   UNL     1      50.314   9.822  16.297  0.00  0.00    +0.000 S 
ATOM     28  C   UNL     1      50.030   8.229  15.780  0.00  0.00    +0.000 A 
ATOM     29  C   UNL     1      49.179   7.511  16.613  0.00  0.00    +0.000 A 
ATOM     30  C   UNL     1      48.756   8.343  17.738  0.00  0.00    +0.000 A 
BRANCH  22  32
ATOM     31  C   UNL     1      47.479   6.547  20.479  0.00  0.00    +0.000 C 
ATOM     32  O   UNL     1      47.329   6.953  19.121  0.00  0.00    +0.000 OA
ENDBRANCH  22  32
ENDBRANCH  18  29
ENDBRANCH   1  20
TORSDOF 8
ENDMDL
MODEL 8
REMARK VINA RESULT:    -6.962      1.992      3.113
REMARK INTER + INTRA:         -11.610
REMARK INTER:                 -10.972
REMARK INTRA:                  -0.638
REMARK UNBOUND:                -1.392
REMARK  Name = 
REMARK  9 active torsions:
REMARK  status: ('A' for Active; 'I' for Inactive)
REMARK    1  A    between atoms: C_1  and  O_2
REMARK    2  A    between atoms: O_2  and  C_3
REMARK    3  A    between atoms: C_10  and  C_11
REMARK    4  A    between atoms: N_13  and  C_14
REMARK    5  A    between atoms: C_14  and  C_15
REMARK    6  A    between atoms: C_18  and  C_19
REMARK    7  A    between atoms: C_19  and  N_20
REMARK    8  A    between atoms: N_20  and  C_21
REMARK    9  A    between atoms: C_21  and  C_22
REMARK                            x       y       z     vdW  Elec       q    Type
REMARK                         _______ _______ _______ _____ _____    ______ ____
ROOT
ATOM      1  C   UNL     1      47.538   7.484  13.875  0.00  0.00    +0.000 C 
ENDROOT
BRANCH   1   2
ATOM      2  C   UNL     1      46.586   6.719  12.985  0.00  0.00    +0.000 A 
ATOM      3  C   UNL     1      46.513   5.322  13.048  0.00  0.00    +0.000 A 
ATOM      4  C   UNL     1      45.628   4.611  12.226  0.00  0.00    +0.000 A 
ATOM      5  C   UNL     1      44.794   5.280  11.316  0.00  0.00    +0.000 A 
ATOM      6  C   UNL     1      44.894   6.676  11.232  0.00  0.00    +0.000 A 
ATOM      7  C   UNL     1      45.783   7.386  12.050  0.00  0.00    +0.000 A 
BRANCH   5   8
ATOM      8  C   UNL     1      43.821   4.518  10.433  0.00  0.00    +0.000 C 
BRANCH   8   9
ATOM      9  N   UNL     1      44.500   3.467   9.672  0.00  0.00    +0.000 NA
ATOM     10  H   UNL     1      43.868   2.671   9.591  0.00  0.00    +0.000 HD
BRANCH   9  11
ATOM     11  C   UNL     1      44.872   3.907   8.326  0.00  0.00    +0.000 C 
BRANCH  11  12
ATOM     12  C   UNL     1      45.890   2.974   7.708  0.00  0.00    +0.000 A 
ATOM     13  C   UNL     1      46.672   3.386   6.622  0.00  0.00    +0.000 A 
ATOM     14  C   UNL     1      47.593   2.496   6.082  0.00  0.00    +0.000 A 
ATOM     15  N   UNL     1      47.787   1.241   6.540  0.00  0.00    +0.000 NA
ATOM     16  C   UNL     1      47.029   0.862   7.591  0.00  0.00    +0.000 A 
ATOM     17  C   UNL     1      46.090   1.680   8.203  0.00  0.00    +0.000 A 
ENDBRANCH  11  12
ENDBRANCH   9  11
ENDBRANCH   8   9
ENDBRANCH   5   8
ENDBRANCH   1   2
BRANCH   1  20
ATOM     18  C   UNL     1      49.224   6.920  15.588  0.00  0.00    +0.000 C 
ATOM     19  O   UNL     1      49.891   7.920  15.332  0.00  0.00    +0.000 OA
ATOM     20  N   UNL     1      48.064   6.643  14.920  0.00  0.00    +0.000 N 
ATOM     21  H   UNL     1      47.563   5.790  15.114  0.00  0.00    +0.000 HD
BRANCH  18  29
ATOM     22  C   UNL     1      52.292   5.924  16.786  0.00  0.00    +0.000 A 
ATOM     23  N   UNL     1      53.338   5.366  17.418  0.00  0.00    +0.000 NA
ATOM     24  C   UNL     1      53.086   4.453  18.356  0.00  0.00    +0.000 A 
ATOM     25  N   UNL     1      51.893   4.018  18.753  0.00  0.00    +0.000 NA
ATOM     26  C   UNL     1      50.876   4.607  18.103  0.00  0.00    +0.000 A 
ATOM     27  S   UNL     1      49.276   4.183  18.484  0.00  0.00    +0.000 S 
ATOM     28  C   UNL     1      48.658   5.264  17.327  0.00  0.00    +0.000 A 
ATOM     29  C   UNL     1      49.639   5.964  16.632  0.00  0.00    +0.000 A 
ATOM     30  C   UNL     1      50.966   5.573  17.104  0.00  0.00    +0.000 A 
BRANCH  22  32
ATOM     31  C   UNL     1      53.923   6.909  15.434  0.00  0.00    +0.000 C 
ATOM     32  O   UNL     1      52.559   6.902  15.848  0.00  0.00    +0.000 OA
ENDBRANCH  22  32
ENDBRANCH  18  29
ENDBRANCH   1  20
TORSDOF 8
ENDMDL
MODEL 9
REMARK VINA RESULT:    -6.828      3.260      7.538
REMARK INTER + INTRA:         -11.414
REMARK INTER:                  -9.684
REMARK INTRA:                  -1.730
REMARK UNBOUND:                -1.392
REMARK  Name = 
REMARK  9 active torsions:
REMARK  status: ('A' for Active; 'I' for Inactive)
REMARK    1  A    between atoms: C_1  and  O_2
REMARK    2  A    between atoms: O_2  and  C_3
REMARK    3  A    between atoms: C_10  and  C_11
REMARK    4  A    between atoms: N_13  and  C_14
REMARK    5  A    between atoms: C_14  and  C_15
REMARK    6  A    between atoms: C_18  and  C_19
REMARK    7  A    between atoms: C_19  and  N_20
REMARK    8  A    between atoms: N_20  and  C_21
REMARK    9  A    between atoms: C_21  and  C_22
REMARK                            x       y       z     vdW  Elec       q    Type
REMARK                         _______ _______ _______ _____ _____    ______ ____
ROOT
ATOM      1  C   UNL     1      48.379   7.975  11.880  0.00  0.00    +0.000 C 
ENDROOT
BRANCH   1   2
ATOM      2  C   UNL     1      48.493   7.848  13.382  0.00  0.00    +0.000 A 
ATOM      3  C   UNL     1      48.119   8.905  14.221  0.00  0.00    +0.000 A 
ATOM      4  C   UNL     1      48.221   8.788  15.615  0.00  0.00    +0.000 A 
ATOM      5  C   UNL     1      48.704   7.610  16.204  0.00  0.00    +0.000 A 
ATOM      6  C   UNL     1      49.111   6.566  15.361  0.00  0.00    +0.000 A 
ATOM      7  C   UNL     1      49.013   6.686  13.968  0.00  0.00    +0.000 A 
BRANCH   5   8
ATOM      8  C   UNL     1      48.803   7.469  17.713  0.00  0.00    +0.000 C 
BRANCH   8   9
ATOM      9  N   UNL     1      47.947   6.389  18.208  0.00  0.00    +0.000 NA
ATOM     10  H   UNL     1      47.470   5.966  17.411  0.00  0.00    +0.000 HD
BRANCH   9  11
ATOM     11  C   UNL     1      48.708   5.348  18.902  0.00  0.00    +0.000 C 
BRANCH  11  12
ATOM     12  C   UNL     1      48.945   4.154  18.005  0.00  0.00    +0.000 A 
ATOM     13  C   UNL     1      50.210   3.557  17.927  0.00  0.00    +0.000 A 
ATOM     14  C   UNL     1      50.386   2.465  17.087  0.00  0.00    +0.000 A 
ATOM     15  N   UNL     1      49.405   1.931  16.329  0.00  0.00    +0.000 NA
ATOM     16  C   UNL     1      48.191   2.514  16.420  0.00  0.00    +0.000 A 
ATOM     17  C   UNL     1      47.915   3.603  17.235  0.00  0.00    +0.000 A 
ENDBRANCH  11  12
ENDBRANCH   9  11
ENDBRANCH   8   9
ENDBRANCH   5   8
ENDBRANCH   1   2
BRANCH   1  20
ATOM     18  C   UNL     1      46.256   6.865  11.285  0.00  0.00    +0.000 C 
ATOM     19  O   UNL     1      45.588   7.795  11.731  0.00  0.00    +0.000 OA
ATOM     20  N   UNL     1      47.622   6.884  11.321  0.00  0.00    +0.000 N 
ATOM     21  H   UNL     1      48.146   6.086  10.995  0.00  0.00    +0.000 HD
BRANCH  18  29
ATOM     22  C   UNL     1      44.449   4.245  12.592  0.00  0.00    +0.000 A 
ATOM     23  N   UNL     1      43.738   3.132  12.837  0.00  0.00    +0.000 NA
ATOM     24  C   UNL     1      43.437   2.343  11.805  0.00  0.00    +0.000 A 
ATOM     25  N   UNL     1      43.764   2.532  10.530  0.00  0.00    +0.000 NA
ATOM     26  C   UNL     1      44.467   3.659  10.327  0.00  0.00    +0.000 A 
ATOM     27  S   UNL     1      44.964   4.069   8.756  0.00  0.00    +0.000 S 
ATOM     28  C   UNL     1      45.724   5.485   9.310  0.00  0.00    +0.000 A 
ATOM     29  C   UNL     1      45.620   5.678  10.684  0.00  0.00    +0.000 A 
ATOM     30  C   UNL     1      44.860   4.585  11.289  0.00  0.00    +0.000 A 
BRANCH  22  32
ATOM     31  C   UNL     1      45.982   4.815  14.260  0.00  0.00    +0.000 C 
ATOM     32  O   UNL     1      44.717   5.081  13.659  0.00  0.00    +0.000 OA
ENDBRANCH  22  32
ENDBRANCH  18  29
ENDBRANCH   1  20
TORSDOF 8
ENDMDL
