MODEL 1
REMARK VINA RESULT:    -7.882      0.000      0.000
REMARK INTER + INTRA:         -10.807
REMARK INTER:                 -10.186
REMARK INTRA:                  -0.622
REMARK UNBOUND:                -0.622
REMARK  Name = 
REMARK  7 active torsions:
REMARK  status: ('A' for Active; 'I' for Inactive)
REMARK    1  A    between atoms: C_1  and  C_2
REMARK    2  A    between atoms: C_2  and  C_3
REMARK    3  A    between atoms: C_5  and  N_6
REMARK    4  A    between atoms: C_11  and  C_12
REMARK    5  A    between atoms: C_13  and  N_14
REMARK    6  A    between atoms: N_14  and  C_15
REMARK    7  A    between atoms: C_18  and  C_19
REMARK                            x       y       z     vdW  Elec       q    Type
REMARK                         _______ _______ _______ _____ _____    ______ ____
ROOT
ATOM      1  C   UNL     1      46.070   5.761  11.735  0.00  0.00    +0.000 C 
ATOM      2  C   UNL     1      44.976   6.018  11.000  0.00  0.00    +0.000 C 
ENDROOT
BRANCH   1   8
ATOM      3  N   UNL     1      48.519   6.561  15.737  0.00  0.00    +0.000 N 
ATOM      4  C   UNL     1      47.868   7.065  14.610  0.00  0.00    +0.000 A 
ATOM      5  N   UNL     1      47.851   8.392  14.456  0.00  0.00    +0.000 NA
ATOM      6  C   UNL     1      47.144   8.875  13.420  0.00  0.00    +0.000 A 
ATOM      7  C   UNL     1      46.521   8.078  12.493  0.00  0.00    +0.000 A 
ATOM      8  C   UNL     1      46.638   6.723  12.694  0.00  0.00    +0.000 A 
ATOM      9  N   UNL     1      47.283   6.210  13.764  0.00  0.00    +0.000 NA
ATOM     10  H   UNL     1      49.505   6.760  15.600  0.00  0.00    +0.000 HD
BRANCH   3  15
ATOM     11  C   UNL     1      47.984   2.827  18.079  0.00  0.00    +0.000 C 
ATOM     12  C   UNL     1      48.473   4.271  18.166  0.00  0.00    +0.000 C 
ATOM     13  C   UNL     1      48.968   4.616  19.567  0.00  0.00    +0.000 C 
ATOM     14  C   UNL     1      47.470   5.302  17.584  0.00  0.00    +0.000 C 
ATOM     15  C   UNL     1      48.252   5.254  16.246  0.00  0.00    +0.000 C 
ATOM     16  C   UNL     1      49.455   4.688  17.032  0.00  0.00    +0.000 C 
ENDBRANCH   3  15
ENDBRANCH   1   8
BRANCH   2  17
ATOM     17  N   UNL     1      44.340   5.178  10.121  0.00  0.00    +0.000 N 
ATOM     18  H   UNL     1      43.358   5.362   9.943  0.00  0.00    +0.000 HD
BRANCH  17  19
ATOM     19  C   UNL     1      44.930   4.153   9.362  0.00  0.00    +0.000 A 
ATOM     20  C   UNL     1      44.739   2.798   9.654  0.00  0.00    +0.000 A 
ATOM     21  C   UNL     1      45.418   1.801   8.939  0.00  0.00    +0.000 A 
ATOM     22  C   UNL     1      46.311   2.147   7.925  0.00  0.00    +0.000 A 
ATOM     23  C   UNL     1      46.525   3.496   7.629  0.00  0.00    +0.000 A 
ATOM     24  C   UNL     1      45.835   4.489   8.345  0.00  0.00    +0.000 A 
BRANCH  22  25
ATOM     25  C   UNL     1      47.032   1.052   7.228  0.00  0.00    +0.000 C 
ATOM     26  N   UNL     1      46.768  -0.231   7.621  0.00  0.00    +0.000 N 
ATOM     27  O   UNL     1      47.861   1.278   6.354  0.00  0.00    +0.000 OA
ATOM     28  H   UNL     1      46.288  -0.455   8.482  0.00  0.00    +0.000 HD
ATOM     29  H   UNL     1      47.350  -0.952   7.207  0.00  0.00    +0.000 HD
ENDBRANCH  22  25
ENDBRANCH  17  19
ENDBRANCH   2  17
TORSDOF 5
ENDMDL
MODEL 2
REMARK VINA RESULT:    -6.928      3.195      4.776
REMARK INTER + INTRA:          -9.575
REMARK INTER:                  -9.145
REMARK INTRA:                  -0.430
REMARK UNBOUND:                -0.622
REMARK  Name = 
REMARK  7 active torsions:
REMARK  status: ('A' for Active; 'I' for Inactive)
REMARK    1  A    between atoms: C_1  and  C_2
REMARK    2  A    between atoms: C_2  and  C_3
REMARK    3  A    between atoms: C_5  and  N_6
REMARK    4  A    between atoms: C_11  and  C_12
REMARK    5  A    between atoms: C_13  and  N_14
REMARK    6  A    between atoms: N_14  and  C_15
REMARK    7  A    between atoms: C_18  and  C_19
REMARK                            x       y       z     vdW  Elec       q    Type
REMARK                         _______ _______ _______ _____ _____    ______ ____
ROOT
ATOM      1  C   UNL     1      46.401   6.339  10.952  0.00  0.00    +0.000 C 
ATOM      2  C   UNL     1      45.076   6.156  10.832  0.00  0.00    +0.000 C 
ENDROOT
BRANCH   1   8
ATOM      3  N   UNL     1      49.944   9.329  12.027  0.00  0.00    +0.000 N 
ATOM      4  C   UNL     1      48.708   8.769  12.354  0.00  0.00    +0.000 A 
ATOM      5  N   UNL     1      48.128   9.185  13.483  0.00  0.00    +0.000 NA
ATOM      6  C   UNL     1      46.985   8.576  13.840  0.00  0.00    +0.000 A 
ATOM      7  C   UNL     1      46.363   7.624  13.071  0.00  0.00    +0.000 A 
ATOM      8  C   UNL     1      46.998   7.297  11.896  0.00  0.00    +0.000 A 
ATOM      9  N   UNL     1      48.183   7.842  11.545  0.00  0.00    +0.000 NA
ATOM     10  H   UNL     1      49.759  10.303  11.811  0.00  0.00    +0.000 HD
BRANCH   3  15
ATOM     11  C   UNL     1      53.369   7.844   9.622  0.00  0.00    +0.000 C 
ATOM     12  C   UNL     1      52.979   8.816  10.734  0.00  0.00    +0.000 C 
ATOM     13  C   UNL     1      54.186   9.588  11.258  0.00  0.00    +0.000 C 
ATOM     14  C   UNL     1      52.117   8.169  11.850  0.00  0.00    +0.000 C 
ATOM     15  C   UNL     1      50.850   8.692  11.125  0.00  0.00    +0.000 C 
ATOM     16  C   UNL     1      51.754   9.715  10.402  0.00  0.00    +0.000 C 
ENDBRANCH   3  15
ENDBRANCH   1   8
BRANCH   2  17
ATOM     17  N   UNL     1      44.422   5.259  10.025  0.00  0.00    +0.000 N 
ATOM     18  H   UNL     1      43.427   5.408   9.891  0.00  0.00    +0.000 HD
BRANCH  17  19
ATOM     19  C   UNL     1      45.003   4.217   9.284  0.00  0.00    +0.000 A 
ATOM     20  C   UNL     1      44.820   2.869   9.614  0.00  0.00    +0.000 A 
ATOM     21  C   UNL     1      45.491   1.855   8.915  0.00  0.00    +0.000 A 
ATOM     22  C   UNL     1      46.367   2.177   7.878  0.00  0.00    +0.000 A 
ATOM     23  C   UNL     1      46.573   3.519   7.544  0.00  0.00    +0.000 A 
ATOM     24  C   UNL     1      45.891   4.528   8.245  0.00  0.00    +0.000 A 
BRANCH  22  25
ATOM     25  C   UNL     1      47.081   1.067   7.199  0.00  0.00    +0.000 C 
ATOM     26  N   UNL     1      46.818  -0.207   7.620  0.00  0.00    +0.000 N 
ATOM     27  O   UNL     1      47.903   1.273   6.314  0.00  0.00    +0.000 OA
ATOM     28  H   UNL     1      46.344  -0.412   8.490  0.00  0.00    +0.000 HD
ATOM     29  H   UNL     1      47.396  -0.937   7.217  0.00  0.00    +0.000 HD
ENDBRANCH  22  25
ENDBRANCH  17  19
ENDBRANCH   2  17
TORSDOF 5
ENDMDL
MODEL 3
REMARK VINA RESULT:    -6.905      3.319      8.921
REMARK INTER + INTRA:          -9.545
REMARK INTER:                  -8.993
REMARK INTRA:                  -0.552
REMARK UNBOUND:                -0.622
REMARK  Name = 
REMARK  7 active torsions:
REMARK  status: ('A' for Active; 'I' for Inactive)
REMARK    1  A    between atoms: C_1  and  C_2
REMARK    2  A    between atoms: C_2  and  C_3
REMARK    3  A    between atoms: C_5  and  N_6
REMARK    4  A    between atoms: C_11  and  C_12
REMARK    5  A    between atoms: C_13  and  N_14
REMARK    6  A    between atoms: N_14  and  C_15
REMARK    7  A    between atoms: C_18  and  C_19
REMARK                            x       y       z     vdW  Elec       q    Type
REMARK                         _______ _______ _______ _____ _____    ______ ____
ROOT
ATOM      1  C   UNL     1      46.349   4.662  13.396  0.00  0.00    +0.000 C 
ATOM      2  C   UNL     1      46.269   4.739  14.734  0.00  0.00    +0.000 C 
ENDROOT
BRANCH   1   8
ATOM      3  N   UNL     1      44.765   2.340   9.556  0.00  0.00    +0.000 N 
ATOM      4  C   UNL     1      44.490   3.083  10.704  0.00  0.00    +0.000 A 
ATOM      5  N   UNL     1      43.206   3.333  10.978  0.00  0.00    +0.000 NA
ATOM      6  C   UNL     1      42.952   4.125  12.033  0.00  0.00    +0.000 A 
ATOM      7  C   UNL     1      43.928   4.612  12.866  0.00  0.00    +0.000 A 
ATOM      8  C   UNL     1      45.218   4.259  12.545  0.00  0.00    +0.000 A 
ATOM      9  N   UNL     1      45.509   3.521  11.452  0.00  0.00    +0.000 NA
ATOM     10  H   UNL     1      44.413   1.406   9.738  0.00  0.00    +0.000 HD
BRANCH   3  15
ATOM     11  C   UNL     1      48.278   2.472   6.842  0.00  0.00    +0.000 C 
ATOM     12  C   UNL     1      46.751   2.451   6.874  0.00  0.00    +0.000 C 
ATOM     13  C   UNL     1      46.156   2.501   5.470  0.00  0.00    +0.000 C 
ATOM     14  C   UNL     1      46.136   3.487   7.851  0.00  0.00    +0.000 C 
ATOM     15  C   UNL     1      46.044   2.369   8.922  0.00  0.00    +0.000 C 
ATOM     16  C   UNL     1      46.141   1.339   7.775  0.00  0.00    +0.000 C 
ENDBRANCH   3  15
ENDBRANCH   1   8
BRANCH   2  17
ATOM     17  N   UNL     1      47.242   5.150  15.610  0.00  0.00    +0.000 N 
ATOM     18  H   UNL     1      47.219   6.124  15.894  0.00  0.00    +0.000 HD
BRANCH  17  19
ATOM     19  C   UNL     1      48.205   4.340  16.236  0.00  0.00    +0.000 A 
ATOM     20  C   UNL     1      49.275   4.873  16.964  0.00  0.00    +0.000 A 
ATOM     21  C   UNL     1      50.273   4.043  17.495  0.00  0.00    +0.000 A 
ATOM     22  C   UNL     1      50.221   2.664  17.295  0.00  0.00    +0.000 A 
ATOM     23  C   UNL     1      49.166   2.115  16.559  0.00  0.00    +0.000 A 
ATOM     24  C   UNL     1      48.166   2.953  16.037  0.00  0.00    +0.000 A 
BRANCH  22  25
ATOM     25  C   UNL     1      51.325   1.837  17.846  0.00  0.00    +0.000 C 
ATOM     26  N   UNL     1      52.376   2.491  18.428  0.00  0.00    +0.000 N 
ATOM     27  O   UNL     1      51.323   0.615  17.758  0.00  0.00    +0.000 OA
ATOM     28  H   UNL     1      52.540   3.482  18.311  0.00  0.00    +0.000 HD
ATOM     29  H   UNL     1      53.164   1.913  18.698  0.00  0.00    +0.000 HD
ENDBRANCH  22  25
ENDBRANCH  17  19
ENDBRANCH   2  17
TORSDOF 5
ENDMDL
MODEL 4
REMARK VINA RESULT:    -6.821      2.290      3.979
REMARK INTER + INTRA:          -9.437
REMARK INTER:                  -8.882
REMARK INTRA:                  -0.555
REMARK UNBOUND:                -0.622
REMARK  Name = 
REMARK  7 active torsions:
REMARK  status: ('A' for Active; 'I' for Inactive)
REMARK    1  A    between atoms: C_1  and  C_2
REMARK    2  A    between atoms: C_2  and  C_3
REMARK    3  A    between atoms: C_5  and  N_6
REMARK    4  A    between atoms: C_11  and  C_12
REMARK    5  A    between atoms: C_13  and  N_14
REMARK    6  A    between atoms: N_14  and  C_15
REMARK    7  A    between atoms: C_18  and  C_19
REMARK                            x       y       z     vdW  Elec       q    Type
REMARK                         _______ _______ _______ _____ _____    ______ ____
ROOT
ATOM      1  C   UNL     1      46.485   4.928  12.339  0.00  0.00    +0.000 C 
ATOM      2  C   UNL     1      45.244   4.455  12.142  0.00  0.00    +0.000 C 
ENDROOT
BRANCH   1   8
ATOM      3  N   UNL     1      49.464   7.183  15.287  0.00  0.00    +0.000 N 
ATOM      4  C   UNL     1      48.520   6.178  15.077  0.00  0.00    +0.000 A 
ATOM      5  N   UNL     1      48.207   5.405  16.121  0.00  0.00    +0.000 NA
ATOM      6  C   UNL     1      47.368   4.381  15.890  0.00  0.00    +0.000 A 
ATOM      7  C   UNL     1      46.773   4.150  14.675  0.00  0.00    +0.000 A 
ATOM      8  C   UNL     1      47.105   5.028  13.670  0.00  0.00    +0.000 A 
ATOM      9  N   UNL     1      47.998   6.024  13.854  0.00  0.00    +0.000 NA
ATOM     10  H   UNL     1      49.022   7.854  15.907  0.00  0.00    +0.000 HD
BRANCH   3  15
ATOM     11  C   UNL     1      51.714   9.746  12.443  0.00  0.00    +0.000 C 
ATOM     12  C   UNL     1      51.006   9.742  13.796  0.00  0.00    +0.000 C 
ATOM     13  C   UNL     1      51.075  11.107  14.474  0.00  0.00    +0.000 C 
ATOM     14  C   UNL     1      51.429   8.565  14.714  0.00  0.00    +0.000 C 
ATOM     15  C   UNL     1      50.194   7.776  14.211  0.00  0.00    +0.000 C 
ATOM     16  C   UNL     1      49.578   9.123  13.774  0.00  0.00    +0.000 C 
ENDBRANCH   3  15
ENDBRANCH   1   8
BRANCH   2  17
ATOM     17  N   UNL     1      44.595   4.274  10.947  0.00  0.00    +0.000 N 
ATOM     18  H   UNL     1      43.634   4.595  10.896  0.00  0.00    +0.000 HD
BRANCH  17  19
ATOM     19  C   UNL     1      45.153   3.783   9.754  0.00  0.00    +0.000 A 
ATOM     20  C   UNL     1      45.261   2.414   9.484  0.00  0.00    +0.000 A 
ATOM     21  C   UNL     1      45.909   1.954   8.329  0.00  0.00    +0.000 A 
ATOM     22  C   UNL     1      46.471   2.860   7.429  0.00  0.00    +0.000 A 
ATOM     23  C   UNL     1      46.384   4.231   7.690  0.00  0.00    +0.000 A 
ATOM     24  C   UNL     1      45.726   4.684   8.845  0.00  0.00    +0.000 A 
BRANCH  22  25
ATOM     25  C   UNL     1      47.180   2.316   6.244  0.00  0.00    +0.000 C 
ATOM     26  N   UNL     1      47.035   2.983   5.058  0.00  0.00    +0.000 N 
ATOM     27  O   UNL     1      47.848   1.290   6.303  0.00  0.00    +0.000 OA
ATOM     28  H   UNL     1      46.317   3.677   4.902  0.00  0.00    +0.000 HD
ATOM     29  H   UNL     1      47.439   2.533   4.243  0.00  0.00    +0.000 HD
ENDBRANCH  22  25
ENDBRANCH  17  19
ENDBRANCH   2  17
TORSDOF 5
ENDMDL
MODEL 5
REMARK VINA RESULT:    -6.686      3.421      9.198
REMARK INTER + INTRA:          -9.262
REMARK INTER:                  -8.759
REMARK INTRA:                  -0.503
REMARK UNBOUND:                -0.622
REMARK  Name = 
REMARK  7 active torsions:
REMARK  status: ('A' for Active; 'I' for Inactive)
REMARK    1  A    between atoms: C_1  and  C_2
REMARK    2  A    between atoms: C_2  and  C_3
REMARK    3  A    between atoms: C_5  and  N_6
REMARK    4  A    between atoms: C_11  and  C_12
REMARK    5  A    between atoms: C_13  and  N_14
REMARK    6  A    between atoms: N_14  and  C_15
REMARK    7  A    between atoms: C_18  and  C_19
REMARK                            x       y       z     vdW  Elec       q    Type
REMARK                         _______ _______ _______ _____ _____    ______ ____
ROOT
ATOM      1  C   UNL     1      46.109   6.078  12.617  0.00  0.00    +0.000 C 
ATOM      2  C   UNL     1      46.741   5.571  13.687  0.00  0.00    +0.000 C 
ENDROOT
BRANCH   1   8
ATOM      3  N   UNL     1      44.764   2.704   9.540  0.00  0.00    +0.000 N 
ATOM      4  C   UNL     1      44.416   3.697  10.457  0.00  0.00    +0.000 A 
ATOM      5  N   UNL     1      43.114   3.901  10.670  0.00  0.00    +0.000 NA
ATOM      6  C   UNL     1      42.783   4.919  11.483  0.00  0.00    +0.000 A 
ATOM      7  C   UNL     1      43.706   5.688  12.147  0.00  0.00    +0.000 A 
ATOM      8  C   UNL     1      45.024   5.371  11.915  0.00  0.00    +0.000 A 
ATOM      9  N   UNL     1      45.388   4.400  11.051  0.00  0.00    +0.000 NA
ATOM     10  H   UNL     1      44.491   1.825   9.965  0.00  0.00    +0.000 HD
BRANCH   3  15
ATOM     11  C   UNL     1      48.277   2.484   6.832  0.00  0.00    +0.000 C 
ATOM     12  C   UNL     1      46.753   2.397   6.875  0.00  0.00    +0.000 C 
ATOM     13  C   UNL     1      46.162   2.151   5.491  0.00  0.00    +0.000 C 
ATOM     14  C   UNL     1      46.086   3.570   7.642  0.00  0.00    +0.000 C 
ATOM     15  C   UNL     1      46.044   2.673   8.905  0.00  0.00    +0.000 C 
ATOM     16  C   UNL     1      46.193   1.449   7.975  0.00  0.00    +0.000 C 
ENDBRANCH   3  15
ENDBRANCH   1   8
BRANCH   2  17
ATOM     17  N   UNL     1      47.723   6.164  14.440  0.00  0.00    +0.000 N 
ATOM     18  H   UNL     1      48.108   7.033  14.085  0.00  0.00    +0.000 HD
BRANCH  17  19
ATOM     19  C   UNL     1      48.181   5.747  15.701  0.00  0.00    +0.000 A 
ATOM     20  C   UNL     1      47.783   4.539  16.283  0.00  0.00    +0.000 A 
ATOM     21  C   UNL     1      48.181   4.196  17.583  0.00  0.00    +0.000 A 
ATOM     22  C   UNL     1      48.976   5.066  18.328  0.00  0.00    +0.000 A 
ATOM     23  C   UNL     1      49.372   6.284  17.768  0.00  0.00    +0.000 A 
ATOM     24  C   UNL     1      48.977   6.617  16.461  0.00  0.00    +0.000 A 
BRANCH  22  25
ATOM     25  C   UNL     1      49.334   4.670  19.713  0.00  0.00    +0.000 C 
ATOM     26  N   UNL     1      48.503   3.795  20.357  0.00  0.00    +0.000 N 
ATOM     27  O   UNL     1      50.317   5.130  20.283  0.00  0.00    +0.000 OA
ATOM     28  H   UNL     1      47.571   3.580  20.030  0.00  0.00    +0.000 HD
ATOM     29  H   UNL     1      48.708   3.625  21.336  0.00  0.00    +0.000 HD
ENDBRANCH  22  25
ENDBRANCH  17  19
ENDBRANCH   2  17
TORSDOF 5
ENDMDL
MODEL 6
REMARK VINA RESULT:    -6.511      3.531      8.526
REMARK INTER + INTRA:          -9.036
REMARK INTER:                  -9.060
REMARK INTRA:                   0.024
REMARK UNBOUND:                -0.622
REMARK  Name = 
REMARK  7 active torsions:
REMARK  status: ('A' for Active; 'I' for Inactive)
REMARK    1  A    between atoms: C_1  and  C_2
REMARK    2  A    between atoms: C_2  and  C_3
REMARK    3  A    between atoms: C_5  and  N_6
REMARK    4  A    between atoms: C_11  and  C_12
REMARK    5  A    between atoms: C_13  and  N_14
REMARK    6  A    between atoms: N_14  and  C_15
REMARK    7  A    between atoms: C_18  and  C_19
REMARK                            x       y       z     vdW  Elec       q    Type
REMARK                         _______ _______ _______ _____ _____    ______ ____
ROOT
ATOM      1  C   UNL     1      47.030   4.428  14.156  0.00  0.00    +0.000 C 
ATOM      2  C   UNL     1      46.772   4.477  15.473  0.00  0.00    +0.000 C 
ENDROOT
BRANCH   1   8
ATOM      3  N   UNL     1      44.265   5.419  10.411  0.00  0.00    +0.000 N 
ATOM      4  C   UNL     1      45.127   5.864  11.415  0.00  0.00    +0.000 A 
ATOM      5  N   UNL     1      45.381   7.174  11.466  0.00  0.00    +0.000 NA
ATOM      6  C   UNL     1      46.282   7.584  12.375  0.00  0.00    +0.000 A 
ATOM      7  C   UNL     1      46.877   6.743  13.283  0.00  0.00    +0.000 A 
ATOM      8  C   UNL     1      46.513   5.419  13.199  0.00  0.00    +0.000 A 
ATOM      9  N   UNL     1      45.664   4.967  12.251  0.00  0.00    +0.000 NA
ATOM     10  H   UNL     1      43.351   5.793  10.644  0.00  0.00    +0.000 HD
BRANCH   3  15
ATOM     11  C   UNL     1      44.863   1.444   8.525  0.00  0.00    +0.000 C 
ATOM     12  C   UNL     1      45.349   2.891   8.519  0.00  0.00    +0.000 C 
ATOM     13  C   UNL     1      46.469   3.106   7.505  0.00  0.00    +0.000 C 
ATOM     14  C   UNL     1      45.670   3.445   9.932  0.00  0.00    +0.000 C 
ATOM     15  C   UNL     1      44.247   4.059   9.975  0.00  0.00    +0.000 C 
ATOM     16  C   UNL     1      44.214   3.952   8.434  0.00  0.00    +0.000 C 
ENDBRANCH   3  15
ENDBRANCH   1   8
BRANCH   2  17
ATOM     17  N   UNL     1      47.242   3.638  16.452  0.00  0.00    +0.000 N 
ATOM     18  H   UNL     1      46.553   3.080  16.945  0.00  0.00    +0.000 HD
BRANCH  17  19
ATOM     19  C   UNL     1      48.588   3.395  16.774  0.00  0.00    +0.000 A 
ATOM     20  C   UNL     1      49.172   2.129  16.651  0.00  0.00    +0.000 A 
ATOM     21  C   UNL     1      50.490   1.896  17.072  0.00  0.00    +0.000 A 
ATOM     22  C   UNL     1      51.241   2.927  17.635  0.00  0.00    +0.000 A 
ATOM     23  C   UNL     1      50.668   4.195  17.779  0.00  0.00    +0.000 A 
ATOM     24  C   UNL     1      49.351   4.422  17.347  0.00  0.00    +0.000 A 
BRANCH  22  25
ATOM     25  C   UNL     1      52.616   2.615  18.100  0.00  0.00    +0.000 C 
ATOM     26  N   UNL     1      52.875   1.331  18.492  0.00  0.00    +0.000 N 
ATOM     27  O   UNL     1      53.486   3.475  18.168  0.00  0.00    +0.000 OA
ATOM     28  H   UNL     1      52.147   0.656  18.684  0.00  0.00    +0.000 HD
ATOM     29  H   UNL     1      53.787   1.168  18.906  0.00  0.00    +0.000 HD
ENDBRANCH  22  25
ENDBRANCH  17  19
ENDBRANCH   2  17
TORSDOF 5
ENDMDL
MODEL 7
REMARK VINA RESULT:    -6.317      3.889      8.046
REMARK INTER + INTRA:          -8.786
REMARK INTER:                  -8.118
REMARK INTRA:                  -0.667
REMARK UNBOUND:                -0.622
REMARK  Name = 
REMARK  7 active torsions:
REMARK  status: ('A' for Active; 'I' for Inactive)
REMARK    1  A    between atoms: C_1  and  C_2
REMARK    2  A    between atoms: C_2  and  C_3
REMARK    3  A    between atoms: C_5  and  N_6
REMARK    4  A    between atoms: C_11  and  C_12
REMARK    5  A    between atoms: C_13  and  N_14
REMARK    6  A    between atoms: N_14  and  C_15
REMARK    7  A    between atoms: C_18  and  C_19
REMARK                            x       y       z     vdW  Elec       q    Type
REMARK                         _______ _______ _______ _____ _____    ______ ____
ROOT
ATOM      1  C   UNL     1      49.700   7.011  15.176  0.00  0.00    +0.000 C 
ATOM      2  C   UNL     1      48.943   6.699  16.240  0.00  0.00    +0.000 C 
ENDROOT
BRANCH   1   8
ATOM      3  N   UNL     1      46.350   7.282  11.806  0.00  0.00    +0.000 N 
ATOM      4  C   UNL     1      47.500   7.807  12.397  0.00  0.00    +0.000 A 
ATOM      5  N   UNL     1      48.009   8.920  11.861  0.00  0.00    +0.000 NA
ATOM      6  C   UNL     1      49.167   9.369  12.375  0.00  0.00    +0.000 A 
ATOM      7  C   UNL     1      49.790   8.790  13.452  0.00  0.00    +0.000 A 
ATOM      8  C   UNL     1      49.167   7.683  13.980  0.00  0.00    +0.000 A 
ATOM      9  N   UNL     1      48.041   7.169  13.441  0.00  0.00    +0.000 NA
ATOM     10  H   UNL     1      45.611   7.952  11.994  0.00  0.00    +0.000 HD
BRANCH   3  15
ATOM     11  C   UNL     1      44.333   3.346  12.201  0.00  0.00    +0.000 C 
ATOM     12  C   UNL     1      44.086   4.833  11.952  0.00  0.00    +0.000 C 
ATOM     13  C   UNL     1      42.604   5.133  11.746  0.00  0.00    +0.000 C 
ATOM     14  C   UNL     1      45.005   5.440  10.859  0.00  0.00    +0.000 C 
ATOM     15  C   UNL     1      45.962   5.919  11.981  0.00  0.00    +0.000 C 
ATOM     16  C   UNL     1      44.783   5.781  12.970  0.00  0.00    +0.000 C 
ENDBRANCH   3  15
ENDBRANCH   1   8
BRANCH   2  17
ATOM     17  N   UNL     1      49.348   6.122  17.417  0.00  0.00    +0.000 N 
ATOM     18  H   UNL     1      49.033   6.564  18.274  0.00  0.00    +0.000 HD
BRANCH  17  19
ATOM     19  C   UNL     1      50.067   4.923  17.561  0.00  0.00    +0.000 A 
ATOM     20  C   UNL     1      51.452   4.899  17.761  0.00  0.00    +0.000 A 
ATOM     21  C   UNL     1      52.156   3.687  17.805  0.00  0.00    +0.000 A 
ATOM     22  C   UNL     1      51.483   2.477  17.636  0.00  0.00    +0.000 A 
ATOM     23  C   UNL     1      50.102   2.483  17.421  0.00  0.00    +0.000 A 
ATOM     24  C   UNL     1      49.403   3.701  17.387  0.00  0.00    +0.000 A 
BRANCH  22  25
ATOM     25  C   UNL     1      52.283   1.226  17.651  0.00  0.00    +0.000 C 
ATOM     26  N   UNL     1      51.692   0.102  18.158  0.00  0.00    +0.000 N 
ATOM     27  O   UNL     1      53.444   1.196  17.259  0.00  0.00    +0.000 OA
ATOM     28  H   UNL     1      50.843   0.127  18.708  0.00  0.00    +0.000 HD
ATOM     29  H   UNL     1      52.292  -0.710  18.258  0.00  0.00    +0.000 HD
ENDBRANCH  22  25
ENDBRANCH  17  19
ENDBRANCH   2  17
TORSDOF 5
ENDMDL
MODEL 8
REMARK VINA RESULT:    -6.227      3.705      8.417
REMARK INTER + INTRA:          -8.668
REMARK INTER:                  -8.066
REMARK INTRA:                  -0.602
REMARK UNBOUND:                -0.622
REMARK  Name = 
REMARK  7 active torsions:
REMARK  status: ('A' for Active; 'I' for Inactive)
REMARK    1  A    between atoms: C_1  and  C_2
REMARK    2  A    between atoms: C_2  and  C_3
REMARK    3  A    between atoms: C_5  and  N_6
REMARK    4  A    between atoms: C_11  and  C_12
REMARK    5  A    between atoms: C_13  and  N_14
REMARK    6  A    between atoms: N_14  and  C_15
REMARK    7  A    between atoms: C_18  and  C_19
REMARK                            x       y       z     vdW  Elec       q    Type
REMARK                         _______ _______ _______ _____ _____    ______ ____
ROOT
ATOM      1  C   UNL     1      46.213   5.348  13.231  0.00  0.00    +0.000 C 
ATOM      2  C   UNL     1      46.584   6.637  13.290  0.00  0.00    +0.000 C 
ENDROOT
BRANCH   1   8
ATOM      3  N   UNL     1      44.677   2.714   9.577  0.00  0.00    +0.000 N 
ATOM      4  C   UNL     1      44.387   3.546  10.658  0.00  0.00    +0.000 A 
ATOM      5  N   UNL     1      43.100   3.810  10.898  0.00  0.00    +0.000 NA
ATOM      6  C   UNL     1      42.832   4.685  11.882  0.00  0.00    +0.000 A 
ATOM      7  C   UNL     1      43.798   5.243  12.682  0.00  0.00    +0.000 A 
ATOM      8  C   UNL     1      45.092   4.871  12.404  0.00  0.00    +0.000 A 
ATOM      9  N   UNL     1      45.397   4.048  11.378  0.00  0.00    +0.000 NA
ATOM     10  H   UNL     1      44.328   1.795   9.831  0.00  0.00    +0.000 HD
BRANCH   3  15
ATOM     11  C   UNL     1      48.218   2.595   6.899  0.00  0.00    +0.000 C 
ATOM     12  C   UNL     1      46.692   2.535   6.920  0.00  0.00    +0.000 C 
ATOM     13  C   UNL     1      46.113   2.387   5.516  0.00  0.00    +0.000 C 
ATOM     14  C   UNL     1      46.038   3.670   7.750  0.00  0.00    +0.000 C 
ATOM     15  C   UNL     1      45.963   2.697   8.955  0.00  0.00    +0.000 C 
ATOM     16  C   UNL     1      46.101   1.531   7.952  0.00  0.00    +0.000 C 
ENDBRANCH   3  15
ENDBRANCH   1   8
BRANCH   2  17
ATOM     17  N   UNL     1      47.637   7.176  13.984  0.00  0.00    +0.000 N 
ATOM     18  H   UNL     1      47.520   7.274  14.987  0.00  0.00    +0.000 HD
BRANCH  17  19
ATOM     19  C   UNL     1      48.900   7.512  13.467  0.00  0.00    +0.000 A 
ATOM     20  C   UNL     1      49.918   8.049  14.262  0.00  0.00    +0.000 A 
ATOM     21  C   UNL     1      51.133   8.464  13.700  0.00  0.00    +0.000 A 
ATOM     22  C   UNL     1      51.344   8.360  12.325  0.00  0.00    +0.000 A 
ATOM     23  C   UNL     1      50.332   7.839  11.512  0.00  0.00    +0.000 A 
ATOM     24  C   UNL     1      49.121   7.417  12.085  0.00  0.00    +0.000 A 
BRANCH  22  25
ATOM     25  C   UNL     1      52.633   8.852  11.777  0.00  0.00    +0.000 C 
ATOM     26  N   UNL     1      53.455   7.939  11.176  0.00  0.00    +0.000 N 
ATOM     27  O   UNL     1      52.976  10.023  11.883  0.00  0.00    +0.000 OA
ATOM     28  H   UNL     1      53.335   6.940  11.276  0.00  0.00    +0.000 HD
ATOM     29  H   UNL     1      54.374   8.276  10.908  0.00  0.00    +0.000 HD
ENDBRANCH  22  25
ENDBRANCH  17  19
ENDBRANCH   2  17
TORSDOF 5
ENDMDL
MODEL 9
REMARK VINA RESULT:    -6.063      2.682      3.571
REMARK INTER + INTRA:          -8.456
REMARK INTER:                  -7.820
REMARK INTRA:                  -0.637
REMARK UNBOUND:                -0.622
REMARK  Name = 
REMARK  7 active torsions:
REMARK  status: ('A' for Active; 'I' for Inactive)
REMARK    1  A    between atoms: C_1  and  C_2
REMARK    2  A    between atoms: C_2  and  C_3
REMARK    3  A    between atoms: C_5  and  N_6
REMARK    4  A    between atoms: C_11  and  C_12
REMARK    5  A    between atoms: C_13  and  N_14
REMARK    6  A    between atoms: N_14  and  C_15
REMARK    7  A    between atoms: C_18  and  C_19
REMARK                            x       y       z     vdW  Elec       q    Type
REMARK                         _______ _______ _______ _____ _____    ______ ____
ROOT
ATOM      1  C   UNL     1      48.095   7.533  13.085  0.00  0.00    +0.000 C 
ATOM      2  C   UNL     1      46.970   8.264  13.035  0.00  0.00    +0.000 C 
ENDROOT
BRANCH   1   8
ATOM      3  N   UNL     1      50.969   6.118  16.604  0.00  0.00    +0.000 N 
ATOM      4  C   UNL     1      50.607   7.090  15.671  0.00  0.00    +0.000 A 
ATOM      5  N   UNL     1      51.335   8.209  15.641  0.00  0.00    +0.000 NA
ATOM      6  C   UNL     1      50.927   9.179  14.806  0.00  0.00    +0.000 A 
ATOM      7  C   UNL     1      49.866   9.039  13.946  0.00  0.00    +0.000 A 
ATOM      8  C   UNL     1      49.208   7.833  14.001  0.00  0.00    +0.000 A 
ATOM      9  N   UNL     1      49.552   6.866  14.878  0.00  0.00    +0.000 NA
ATOM     10  H   UNL     1      51.870   5.763  16.301  0.00  0.00    +0.000 HD
BRANCH   3  15
ATOM     11  C   UNL     1      48.310   3.283  18.752  0.00  0.00    +0.000 C 
ATOM     12  C   UNL     1      49.296   4.432  18.951  0.00  0.00    +0.000 C 
ATOM     13  C   UNL     1      49.460   4.786  20.426  0.00  0.00    +0.000 C 
ATOM     14  C   UNL     1      49.014   5.656  18.041  0.00  0.00    +0.000 C 
ATOM     15  C   UNL     1      50.059   5.106  17.037  0.00  0.00    +0.000 C 
ATOM     16  C   UNL     1      50.644   4.263  18.192  0.00  0.00    +0.000 C 
ENDBRANCH   3  15
ENDBRANCH   1   8
BRANCH   2  17
ATOM     17  N   UNL     1      45.860   8.044  12.259  0.00  0.00    +0.000 N 
ATOM     18  H   UNL     1      45.440   8.857  11.821  0.00  0.00    +0.000 HD
BRANCH  17  19
ATOM     19  C   UNL     1      45.302   6.798  11.926  0.00  0.00    +0.000 A 
ATOM     20  C   UNL     1      44.532   6.055  12.828  0.00  0.00    +0.000 A 
ATOM     21  C   UNL     1      44.070   4.772  12.500  0.00  0.00    +0.000 A 
ATOM     22  C   UNL     1      44.383   4.207  11.264  0.00  0.00    +0.000 A 
ATOM     23  C   UNL     1      45.163   4.929  10.356  0.00  0.00    +0.000 A 
ATOM     24  C   UNL     1      45.614   6.217  10.689  0.00  0.00    +0.000 A 
BRANCH  22  25
ATOM     25  C   UNL     1      43.901   2.830  10.985  0.00  0.00    +0.000 C 
ATOM     26  N   UNL     1      44.480   2.156   9.945  0.00  0.00    +0.000 N 
ATOM     27  O   UNL     1      42.997   2.318  11.633  0.00  0.00    +0.000 OA
ATOM     28  H   UNL     1      45.045   2.611   9.241  0.00  0.00    +0.000 HD
ATOM     29  H   UNL     1      44.062   1.263   9.706  0.00  0.00    +0.000 HD
ENDBRANCH  22  25
ENDBRANCH  17  19
ENDBRANCH   2  17
TORSDOF 5
ENDMDL
