MODEL 1
REMARK VINA RESULT:    -9.116      0.000      0.000
REMARK INTER + INTRA:         -12.550
REMARK INTER:                 -11.781
REMARK INTRA:                  -0.769
REMARK UNBOUND:                -0.769
REMARK  Name = 
REMARK  5 active torsions:
REMARK  status: ('A' for Active; 'I' for Inactive)
REMARK    1  A    between atoms: C_2  and  C_4
REMARK    2  A    between atoms: N_8  and  C_9
REMARK    3  A    between atoms: C_9  and  C_10
REMARK    4  A    between atoms: C_10  and  C_11
REMARK    5  A    between atoms: C_15  and  C_16
REMARK                            x       y       z     vdW  Elec       q    Type
REMARK                         _______ _______ _______ _____ _____    ______ ____
ROOT
ATOM      1  C   UNL     1      43.079   4.494  11.027  0.00  0.00    +0.000 C 
ENDROOT
BRANCH   1   6
ATOM      2  C   UNL     1      46.366   2.341   7.752  0.00  0.00    +0.000 A 
ATOM      3  C   UNL     1      45.561   1.795   8.744  0.00  0.00    +0.000 A 
ATOM      4  C   UNL     1      44.721   2.636   9.474  0.00  0.00    +0.000 A 
ATOM      5  C   UNL     1      44.701   4.006   9.215  0.00  0.00    +0.000 A 
ATOM      6  N   UNL     1      43.890   4.882   9.894  0.00  0.00    +0.000 N 
ATOM      7  N   UNL     1      45.480   4.544   8.257  0.00  0.00    +0.000 NA
ATOM      8  C   UNL     1      46.295   3.711   7.552  0.00  0.00    +0.000 A 
ATOM      9  H   UNL     1      44.054   5.856   9.659  0.00  0.00    +0.000 HD
BRANCH   2  11
ATOM     10  N   UNL     1      48.331   2.191   6.322  0.00  0.00    +0.000 N 
ATOM     11  C   UNL     1      47.308   1.532   6.949  0.00  0.00    +0.000 C 
ATOM     12  O   UNL     1      47.190   0.318   6.859  0.00  0.00    +0.000 OA
ATOM     13  H   UNL     1      49.006   1.617   5.832  0.00  0.00    +0.000 HD
ATOM     14  H   UNL     1      48.593   3.141   6.539  0.00  0.00    +0.000 HD
ENDBRANCH   2  11
ENDBRANCH   1   6
BRANCH   1  15
ATOM     15  C   UNL     1      43.171   5.501  12.176  0.00  0.00    +0.000 C 
BRANCH  15  16
ATOM     16  C   UNL     1      44.595   5.608  12.663  0.00  0.00    +0.000 A 
ATOM     17  C   UNL     1      45.141   4.635  13.488  0.00  0.00    +0.000 A 
ATOM     18  N   UNL     1      46.423   4.639  13.905  0.00  0.00    +0.000 NA
ATOM     19  C   UNL     1      47.198   5.669  13.484  0.00  0.00    +0.000 A 
ATOM     20  C   UNL     1      46.776   6.717  12.661  0.00  0.00    +0.000 A 
ATOM     21  C   UNL     1      45.434   6.654  12.251  0.00  0.00    +0.000 A 
BRANCH  20  22
ATOM     22  C   UNL     1      47.683   7.817  12.257  0.00  0.00    +0.000 A 
ATOM     23  C   UNL     1      47.241   9.155  12.223  0.00  0.00    +0.000 A 
ATOM     24  C   UNL     1      48.090  10.201  11.847  0.00  0.00    +0.000 A 
ATOM     25  C   UNL     1      49.404   9.933  11.480  0.00  0.00    +0.000 A 
ATOM     26  C   UNL     1      49.862   8.620  11.499  0.00  0.00    +0.000 A 
ATOM     27 CL   UNL     1      51.486   8.279  11.035  0.00  0.00    +0.000 Cl
ATOM     28  C   UNL     1      49.019   7.575  11.886  0.00  0.00    +0.000 A 
ENDBRANCH  20  22
ENDBRANCH  15  16
ENDBRANCH   1  15
TORSDOF 5
ENDMDL
MODEL 2
REMARK VINA RESULT:    -8.509      2.623      4.047
REMARK INTER + INTRA:         -11.766
REMARK INTER:                 -10.934
REMARK INTRA:                  -0.832
REMARK UNBOUND:                -0.769
REMARK  Name = 
REMARK  5 active torsions:
REMARK  status: ('A' for Active; 'I' for Inactive)
REMARK    1  A    between atoms: C_2  and  C_4
REMARK    2  A    between atoms: N_8  and  C_9
REMARK    3  A    between atoms: C_9  and  C_10
REMARK    4  A    between atoms: C_10  and  C_11
REMARK    5  A    between atoms: C_15  and  C_16
REMARK                            x       y       z     vdW  Elec       q    Type
REMARK                         _______ _______ _______ _____ _____    ______ ____
ROOT
ATOM      1  C   UNL     1      43.381   5.102  10.685  0.00  0.00    +0.000 C 
ENDROOT
BRANCH   1   6
ATOM      2  C   UNL     1      46.587   2.678   7.520  0.00  0.00    +0.000 A 
ATOM      3  C   UNL     1      46.311   4.028   7.697  0.00  0.00    +0.000 A 
ATOM      4  C   UNL     1      45.396   4.409   8.680  0.00  0.00    +0.000 A 
ATOM      5  C   UNL     1      44.763   3.445   9.462  0.00  0.00    +0.000 A 
ATOM      6  N   UNL     1      43.861   3.759  10.449  0.00  0.00    +0.000 N 
ATOM      7  N   UNL     1      45.023   2.134   9.295  0.00  0.00    +0.000 NA
ATOM      8  C   UNL     1      45.919   1.776   8.333  0.00  0.00    +0.000 A 
ATOM      9  H   UNL     1      43.416   2.948  10.869  0.00  0.00    +0.000 HD
BRANCH   2  11
ATOM     10  N   UNL     1      47.804   3.014   5.438  0.00  0.00    +0.000 N 
ATOM     11  C   UNL     1      47.519   2.180   6.485  0.00  0.00    +0.000 C 
ATOM     12  O   UNL     1      48.030   1.072   6.568  0.00  0.00    +0.000 OA
ATOM     13  H   UNL     1      48.495   2.686   4.775  0.00  0.00    +0.000 HD
ATOM     14  H   UNL     1      47.585   3.999   5.438  0.00  0.00    +0.000 HD
ENDBRANCH   2  11
ENDBRANCH   1   6
BRANCH   1  15
ATOM     15  C   UNL     1      43.564   5.534  12.142  0.00  0.00    +0.000 C 
BRANCH  15  16
ATOM     16  C   UNL     1      45.031   5.672  12.466  0.00  0.00    +0.000 A 
ATOM     17  C   UNL     1      45.871   6.427  11.659  0.00  0.00    +0.000 A 
ATOM     18  N   UNL     1      47.174   6.642  11.928  0.00  0.00    +0.000 NA
ATOM     19  C   UNL     1      47.667   6.072  13.054  0.00  0.00    +0.000 A 
ATOM     20  C   UNL     1      46.937   5.283  13.949  0.00  0.00    +0.000 A 
ATOM     21  C   UNL     1      45.584   5.101  13.622  0.00  0.00    +0.000 A 
BRANCH  20  22
ATOM     22  C   UNL     1      47.555   4.680  15.153  0.00  0.00    +0.000 A 
ATOM     23  C   UNL     1      47.582   3.283  15.341  0.00  0.00    +0.000 A 
ATOM     24  C   UNL     1      48.166   2.703  16.472  0.00  0.00    +0.000 A 
ATOM     25  C   UNL     1      48.729   3.509  17.455  0.00  0.00    +0.000 A 
ATOM     26  C   UNL     1      48.709   4.891  17.297  0.00  0.00    +0.000 A 
ATOM     27 CL   UNL     1      49.394   5.897  18.515  0.00  0.00    +0.000 Cl
ATOM     28  C   UNL     1      48.137   5.471  16.161  0.00  0.00    +0.000 A 
ENDBRANCH  20  22
ENDBRANCH  15  16
ENDBRANCH   1  15
TORSDOF 5
ENDMDL
MODEL 3
REMARK VINA RESULT:    -8.441      3.792      7.309
REMARK INTER + INTRA:         -11.678
REMARK INTER:                 -11.073
REMARK INTRA:                  -0.605
REMARK UNBOUND:                -0.769
REMARK  Name = 
REMARK  5 active torsions:
REMARK  status: ('A' for Active; 'I' for Inactive)
REMARK    1  A    between atoms: C_2  and  C_4
REMARK    2  A    between atoms: N_8  and  C_9
REMARK    3  A    between atoms: C_9  and  C_10
REMARK    4  A    between atoms: C_10  and  C_11
REMARK    5  A    between atoms: C_15  and  C_16
REMARK                            x       y       z     vdW  Elec       q    Type
REMARK                         _______ _______ _______ _____ _____    ______ ____
ROOT
ATOM      1  C   UNL     1      47.418   7.131  11.691  0.00  0.00    +0.000 C 
ENDROOT
BRANCH   1   6
ATOM      2  C   UNL     1      47.671   4.314  15.954  0.00  0.00    +0.000 A 
ATOM      3  C   UNL     1      47.088   4.067  14.718  0.00  0.00    +0.000 A 
ATOM      4  C   UNL     1      47.209   5.021  13.708  0.00  0.00    +0.000 A 
ATOM      5  C   UNL     1      47.897   6.210  13.944  0.00  0.00    +0.000 A 
ATOM      6  N   UNL     1      48.056   7.183  12.987  0.00  0.00    +0.000 N 
ATOM      7  N   UNL     1      48.463   6.460  15.140  0.00  0.00    +0.000 NA
ATOM      8  C   UNL     1      48.338   5.519  16.117  0.00  0.00    +0.000 A 
ATOM      9  H   UNL     1      48.498   8.029  13.334  0.00  0.00    +0.000 HD
BRANCH   2  11
ATOM     10  N   UNL     1      48.724   3.059  17.754  0.00  0.00    +0.000 N 
ATOM     11  C   UNL     1      47.569   3.375  17.091  0.00  0.00    +0.000 C 
ATOM     12  O   UNL     1      46.494   2.908  17.439  0.00  0.00    +0.000 OA
ATOM     13  H   UNL     1      48.629   2.469  18.571  0.00  0.00    +0.000 HD
ATOM     14  H   UNL     1      49.584   3.576  17.647  0.00  0.00    +0.000 HD
ENDBRANCH   2  11
ENDBRANCH   1   6
BRANCH   1  15
ATOM     15  C   UNL     1      45.899   7.298  11.787  0.00  0.00    +0.000 C 
BRANCH  15  16
ATOM     16  C   UNL     1      45.203   6.150  11.099  0.00  0.00    +0.000 A 
ATOM     17  C   UNL     1      43.875   5.853  11.377  0.00  0.00    +0.000 A 
ATOM     18  N   UNL     1      43.178   4.883  10.751  0.00  0.00    +0.000 NA
ATOM     19  C   UNL     1      43.839   4.169   9.807  0.00  0.00    +0.000 A 
ATOM     20  C   UNL     1      45.174   4.356   9.436  0.00  0.00    +0.000 A 
ATOM     21  C   UNL     1      45.846   5.386  10.114  0.00  0.00    +0.000 A 
BRANCH  20  22
ATOM     22  C   UNL     1      45.829   3.521   8.402  0.00  0.00    +0.000 A 
ATOM     23  C   UNL     1      46.378   4.095   7.238  0.00  0.00    +0.000 A 
ATOM     24  C   UNL     1      47.002   3.316   6.257  0.00  0.00    +0.000 A 
ATOM     25  C   UNL     1      47.080   1.937   6.410  0.00  0.00    +0.000 A 
ATOM     26  C   UNL     1      46.540   1.345   7.547  0.00  0.00    +0.000 A 
ATOM     27 CL   UNL     1      46.623  -0.364   7.738  0.00  0.00    +0.000 Cl
ATOM     28  C   UNL     1      45.927   2.123   8.533  0.00  0.00    +0.000 A 
ENDBRANCH  20  22
ENDBRANCH  15  16
ENDBRANCH   1  15
TORSDOF 5
ENDMDL
MODEL 4
REMARK VINA RESULT:    -7.662      3.792      6.941
REMARK INTER + INTRA:         -10.671
REMARK INTER:                  -9.838
REMARK INTRA:                  -0.832
REMARK UNBOUND:                -0.769
REMARK  Name = 
REMARK  5 active torsions:
REMARK  status: ('A' for Active; 'I' for Inactive)
REMARK    1  A    between atoms: C_2  and  C_4
REMARK    2  A    between atoms: N_8  and  C_9
REMARK    3  A    between atoms: C_9  and  C_10
REMARK    4  A    between atoms: C_10  and  C_11
REMARK    5  A    between atoms: C_15  and  C_16
REMARK                            x       y       z     vdW  Elec       q    Type
REMARK                         _______ _______ _______ _____ _____    ______ ____
ROOT
ATOM      1  C   UNL     1      45.004   7.395  12.722  0.00  0.00    +0.000 C 
ENDROOT
BRANCH   1   6
ATOM      2  C   UNL     1      49.835   8.577  11.525  0.00  0.00    +0.000 A 
ATOM      3  C   UNL     1      49.145   7.372  11.493  0.00  0.00    +0.000 A 
ATOM      4  C   UNL     1      47.796   7.353  11.849  0.00  0.00    +0.000 A 
ATOM      5  C   UNL     1      47.158   8.528  12.242  0.00  0.00    +0.000 A 
ATOM      6  N   UNL     1      45.831   8.574  12.596  0.00  0.00    +0.000 N 
ATOM      7  N   UNL     1      47.819   9.701  12.279  0.00  0.00    +0.000 NA
ATOM      8  C   UNL     1      49.135   9.704  11.928  0.00  0.00    +0.000 A 
ATOM      9  H   UNL     1      45.533   9.480  12.946  0.00  0.00    +0.000 HD
BRANCH   2  11
ATOM     10  N   UNL     1      52.042   7.566  11.341  0.00  0.00    +0.000 N 
ATOM     11  C   UNL     1      51.272   8.687  11.193  0.00  0.00    +0.000 C 
ATOM     12  O   UNL     1      51.754   9.735  10.785  0.00  0.00    +0.000 OA
ATOM     13  H   UNL     1      53.008   7.638  11.046  0.00  0.00    +0.000 HD
ATOM     14  H   UNL     1      51.657   6.641  11.461  0.00  0.00    +0.000 HD
ENDBRANCH   2  11
ENDBRANCH   1   6
BRANCH   1  15
ATOM     15  C   UNL     1      44.148   7.152  11.477  0.00  0.00    +0.000 C 
BRANCH  15  16
ATOM     16  C   UNL     1      44.103   5.679  11.153  0.00  0.00    +0.000 A 
ATOM     17  C   UNL     1      43.236   4.828  11.825  0.00  0.00    +0.000 A 
ATOM     18  N   UNL     1      43.101   3.518  11.539  0.00  0.00    +0.000 NA
ATOM     19  C   UNL     1      43.874   3.030  10.538  0.00  0.00    +0.000 A 
ATOM     20  C   UNL     1      44.793   3.770   9.788  0.00  0.00    +0.000 A 
ATOM     21  C   UNL     1      44.882   5.131  10.124  0.00  0.00    +0.000 A 
BRANCH  20  22
ATOM     22  C   UNL     1      45.613   3.156   8.718  0.00  0.00    +0.000 A 
ATOM     23  C   UNL     1      46.257   3.947   7.745  0.00  0.00    +0.000 A 
ATOM     24  C   UNL     1      47.037   3.379   6.732  0.00  0.00    +0.000 A 
ATOM     25  C   UNL     1      47.183   1.998   6.659  0.00  0.00    +0.000 A 
ATOM     26  C   UNL     1      46.553   1.195   7.603  0.00  0.00    +0.000 A 
ATOM     27 CL   UNL     1      46.720  -0.517   7.512  0.00  0.00    +0.000 Cl
ATOM     28  C   UNL     1      45.783   1.762   8.622  0.00  0.00    +0.000 A 
ENDBRANCH  20  22
ENDBRANCH  15  16
ENDBRANCH   1  15
TORSDOF 5
ENDMDL
MODEL 5
REMARK VINA RESULT:    -7.501      3.985      7.704
REMARK INTER + INTRA:         -10.464
REMARK INTER:                 -10.062
REMARK INTRA:                  -0.402
REMARK UNBOUND:                -0.769
REMARK  Name = 
REMARK  5 active torsions:
REMARK  status: ('A' for Active; 'I' for Inactive)
REMARK    1  A    between atoms: C_2  and  C_4
REMARK    2  A    between atoms: N_8  and  C_9
REMARK    3  A    between atoms: C_9  and  C_10
REMARK    4  A    between atoms: C_10  and  C_11
REMARK    5  A    between atoms: C_15  and  C_16
REMARK                            x       y       z     vdW  Elec       q    Type
REMARK                         _______ _______ _______ _____ _____    ______ ____
ROOT
ATOM      1  C   UNL     1      47.259   6.715  12.595  0.00  0.00    +0.000 C 
ENDROOT
BRANCH   1   6
ATOM      2  C   UNL     1      48.398   4.437  17.032  0.00  0.00    +0.000 A 
ATOM      3  C   UNL     1      48.702   5.700  16.538  0.00  0.00    +0.000 A 
ATOM      4  C   UNL     1      48.219   6.071  15.283  0.00  0.00    +0.000 A 
ATOM      5  C   UNL     1      47.453   5.180  14.534  0.00  0.00    +0.000 A 
ATOM      6  N   UNL     1      46.943   5.491  13.296  0.00  0.00    +0.000 N 
ATOM      7  N   UNL     1      47.156   3.953  15.003  0.00  0.00    +0.000 NA
ATOM      8  C   UNL     1      47.632   3.604  16.230  0.00  0.00    +0.000 A 
ATOM      9  H   UNL     1      46.486   4.710  12.835  0.00  0.00    +0.000 HD
BRANCH   2  11
ATOM     10  N   UNL     1      49.783   2.911  18.327  0.00  0.00    +0.000 N 
ATOM     11  C   UNL     1      48.890   3.948  18.337  0.00  0.00    +0.000 C 
ATOM     12  O   UNL     1      48.526   4.458  19.388  0.00  0.00    +0.000 OA
ATOM     13  H   UNL     1      50.162   2.632  19.223  0.00  0.00    +0.000 HD
ATOM     14  H   UNL     1      50.271   2.608  17.497  0.00  0.00    +0.000 HD
ENDBRANCH   2  11
ENDBRANCH   1   6
BRANCH   1  15
ATOM     15  C   UNL     1      46.021   7.356  11.964  0.00  0.00    +0.000 C 
BRANCH  15  16
ATOM     16  C   UNL     1      45.184   6.306  11.275  0.00  0.00    +0.000 A 
ATOM     17  C   UNL     1      43.807   6.264  11.451  0.00  0.00    +0.000 A 
ATOM     18  N   UNL     1      42.997   5.394  10.816  0.00  0.00    +0.000 NA
ATOM     19  C   UNL     1      43.589   4.517   9.968  0.00  0.00    +0.000 A 
ATOM     20  C   UNL     1      44.960   4.444   9.704  0.00  0.00    +0.000 A 
ATOM     21  C   UNL     1      45.753   5.381  10.387  0.00  0.00    +0.000 A 
BRANCH  20  22
ATOM     22  C   UNL     1      45.531   3.443   8.773  0.00  0.00    +0.000 A 
ATOM     23  C   UNL     1      45.554   2.071   9.097  0.00  0.00    +0.000 A 
ATOM     24  C   UNL     1      46.088   1.118   8.223  0.00  0.00    +0.000 A 
ATOM     25  C   UNL     1      46.626   1.515   7.004  0.00  0.00    +0.000 A 
ATOM     26  C   UNL     1      46.621   2.863   6.664  0.00  0.00    +0.000 A 
ATOM     27 CL   UNL     1      47.296   3.364   5.161  0.00  0.00    +0.000 Cl
ATOM     28  C   UNL     1      46.078   3.816   7.531  0.00  0.00    +0.000 A 
ENDBRANCH  20  22
ENDBRANCH  15  16
ENDBRANCH   1  15
TORSDOF 5
ENDMDL
MODEL 6
REMARK VINA RESULT:    -7.487      4.852      8.279
REMARK INTER + INTRA:         -10.445
REMARK INTER:                  -9.899
REMARK INTRA:                  -0.546
REMARK UNBOUND:                -0.769
REMARK  Name = 
REMARK  5 active torsions:
REMARK  status: ('A' for Active; 'I' for Inactive)
REMARK    1  A    between atoms: C_2  and  C_4
REMARK    2  A    between atoms: N_8  and  C_9
REMARK    3  A    between atoms: C_9  and  C_10
REMARK    4  A    between atoms: C_10  and  C_11
REMARK    5  A    between atoms: C_15  and  C_16
REMARK                            x       y       z     vdW  Elec       q    Type
REMARK                         _______ _______ _______ _____ _____    ______ ____
ROOT
ATOM      1  C   UNL     1      46.436   4.481  13.776  0.00  0.00    +0.000 C 
ENDROOT
BRANCH   1   6
ATOM      2  C   UNL     1      49.327   4.280  17.992  0.00  0.00    +0.000 A 
ATOM      3  C   UNL     1      48.651   5.331  17.386  0.00  0.00    +0.000 A 
ATOM      4  C   UNL     1      47.897   5.081  16.239  0.00  0.00    +0.000 A 
ATOM      5  C   UNL     1      47.834   3.794  15.707  0.00  0.00    +0.000 A 
ATOM      6  N   UNL     1      47.103   3.485  14.586  0.00  0.00    +0.000 N 
ATOM      7  N   UNL     1      48.488   2.770  16.287  0.00  0.00    +0.000 NA
ATOM      8  C   UNL     1      49.220   3.028  17.406  0.00  0.00    +0.000 A 
ATOM      9  H   UNL     1      47.229   2.529  14.267  0.00  0.00    +0.000 HD
BRANCH   2  11
ATOM     10  N   UNL     1      51.424   3.902  19.170  0.00  0.00    +0.000 N 
ATOM     11  C   UNL     1      50.173   4.456  19.192  0.00  0.00    +0.000 C 
ATOM     12  O   UNL     1      49.779   5.087  20.163  0.00  0.00    +0.000 OA
ATOM     13  H   UNL     1      52.015   4.089  19.970  0.00  0.00    +0.000 HD
ATOM     14  H   UNL     1      51.867   3.569  18.327  0.00  0.00    +0.000 HD
ENDBRANCH   2  11
ENDBRANCH   1   6
BRANCH   1  15
ATOM     15  C   UNL     1      44.937   4.207  13.641  0.00  0.00    +0.000 C 
BRANCH  15  16
ATOM     16  C   UNL     1      44.511   4.327  12.198  0.00  0.00    +0.000 A 
ATOM     17  C   UNL     1      43.425   5.113  11.839  0.00  0.00    +0.000 A 
ATOM     18  N   UNL     1      43.035   5.312  10.564  0.00  0.00    +0.000 NA
ATOM     19  C   UNL     1      43.759   4.693   9.600  0.00  0.00    +0.000 A 
ATOM     20  C   UNL     1      44.867   3.869   9.821  0.00  0.00    +0.000 A 
ATOM     21  C   UNL     1      45.233   3.706  11.167  0.00  0.00    +0.000 A 
BRANCH  20  22
ATOM     22  C   UNL     1      45.597   3.215   8.711  0.00  0.00    +0.000 A 
ATOM     23  C   UNL     1      46.121   3.965   7.638  0.00  0.00    +0.000 A 
ATOM     24  C   UNL     1      46.815   3.358   6.585  0.00  0.00    +0.000 A 
ATOM     25  C   UNL     1      46.992   1.979   6.573  0.00  0.00    +0.000 A 
ATOM     26  C   UNL     1      46.478   1.216   7.616  0.00  0.00    +0.000 A 
ATOM     27 CL   UNL     1      46.684  -0.494   7.602  0.00  0.00    +0.000 Cl
ATOM     28  C   UNL     1      45.795   1.822   8.674  0.00  0.00    +0.000 A 
ENDBRANCH  20  22
ENDBRANCH  15  16
ENDBRANCH   1  15
TORSDOF 5
ENDMDL
MODEL 7
REMARK VINA RESULT:    -7.252      3.990      7.528
REMARK INTER + INTRA:         -10.141
REMARK INTER:                  -9.498
REMARK INTRA:                  -0.643
REMARK UNBOUND:                -0.769
REMARK  Name = 
REMARK  5 active torsions:
REMARK  status: ('A' for Active; 'I' for Inactive)
REMARK    1  A    between atoms: C_2  and  C_4
REMARK    2  A    between atoms: N_8  and  C_9
REMARK    3  A    between atoms: C_9  and  C_10
REMARK    4  A    between atoms: C_10  and  C_11
REMARK    5  A    between atoms: C_15  and  C_16
REMARK                            x       y       z     vdW  Elec       q    Type
REMARK                         _______ _______ _______ _____ _____    ______ ____
ROOT
ATOM      1  C   UNL     1      45.194   7.381  12.852  0.00  0.00    +0.000 C 
ENDROOT
BRANCH   1   6
ATOM      2  C   UNL     1      50.129   8.457  13.664  0.00  0.00    +0.000 A 
ATOM      3  C   UNL     1      49.486   7.273  13.329  0.00  0.00    +0.000 A 
ATOM      4  C   UNL     1      48.105   7.283  13.132  0.00  0.00    +0.000 A 
ATOM      5  C   UNL     1      47.383   8.466  13.282  0.00  0.00    +0.000 A 
ATOM      6  N   UNL     1      46.025   8.540  13.093  0.00  0.00    +0.000 N 
ATOM      7  N   UNL     1      47.998   9.619  13.610  0.00  0.00    +0.000 NA
ATOM      8  C   UNL     1      49.346   9.594  13.798  0.00  0.00    +0.000 A 
ATOM      9  H   UNL     1      45.629   9.445  13.328  0.00  0.00    +0.000 HD
BRANCH   2  11
ATOM     10  N   UNL     1      52.149   7.535  14.664  0.00  0.00    +0.000 N 
ATOM     11  C   UNL     1      51.583   8.536  13.920  0.00  0.00    +0.000 C 
ATOM     12  O   UNL     1      52.261   9.450  13.473  0.00  0.00    +0.000 OA
ATOM     13  H   UNL     1      53.154   7.566  14.773  0.00  0.00    +0.000 HD
ATOM     14  H   UNL     1      51.682   6.663  14.865  0.00  0.00    +0.000 HD
ENDBRANCH   2  11
ENDBRANCH   1   6
BRANCH   1  15
ATOM     15  C   UNL     1      44.757   7.278  11.389  0.00  0.00    +0.000 C 
BRANCH  15  16
ATOM     16  C   UNL     1      44.491   5.839  11.023  0.00  0.00    +0.000 A 
ATOM     17  C   UNL     1      43.467   5.126  11.632  0.00  0.00    +0.000 A 
ATOM     18  N   UNL     1      43.138   3.860  11.305  0.00  0.00    +0.000 NA
ATOM     19  C   UNL     1      43.870   3.273  10.326  0.00  0.00    +0.000 A 
ATOM     20  C   UNL     1      44.931   3.870   9.638  0.00  0.00    +0.000 A 
ATOM     21  C   UNL     1      45.221   5.192  10.015  0.00  0.00    +0.000 A 
BRANCH  20  22
ATOM     22  C   UNL     1      45.693   3.153   8.590  0.00  0.00    +0.000 A 
ATOM     23  C   UNL     1      46.304   3.847   7.526  0.00  0.00    +0.000 A 
ATOM     24  C   UNL     1      47.029   3.181   6.532  0.00  0.00    +0.000 A 
ATOM     25  C   UNL     1      47.150   1.796   6.570  0.00  0.00    +0.000 A 
ATOM     26  C   UNL     1      46.551   1.088   7.605  0.00  0.00    +0.000 A 
ATOM     27 CL   UNL     1      46.687  -0.628   7.653  0.00  0.00    +0.000 Cl
ATOM     28  C   UNL     1      45.836   1.753   8.605  0.00  0.00    +0.000 A 
ENDBRANCH  20  22
ENDBRANCH  15  16
ENDBRANCH   1  15
TORSDOF 5
ENDMDL
MODEL 8
REMARK VINA RESULT:    -6.940      4.258      7.522
REMARK INTER + INTRA:          -9.738
REMARK INTER:                  -8.716
REMARK INTRA:                  -1.022
REMARK UNBOUND:                -0.769
REMARK  Name = 
REMARK  5 active torsions:
REMARK  status: ('A' for Active; 'I' for Inactive)
REMARK    1  A    between atoms: C_2  and  C_4
REMARK    2  A    between atoms: N_8  and  C_9
REMARK    3  A    between atoms: C_9  and  C_10
REMARK    4  A    between atoms: C_10  and  C_11
REMARK    5  A    between atoms: C_15  and  C_16
REMARK                            x       y       z     vdW  Elec       q    Type
REMARK                         _______ _______ _______ _____ _____    ______ ____
ROOT
ATOM      1  C   UNL     1      49.121   7.807  12.692  0.00  0.00    +0.000 C 
ENDROOT
BRANCH   1   6
ATOM      2  C   UNL     1      47.897   4.691  16.560  0.00  0.00    +0.000 A 
ATOM      3  C   UNL     1      47.387   4.809  15.274  0.00  0.00    +0.000 A 
ATOM      4  C   UNL     1      47.950   5.743  14.404  0.00  0.00    +0.000 A 
ATOM      5  C   UNL     1      49.003   6.552  14.828  0.00  0.00    +0.000 A 
ATOM      6  N   UNL     1      49.603   7.483  14.016  0.00  0.00    +0.000 N 
ATOM      7  N   UNL     1      49.502   6.446  16.074  0.00  0.00    +0.000 NA
ATOM      8  C   UNL     1      48.943   5.530  16.913  0.00  0.00    +0.000 A 
ATOM      9  H   UNL     1      50.291   8.058  14.492  0.00  0.00    +0.000 HD
BRANCH   2  11
ATOM     10  N   UNL     1      47.923   3.735  18.799  0.00  0.00    +0.000 N 
ATOM     11  C   UNL     1      47.345   3.750  17.558  0.00  0.00    +0.000 C 
ATOM     12  O   UNL     1      46.397   3.024  17.294  0.00  0.00    +0.000 OA
ATOM     13  H   UNL     1      47.491   3.136  19.491  0.00  0.00    +0.000 HD
ATOM     14  H   UNL     1      48.550   4.454  19.127  0.00  0.00    +0.000 HD
ENDBRANCH   2  11
ENDBRANCH   1   6
BRANCH   1  15
ATOM     15  C   UNL     1      48.273   9.081  12.682  0.00  0.00    +0.000 C 
BRANCH  15  16
ATOM     16  C   UNL     1      46.856   8.763  12.272  0.00  0.00    +0.000 A 
ATOM     17  C   UNL     1      45.982   9.771  11.888  0.00  0.00    +0.000 A 
ATOM     18  N   UNL     1      44.727   9.547  11.451  0.00  0.00    +0.000 NA
ATOM     19  C   UNL     1      44.320   8.255  11.399  0.00  0.00    +0.000 A 
ATOM     20  C   UNL     1      45.091   7.147  11.763  0.00  0.00    +0.000 A 
ATOM     21  C   UNL     1      46.393   7.441  12.201  0.00  0.00    +0.000 A 
BRANCH  20  22
ATOM     22  C   UNL     1      44.566   5.764  11.692  0.00  0.00    +0.000 A 
ATOM     23  C   UNL     1      43.877   5.186  12.778  0.00  0.00    +0.000 A 
ATOM     24  C   UNL     1      43.374   3.882  12.722  0.00  0.00    +0.000 A 
ATOM     25  C   UNL     1      43.559   3.115  11.577  0.00  0.00    +0.000 A 
ATOM     26  C   UNL     1      44.241   3.659  10.494  0.00  0.00    +0.000 A 
ATOM     27 CL   UNL     1      44.483   2.711   9.077  0.00  0.00    +0.000 Cl
ATOM     28  C   UNL     1      44.734   4.966  10.545  0.00  0.00    +0.000 A 
ENDBRANCH  20  22
ENDBRANCH  15  16
ENDBRANCH   1  15
TORSDOF 5
ENDMDL
MODEL 9
REMARK VINA RESULT:    -6.783      4.415      8.040
REMARK INTER + INTRA:          -9.536
REMARK INTER:                  -8.869
REMARK INTRA:                  -0.667
REMARK UNBOUND:                -0.769
REMARK  Name = 
REMARK  5 active torsions:
REMARK  status: ('A' for Active; 'I' for Inactive)
REMARK    1  A    between atoms: C_2  and  C_4
REMARK    2  A    between atoms: N_8  and  C_9
REMARK    3  A    between atoms: C_9  and  C_10
REMARK    4  A    between atoms: C_10  and  C_11
REMARK    5  A    between atoms: C_15  and  C_16
REMARK                            x       y       z     vdW  Elec       q    Type
REMARK                         _______ _______ _______ _____ _____    ______ ____
ROOT
ATOM      1  C   UNL     1      48.589   8.401  14.514  0.00  0.00    +0.000 C 
ENDROOT
BRANCH   1   6
ATOM      2  C   UNL     1      50.601   4.709  17.426  0.00  0.00    +0.000 A 
ATOM      3  C   UNL     1      51.146   5.878  16.912  0.00  0.00    +0.000 A 
ATOM      4  C   UNL     1      50.335   6.733  16.164  0.00  0.00    +0.000 A 
ATOM      5  C   UNL     1      49.001   6.407  15.929  0.00  0.00    +0.000 A 
ATOM      6  N   UNL     1      48.152   7.211  15.208  0.00  0.00    +0.000 N 
ATOM      7  N   UNL     1      48.465   5.273  16.421  0.00  0.00    +0.000 NA
ATOM      8  C   UNL     1      49.268   4.449  17.150  0.00  0.00    +0.000 A 
ATOM      9  H   UNL     1      47.239   6.797  15.044  0.00  0.00    +0.000 HD
BRANCH   2  11
ATOM     10  N   UNL     1      51.754   4.082  19.477  0.00  0.00    +0.000 N 
ATOM     11  C   UNL     1      51.391   3.731  18.204  0.00  0.00    +0.000 C 
ATOM     12  O   UNL     1      51.697   2.642  17.739  0.00  0.00    +0.000 OA
ATOM     13  H   UNL     1      52.235   3.376  20.020  0.00  0.00    +0.000 HD
ATOM     14  H   UNL     1      51.348   4.861  19.974  0.00  0.00    +0.000 HD
ENDBRANCH   2  11
ENDBRANCH   1   6
BRANCH   1  15
ATOM     15  C   UNL     1      48.643   8.199  12.997  0.00  0.00    +0.000 C 
BRANCH  15  16
ATOM     16  C   UNL     1      47.260   7.936  12.455  0.00  0.00    +0.000 A 
ATOM     17  C   UNL     1      46.270   8.907  12.526  0.00  0.00    +0.000 A 
ATOM     18  N   UNL     1      45.036   8.757  12.004  0.00  0.00    +0.000 NA
ATOM     19  C   UNL     1      44.773   7.579  11.387  0.00  0.00    +0.000 A 
ATOM     20  C   UNL     1      45.671   6.516  11.253  0.00  0.00    +0.000 A 
ATOM     21  C   UNL     1      46.943   6.733  11.807  0.00  0.00    +0.000 A 
BRANCH  20  22
ATOM     22  C   UNL     1      45.300   5.251  10.576  0.00  0.00    +0.000 A 
ATOM     23  C   UNL     1      44.527   4.271  11.231  0.00  0.00    +0.000 A 
ATOM     24  C   UNL     1      44.168   3.075  10.601  0.00  0.00    +0.000 A 
ATOM     25  C   UNL     1      44.585   2.822   9.299  0.00  0.00    +0.000 A 
ATOM     26  C   UNL     1      45.354   3.770   8.633  0.00  0.00    +0.000 A 
ATOM     27 CL   UNL     1      45.884   3.460   7.025  0.00  0.00    +0.000 Cl
ATOM     28  C   UNL     1      45.704   4.971   9.258  0.00  0.00    +0.000 A 
ENDBRANCH  20  22
ENDBRANCH  15  16
ENDBRANCH   1  15
TORSDOF 5
ENDMDL
