MODEL 1
REMARK VINA RESULT:    -8.596      0.000      0.000
REMARK INTER + INTRA:         -10.776
REMARK INTER:                 -10.104
REMARK INTRA:                  -0.672
REMARK UNBOUND:                -0.672
REMARK  Name = 
REMARK  3 active torsions:
REMARK  status: ('A' for Active; 'I' for Inactive)
REMARK    1  A    between atoms: C_2  and  C_4
REMARK    2  A    between atoms: N_8  and  C_9
REMARK    3  A    between atoms: C_9  and  C_10
REMARK                            x       y       z     vdW  Elec       q    Type
REMARK                         _______ _______ _______ _____ _____    ______ ____
ROOT
ATOM      1  C   UNL     1      46.546   2.665   7.500  0.00  0.00    +0.000 A 
ATOM      2  C   UNL     1      46.245   4.013   7.667  0.00  0.00    +0.000 A 
ATOM      3  C   UNL     1      45.381   4.398   8.690  0.00  0.00    +0.000 A 
ATOM      4  C   UNL     1      44.831   3.432   9.526  0.00  0.00    +0.000 A 
ATOM      5  N   UNL     1      43.883   3.721  10.511  0.00  0.00    +0.000 N 
ATOM      6  N   UNL     1      45.112   2.121   9.368  0.00  0.00    +0.000 NA
ATOM      7  C   UNL     1      45.949   1.761   8.365  0.00  0.00    +0.000 A 
ATOM      8  H   UNL     1      43.726   2.840  10.999  0.00  0.00    +0.000 HD
ENDROOT
BRANCH   1  10
ATOM      9  N   UNL     1      47.688   3.025   5.391  0.00  0.00    +0.000 N 
ATOM     10  C   UNL     1      47.429   2.170   6.424  0.00  0.00    +0.000 C 
ATOM     11  O   UNL     1      47.930   1.057   6.471  0.00  0.00    +0.000 OA
ATOM     12  H   UNL     1      48.358   2.711   4.700  0.00  0.00    +0.000 HD
ATOM     13  H   UNL     1      47.493   4.013   5.435  0.00  0.00    +0.000 HD
ENDBRANCH   1  10
BRANCH   5  14
ATOM     14  C   UNL     1      43.870   4.929  11.352  0.00  0.00    +0.000 C 
ATOM     15  C   UNL     1      42.559   5.124  12.105  0.00  0.00    +0.000 C 
ATOM     16  C   UNL     1      42.988   6.140  11.102  0.00  0.00    +0.000 C 
BRANCH  14  17
ATOM     17  C   UNL     1      45.194   5.174  12.068  0.00  0.00    +0.000 A 
ATOM     18  C   UNL     1      45.950   6.343  11.857  0.00  0.00    +0.000 A 
ATOM     19  C   UNL     1      47.118   6.604  12.582  0.00  0.00    +0.000 A 
ATOM     20  C   UNL     1      47.556   5.695  13.540  0.00  0.00    +0.000 A 
ATOM     21  C   UNL     1      46.835   4.528  13.746  0.00  0.00    +0.000 A 
ATOM     22  F   UNL     1      47.252   3.649  14.668  0.00  0.00    +0.000 F 
ATOM     23  C   UNL     1      45.676   4.262  13.023  0.00  0.00    +0.000 A 
ENDBRANCH  14  17
ENDBRANCH   5  14
TORSDOF 3
ENDMDL
MODEL 2
REMARK VINA RESULT:    -6.943      3.837      6.283
REMARK INTER + INTRA:          -8.832
REMARK INTER:                  -8.509
REMARK INTRA:                  -0.324
REMARK UNBOUND:                -0.672
REMARK  Name = 
REMARK  3 active torsions:
REMARK  status: ('A' for Active; 'I' for Inactive)
REMARK    1  A    between atoms: C_2  and  C_4
REMARK    2  A    between atoms: N_8  and  C_9
REMARK    3  A    between atoms: C_9  and  C_10
REMARK                            x       y       z     vdW  Elec       q    Type
REMARK                         _______ _______ _______ _____ _____    ______ ____
ROOT
ATOM      1  C   UNL     1      48.017   6.538  13.795  0.00  0.00    +0.000 A 
ATOM      2  C   UNL     1      47.229   5.429  14.083  0.00  0.00    +0.000 A 
ATOM      3  C   UNL     1      46.262   5.020  13.167  0.00  0.00    +0.000 A 
ATOM      4  C   UNL     1      46.097   5.727  11.980  0.00  0.00    +0.000 A 
ATOM      5  N   UNL     1      45.090   5.445  11.055  0.00  0.00    +0.000 N 
ATOM      6  N   UNL     1      46.853   6.809  11.694  0.00  0.00    +0.000 NA
ATOM      7  C   UNL     1      47.784   7.198  12.598  0.00  0.00    +0.000 A 
ATOM      8  H   UNL     1      45.264   6.071  10.269  0.00  0.00    +0.000 HD
ENDROOT
BRANCH   1  10
ATOM      9  N   UNL     1      50.276   7.324  14.199  0.00  0.00    +0.000 N 
ATOM     10  C   UNL     1      49.043   7.054  14.723  0.00  0.00    +0.000 C 
ATOM     11  O   UNL     1      48.793   7.260  15.901  0.00  0.00    +0.000 OA
ATOM     12  H   UNL     1      50.948   7.755  14.821  0.00  0.00    +0.000 HD
ATOM     13  H   UNL     1      50.446   7.396  13.208  0.00  0.00    +0.000 HD
ENDBRANCH   1  10
BRANCH   5  14
ATOM     14  C   UNL     1      44.606   4.099  10.705  0.00  0.00    +0.000 C 
ATOM     15  C   UNL     1      43.107   3.923  10.917  0.00  0.00    +0.000 C 
ATOM     16  C   UNL     1      44.063   3.095  11.706  0.00  0.00    +0.000 C 
BRANCH  14  17
ATOM     17  C   UNL     1      45.260   3.538   9.447  0.00  0.00    +0.000 A 
ATOM     18  C   UNL     1      45.807   4.375   8.455  0.00  0.00    +0.000 A 
ATOM     19  C   UNL     1      46.485   3.856   7.346  0.00  0.00    +0.000 A 
ATOM     20  C   UNL     1      46.630   2.480   7.206  0.00  0.00    +0.000 A 
ATOM     21  C   UNL     1      46.080   1.639   8.163  0.00  0.00    +0.000 A 
ATOM     22  F   UNL     1      46.217   0.313   8.032  0.00  0.00    +0.000 F 
ATOM     23  C   UNL     1      45.400   2.152   9.264  0.00  0.00    +0.000 A 
ENDBRANCH  14  17
ENDBRANCH   5  14
TORSDOF 3
ENDMDL
MODEL 3
REMARK VINA RESULT:    -6.418      3.843      6.342
REMARK INTER + INTRA:          -8.215
REMARK INTER:                  -8.482
REMARK INTRA:                   0.266
REMARK UNBOUND:                -0.672
REMARK  Name = 
REMARK  3 active torsions:
REMARK  status: ('A' for Active; 'I' for Inactive)
REMARK    1  A    between atoms: C_2  and  C_4
REMARK    2  A    between atoms: N_8  and  C_9
REMARK    3  A    between atoms: C_9  and  C_10
REMARK                            x       y       z     vdW  Elec       q    Type
REMARK                         _______ _______ _______ _____ _____    ______ ____
ROOT
ATOM      1  C   UNL     1      47.928   5.778  14.710  0.00  0.00    +0.000 A 
ATOM      2  C   UNL     1      47.622   6.113  13.395  0.00  0.00    +0.000 A 
ATOM      3  C   UNL     1      46.797   5.272  12.650  0.00  0.00    +0.000 A 
ATOM      4  C   UNL     1      46.295   4.112  13.229  0.00  0.00    +0.000 A 
ATOM      5  N   UNL     1      45.545   3.168  12.525  0.00  0.00    +0.000 N 
ATOM      6  N   UNL     1      46.592   3.774  14.502  0.00  0.00    +0.000 NA
ATOM      7  C   UNL     1      47.400   4.598  15.212  0.00  0.00    +0.000 A 
ATOM      8  H   UNL     1      45.263   2.477  13.219  0.00  0.00    +0.000 HD
ENDROOT
BRANCH   1  10
ATOM      9  N   UNL     1      48.296   7.754  16.068  0.00  0.00    +0.000 N 
ATOM     10  C   UNL     1      48.817   6.598  15.559  0.00  0.00    +0.000 C 
ATOM     11  O   UNL     1      49.956   6.243  15.819  0.00  0.00    +0.000 OA
ATOM     12  H   UNL     1      48.881   8.268  16.714  0.00  0.00    +0.000 HD
ATOM     13  H   UNL     1      47.308   7.954  16.074  0.00  0.00    +0.000 HD
ENDBRANCH   1  10
BRANCH   5  14
ATOM     14  C   UNL     1      44.547   3.475  11.487  0.00  0.00    +0.000 C 
ATOM     15  C   UNL     1      43.624   4.629  11.861  0.00  0.00    +0.000 C 
ATOM     16  C   UNL     1      43.051   3.270  11.645  0.00  0.00    +0.000 C 
BRANCH  14  17
ATOM     17  C   UNL     1      45.111   3.390  10.072  0.00  0.00    +0.000 A 
ATOM     18  C   UNL     1      45.449   4.541   9.334  0.00  0.00    +0.000 A 
ATOM     19  C   UNL     1      46.049   4.457   8.073  0.00  0.00    +0.000 A 
ATOM     20  C   UNL     1      46.327   3.211   7.521  0.00  0.00    +0.000 A 
ATOM     21  C   UNL     1      45.982   2.066   8.225  0.00  0.00    +0.000 A 
ATOM     22  F   UNL     1      46.248   0.862   7.698  0.00  0.00    +0.000 F 
ATOM     23  C   UNL     1      45.380   2.146   9.477  0.00  0.00    +0.000 A 
ENDBRANCH  14  17
ENDBRANCH   5  14
TORSDOF 3
ENDMDL
MODEL 4
REMARK VINA RESULT:    -5.746      4.977      7.598
REMARK INTER + INTRA:          -7.426
REMARK INTER:                  -7.382
REMARK INTRA:                  -0.044
REMARK UNBOUND:                -0.672
REMARK  Name = 
REMARK  3 active torsions:
REMARK  status: ('A' for Active; 'I' for Inactive)
REMARK    1  A    between atoms: C_2  and  C_4
REMARK    2  A    between atoms: N_8  and  C_9
REMARK    3  A    between atoms: C_9  and  C_10
REMARK                            x       y       z     vdW  Elec       q    Type
REMARK                         _______ _______ _______ _____ _____    ______ ____
ROOT
ATOM      1  C   UNL     1      48.323   4.310  17.641  0.00  0.00    +0.000 A 
ATOM      2  C   UNL     1      48.388   5.569  17.053  0.00  0.00    +0.000 A 
ATOM      3  C   UNL     1      48.003   5.722  15.722  0.00  0.00    +0.000 A 
ATOM      4  C   UNL     1      47.562   4.617  15.003  0.00  0.00    +0.000 A 
ATOM      5  N   UNL     1      47.251   4.663  13.642  0.00  0.00    +0.000 N 
ATOM      6  N   UNL     1      47.501   3.389  15.563  0.00  0.00    +0.000 NA
ATOM      7  C   UNL     1      47.886   3.255  16.855  0.00  0.00    +0.000 A 
ATOM      8  H   UNL     1      46.895   3.735  13.416  0.00  0.00    +0.000 HD
ENDROOT
BRANCH   1  10
ATOM      9  N   UNL     1      48.256   2.926  19.632  0.00  0.00    +0.000 N 
ATOM     10  C   UNL     1      48.739   4.056  19.036  0.00  0.00    +0.000 C 
ATOM     11  O   UNL     1      49.506   4.807  19.620  0.00  0.00    +0.000 OA
ATOM     12  H   UNL     1      48.610   2.715  20.556  0.00  0.00    +0.000 HD
ATOM     13  H   UNL     1      47.826   2.175  19.116  0.00  0.00    +0.000 HD
ENDBRANCH   1  10
BRANCH   5  14
ATOM     14  C   UNL     1      46.589   5.786  12.957  0.00  0.00    +0.000 C 
ATOM     15  C   UNL     1      47.530   6.585  12.063  0.00  0.00    +0.000 C 
ATOM     16  C   UNL     1      46.882   7.250  13.229  0.00  0.00    +0.000 C 
BRANCH  14  17
ATOM     17  C   UNL     1      45.189   5.440  12.460  0.00  0.00    +0.000 A 
ATOM     18  C   UNL     1      44.333   6.413  11.909  0.00  0.00    +0.000 A 
ATOM     19  C   UNL     1      43.085   6.077  11.372  0.00  0.00    +0.000 A 
ATOM     20  C   UNL     1      42.666   4.750  11.375  0.00  0.00    +0.000 A 
ATOM     21  C   UNL     1      43.488   3.781  11.932  0.00  0.00    +0.000 A 
ATOM     22  F   UNL     1      43.089   2.502  11.938  0.00  0.00    +0.000 F 
ATOM     23  C   UNL     1      44.727   4.113  12.472  0.00  0.00    +0.000 A 
ENDBRANCH  14  17
ENDBRANCH   5  14
TORSDOF 3
ENDMDL
