MODEL 1
REMARK VINA RESULT:    -9.453      0.000      0.000
REMARK INTER + INTRA:         -13.379
REMARK INTER:                 -12.769
REMARK INTRA:                  -0.610
REMARK UNBOUND:                -0.610
REMARK  Name = 
REMARK  6 active torsions:
REMARK  status: ('A' for Active; 'I' for Inactive)
REMARK    1  A    between atoms: C_2  and  C_25
REMARK    2  A    between atoms: N_3  and  C_4
REMARK    3  A    between atoms: C_4  and  C_5
REMARK    4  A    between atoms: C_8  and  C_9
REMARK    5  A    between atoms: C_9  and  N_10
REMARK    6  A    between atoms: C_11  and  C_13
REMARK                            x       y       z     vdW  Elec       q    Type
REMARK                         _______ _______ _______ _____ _____    ______ ____
ROOT
ATOM      1  C   UNL     1      43.461   4.500  11.938  0.00  0.00    +0.000 C 
ATOM      2  C   UNL     1      44.331   3.267  12.246  0.00  0.00    +0.000 C 
ATOM      3  C   UNL     1      45.826   3.573  12.330  0.00  0.00    +0.000 C 
ATOM      4  C   UNL     1      46.166   4.745  13.268  0.00  0.00    +0.000 C 
ATOM      5  C   UNL     1      45.326   5.974  12.893  0.00  0.00    +0.000 C 
ATOM      6  C   UNL     1      43.824   5.681  12.854  0.00  0.00    +0.000 C 
ENDROOT
BRANCH   1   7
ATOM      7  C   UNL     1      43.538   4.925  10.463  0.00  0.00    +0.000 C 
BRANCH   7  10
ATOM      8  O   UNL     1      45.781   5.459   8.827  0.00  0.00    +0.000 OA
ATOM      9  C   UNL     1      45.333   4.319   8.889  0.00  0.00    +0.000 C 
ATOM     10  N   UNL     1      44.244   3.962   9.650  0.00  0.00    +0.000 N 
ATOM     11  H   UNL     1      43.896   3.014   9.531  0.00  0.00    +0.000 HD
BRANCH   9  12
ATOM     12  C   UNL     1      45.967   3.197   8.126  0.00  0.00    +0.000 A 
ATOM     13  C   UNL     1      46.686   3.491   6.971  0.00  0.00    +0.000 A 
ATOM     14  C   UNL     1      47.300   2.444   6.296  0.00  0.00    +0.000 A 
ATOM     15  C   UNL     1      47.177   1.152   6.793  0.00  0.00    +0.000 A 
ATOM     16  C   UNL     1      46.439   0.951   7.952  0.00  0.00    +0.000 A 
ATOM     17  N   UNL     1      45.823   1.941   8.635  0.00  0.00    +0.000 NA
ENDBRANCH   9  12
ENDBRANCH   7  10
ENDBRANCH   1   7
BRANCH   4  18
ATOM     18  C   UNL     1      45.988   4.410  14.757  0.00  0.00    +0.000 C 
BRANCH  18  19
ATOM     19  N   UNL     1      47.186   4.632  15.529  0.00  0.00    +0.000 N 
ATOM     20  C   UNL     1      47.452   4.039  16.735  0.00  0.00    +0.000 C 
ATOM     21  O   UNL     1      46.628   3.367  17.346  0.00  0.00    +0.000 OA
ATOM     22  H   UNL     1      47.937   5.105  15.041  0.00  0.00    +0.000 HD
BRANCH  20  23
ATOM     23  C   UNL     1      48.797   4.291  17.266  0.00  0.00    +0.000 A 
ATOM     24  C   UNL     1      49.102   5.500  17.875  0.00  0.00    +0.000 A 
ATOM     25  S   UNL     1      50.716   5.594  18.427  0.00  0.00    +0.000 S 
ATOM     26  C   UNL     1      51.046   4.003  17.918  0.00  0.00    +0.000 A 
ATOM     27  N   UNL     1      52.262   3.437  18.130  0.00  0.00    +0.000 NA
ATOM     28  C   UNL     1      52.353   2.205  17.740  0.00  0.00    +0.000 A 
ATOM     29  N   UNL     1      51.342   1.499  17.146  0.00  0.00    +0.000 N 
ATOM     30  C   UNL     1      50.128   2.058  16.833  0.00  0.00    +0.000 A 
ATOM     31  O   UNL     1      49.309   1.441  16.161  0.00  0.00    +0.000 OA
ATOM     32  C   UNL     1      49.950   3.422  17.304  0.00  0.00    +0.000 A 
ATOM     33  H   UNL     1      51.487   0.551  16.829  0.00  0.00    +0.000 HD
ENDBRANCH  20  23
ENDBRANCH  18  19
ENDBRANCH   4  18
TORSDOF 6
ENDMDL
MODEL 2
REMARK VINA RESULT:    -8.921      2.081      2.552
REMARK INTER + INTRA:         -12.660
REMARK INTER:                 -11.980
REMARK INTRA:                  -0.680
REMARK UNBOUND:                -0.610
REMARK  Name = 
REMARK  6 active torsions:
REMARK  status: ('A' for Active; 'I' for Inactive)
REMARK    1  A    between atoms: C_2  and  C_25
REMARK    2  A    between atoms: N_3  and  C_4
REMARK    3  A    between atoms: C_4  and  C_5
REMARK    4  A    between atoms: C_8  and  C_9
REMARK    5  A    between atoms: C_9  and  N_10
REMARK    6  A    between atoms: C_11  and  C_13
REMARK                            x       y       z     vdW  Elec       q    Type
REMARK                         _______ _______ _______ _____ _____    ______ ____
ROOT
ATOM      1  C   UNL     1      43.612   6.203  11.856  0.00  0.00    +0.000 C 
ATOM      2  C   UNL     1      44.168   5.600  13.160  0.00  0.00    +0.000 C 
ATOM      3  C   UNL     1      45.501   4.874  12.984  0.00  0.00    +0.000 C 
ATOM      4  C   UNL     1      46.569   5.709  12.256  0.00  0.00    +0.000 C 
ATOM      5  C   UNL     1      46.002   6.243  10.933  0.00  0.00    +0.000 C 
ATOM      6  C   UNL     1      44.689   7.010  11.113  0.00  0.00    +0.000 C 
ENDROOT
BRANCH   1   7
ATOM      7  C   UNL     1      43.004   5.142  10.926  0.00  0.00    +0.000 C 
BRANCH   7  10
ATOM      8  O   UNL     1      43.713   2.425  10.597  0.00  0.00    +0.000 OA
ATOM      9  C   UNL     1      44.239   3.278   9.892  0.00  0.00    +0.000 C 
ATOM     10  N   UNL     1      43.965   4.625   9.980  0.00  0.00    +0.000 N 
ATOM     11  H   UNL     1      44.547   5.245   9.423  0.00  0.00    +0.000 HD
BRANCH   9  12
ATOM     12  C   UNL     1      45.240   2.904   8.842  0.00  0.00    +0.000 A 
ATOM     13  C   UNL     1      45.729   3.895   7.997  0.00  0.00    +0.000 A 
ATOM     14  C   UNL     1      46.685   3.540   7.053  0.00  0.00    +0.000 A 
ATOM     15  C   UNL     1      47.116   2.219   6.988  0.00  0.00    +0.000 A 
ATOM     16  C   UNL     1      46.571   1.297   7.872  0.00  0.00    +0.000 A 
ATOM     17  N   UNL     1      45.637   1.601   8.800  0.00  0.00    +0.000 NA
ENDBRANCH   9  12
ENDBRANCH   7  10
ENDBRANCH   1   7
BRANCH   4  18
ATOM     18  C   UNL     1      47.126   6.864  13.103  0.00  0.00    +0.000 C 
BRANCH  18  19
ATOM     19  N   UNL     1      47.559   6.441  14.413  0.00  0.00    +0.000 N 
ATOM     20  C   UNL     1      48.829   6.603  14.899  0.00  0.00    +0.000 C 
ATOM     21  O   UNL     1      49.764   6.999  14.211  0.00  0.00    +0.000 OA
ATOM     22  H   UNL     1      46.818   6.189  15.055  0.00  0.00    +0.000 HD
BRANCH  20  23
ATOM     23  C   UNL     1      49.003   6.239  16.311  0.00  0.00    +0.000 A 
ATOM     24  C   UNL     1      49.549   7.143  17.212  0.00  0.00    +0.000 A 
ATOM     25  S   UNL     1      49.666   6.530  18.802  0.00  0.00    +0.000 S 
ATOM     26  C   UNL     1      48.942   5.056  18.350  0.00  0.00    +0.000 A 
ATOM     27  N   UNL     1      48.707   4.081  19.266  0.00  0.00    +0.000 NA
ATOM     28  C   UNL     1      48.103   3.038  18.792  0.00  0.00    +0.000 A 
ATOM     29  N   UNL     1      47.729   2.881  17.485  0.00  0.00    +0.000 N 
ATOM     30  C   UNL     1      48.026   3.800  16.510  0.00  0.00    +0.000 A 
ATOM     31  O   UNL     1      47.814   3.551  15.329  0.00  0.00    +0.000 OA
ATOM     32  C   UNL     1      48.649   5.020  16.998  0.00  0.00    +0.000 A 
ATOM     33  H   UNL     1      47.294   2.026  17.169  0.00  0.00    +0.000 HD
ENDBRANCH  20  23
ENDBRANCH  18  19
ENDBRANCH   4  18
TORSDOF 6
ENDMDL
MODEL 3
REMARK VINA RESULT:    -8.419      2.378      3.057
REMARK INTER + INTRA:         -11.983
REMARK INTER:                 -11.102
REMARK INTRA:                  -0.881
REMARK UNBOUND:                -0.610
REMARK  Name = 
REMARK  6 active torsions:
REMARK  status: ('A' for Active; 'I' for Inactive)
REMARK    1  A    between atoms: C_2  and  C_25
REMARK    2  A    between atoms: N_3  and  C_4
REMARK    3  A    between atoms: C_4  and  C_5
REMARK    4  A    between atoms: C_8  and  C_9
REMARK    5  A    between atoms: C_9  and  N_10
REMARK    6  A    between atoms: C_11  and  C_13
REMARK                            x       y       z     vdW  Elec       q    Type
REMARK                         _______ _______ _______ _____ _____    ______ ____
ROOT
ATOM      1  C   UNL     1      43.489   4.633  12.105  0.00  0.00    +0.000 C 
ATOM      2  C   UNL     1      44.131   3.261  12.379  0.00  0.00    +0.000 C 
ATOM      3  C   UNL     1      45.651   3.248  12.218  0.00  0.00    +0.000 C 
ATOM      4  C   UNL     1      46.366   4.364  13.000  0.00  0.00    +0.000 C 
ATOM      5  C   UNL     1      45.741   5.724  12.657  0.00  0.00    +0.000 C 
ATOM      6  C   UNL     1      44.224   5.752  12.861  0.00  0.00    +0.000 C 
ENDROOT
BRANCH   1   7
ATOM      7  C   UNL     1      43.413   4.963  10.606  0.00  0.00    +0.000 C 
BRANCH   7  10
ATOM      8  O   UNL     1      45.658   5.527   8.982  0.00  0.00    +0.000 OA
ATOM      9  C   UNL     1      45.225   4.382   9.041  0.00  0.00    +0.000 C 
ATOM     10  N   UNL     1      44.137   4.009   9.797  0.00  0.00    +0.000 N 
ATOM     11  H   UNL     1      43.803   3.057   9.675  0.00  0.00    +0.000 HD
BRANCH   9  12
ATOM     12  C   UNL     1      45.879   3.268   8.282  0.00  0.00    +0.000 A 
ATOM     13  C   UNL     1      46.692   3.581   7.197  0.00  0.00    +0.000 A 
ATOM     14  C   UNL     1      47.322   2.541   6.527  0.00  0.00    +0.000 A 
ATOM     15  C   UNL     1      47.121   1.235   6.959  0.00  0.00    +0.000 A 
ATOM     16  C   UNL     1      46.291   1.016   8.051  0.00  0.00    +0.000 A 
ATOM     17  N   UNL     1      45.657   1.999   8.727  0.00  0.00    +0.000 NA
ENDBRANCH   9  12
ENDBRANCH   7  10
ENDBRANCH   1   7
BRANCH   4  18
ATOM     18  C   UNL     1      46.364   4.145  14.521  0.00  0.00    +0.000 C 
BRANCH  18  19
ATOM     19  N   UNL     1      47.070   5.178  15.238  0.00  0.00    +0.000 N 
ATOM     20  C   UNL     1      48.111   4.952  16.098  0.00  0.00    +0.000 C 
ATOM     21  O   UNL     1      48.454   3.829  16.453  0.00  0.00    +0.000 OA
ATOM     22  H   UNL     1      46.893   6.125  14.923  0.00  0.00    +0.000 HD
BRANCH  20  23
ATOM     23  C   UNL     1      48.780   6.161  16.595  0.00  0.00    +0.000 A 
ATOM     24  C   UNL     1      48.836   6.429  17.956  0.00  0.00    +0.000 A 
ATOM     25  S   UNL     1      49.657   7.880  18.329  0.00  0.00    +0.000 S 
ATOM     26  C   UNL     1      50.009   8.171  16.688  0.00  0.00    +0.000 A 
ATOM     27  N   UNL     1      50.737   9.254  16.309  0.00  0.00    +0.000 NA
ATOM     28  C   UNL     1      50.974   9.319  15.037  0.00  0.00    +0.000 A 
ATOM     29  N   UNL     1      50.536   8.408  14.115  0.00  0.00    +0.000 N 
ATOM     30  C   UNL     1      49.724   7.350  14.442  0.00  0.00    +0.000 A 
ATOM     31  O   UNL     1      49.226   6.651  13.568  0.00  0.00    +0.000 OA
ATOM     32  C   UNL     1      49.477   7.194  15.866  0.00  0.00    +0.000 A 
ATOM     33  H   UNL     1      50.722   8.535  13.131  0.00  0.00    +0.000 HD
ENDBRANCH  20  23
ENDBRANCH  18  19
ENDBRANCH   4  18
TORSDOF 6
ENDMDL
MODEL 4
REMARK VINA RESULT:    -8.192      2.753      3.784
REMARK INTER + INTRA:         -11.676
REMARK INTER:                 -11.157
REMARK INTRA:                  -0.519
REMARK UNBOUND:                -0.610
REMARK  Name = 
REMARK  6 active torsions:
REMARK  status: ('A' for Active; 'I' for Inactive)
REMARK    1  A    between atoms: C_2  and  C_25
REMARK    2  A    between atoms: N_3  and  C_4
REMARK    3  A    between atoms: C_4  and  C_5
REMARK    4  A    between atoms: C_8  and  C_9
REMARK    5  A    between atoms: C_9  and  N_10
REMARK    6  A    between atoms: C_11  and  C_13
REMARK                            x       y       z     vdW  Elec       q    Type
REMARK                         _______ _______ _______ _____ _____    ______ ____
ROOT
ATOM      1  C   UNL     1      43.777   6.105  11.757  0.00  0.00    +0.000 C 
ATOM      2  C   UNL     1      44.166   5.655  13.178  0.00  0.00    +0.000 C 
ATOM      3  C   UNL     1      45.478   4.873  13.239  0.00  0.00    +0.000 C 
ATOM      4  C   UNL     1      46.652   5.577  12.536  0.00  0.00    +0.000 C 
ATOM      5  C   UNL     1      46.251   5.957  11.104  0.00  0.00    +0.000 C 
ATOM      6  C   UNL     1      44.960   6.780  11.044  0.00  0.00    +0.000 C 
ENDROOT
BRANCH   1   7
ATOM      7  C   UNL     1      43.224   4.955  10.902  0.00  0.00    +0.000 C 
BRANCH   7  10
ATOM      8  O   UNL     1      43.805   2.251  10.310  0.00  0.00    +0.000 OA
ATOM      9  C   UNL     1      44.390   3.143   9.706  0.00  0.00    +0.000 C 
ATOM     10  N   UNL     1      44.182   4.486   9.927  0.00  0.00    +0.000 N 
ATOM     11  H   UNL     1      44.807   5.128   9.448  0.00  0.00    +0.000 HD
BRANCH   9  12
ATOM     12  C   UNL     1      45.396   2.826   8.643  0.00  0.00    +0.000 A 
ATOM     13  C   UNL     1      45.819   3.843   7.793  0.00  0.00    +0.000 A 
ATOM     14  C   UNL     1      46.780   3.542   6.837  0.00  0.00    +0.000 A 
ATOM     15  C   UNL     1      47.282   2.247   6.764  0.00  0.00    +0.000 A 
ATOM     16  C   UNL     1      46.800   1.295   7.652  0.00  0.00    +0.000 A 
ATOM     17  N   UNL     1      45.863   1.546   8.593  0.00  0.00    +0.000 NA
ENDBRANCH   9  12
ENDBRANCH   7  10
ENDBRANCH   1   7
BRANCH   4  18
ATOM     18  C   UNL     1      47.166   6.812  13.292  0.00  0.00    +0.000 C 
BRANCH  18  19
ATOM     19  N   UNL     1      47.510   6.527  14.664  0.00  0.00    +0.000 N 
ATOM     20  C   UNL     1      48.775   6.614  15.180  0.00  0.00    +0.000 C 
ATOM     21  O   UNL     1      49.769   6.806  14.487  0.00  0.00    +0.000 OA
ATOM     22  H   UNL     1      46.726   6.449  15.302  0.00  0.00    +0.000 HD
BRANCH  20  23
ATOM     23  C   UNL     1      48.866   6.430  16.634  0.00  0.00    +0.000 A 
ATOM     24  C   UNL     1      49.307   5.226  17.168  0.00  0.00    +0.000 A 
ATOM     25  S   UNL     1      49.343   5.215  18.876  0.00  0.00    +0.000 S 
ATOM     26  C   UNL     1      48.821   6.834  18.957  0.00  0.00    +0.000 A 
ATOM     27  N   UNL     1      48.679   7.466  20.151  0.00  0.00    +0.000 NA
ATOM     28  C   UNL     1      48.329   8.709  20.059  0.00  0.00    +0.000 A 
ATOM     29  N   UNL     1      48.096   9.368  18.882  0.00  0.00    +0.000 N 
ATOM     30  C   UNL     1      48.141   8.746  17.660  0.00  0.00    +0.000 A 
ATOM     31  O   UNL     1      47.772   9.329  16.647  0.00  0.00    +0.000 OA
ATOM     32  C   UNL     1      48.589   7.364  17.700  0.00  0.00    +0.000 A 
ATOM     33  H   UNL     1      47.787  10.329  18.878  0.00  0.00    +0.000 HD
ENDBRANCH  20  23
ENDBRANCH  18  19
ENDBRANCH   4  18
TORSDOF 6
ENDMDL
MODEL 5
REMARK VINA RESULT:    -7.929      2.003      2.383
REMARK INTER + INTRA:         -11.320
REMARK INTER:                 -11.475
REMARK INTRA:                   0.155
REMARK UNBOUND:                -0.610
REMARK  Name = 
REMARK  6 active torsions:
REMARK  status: ('A' for Active; 'I' for Inactive)
REMARK    1  A    between atoms: C_2  and  C_25
REMARK    2  A    between atoms: N_3  and  C_4
REMARK    3  A    between atoms: C_4  and  C_5
REMARK    4  A    between atoms: C_8  and  C_9
REMARK    5  A    between atoms: C_9  and  N_10
REMARK    6  A    between atoms: C_11  and  C_13
REMARK                            x       y       z     vdW  Elec       q    Type
REMARK                         _______ _______ _______ _____ _____    ______ ____
ROOT
ATOM      1  C   UNL     1      43.830   6.069  11.412  0.00  0.00    +0.000 C 
ATOM      2  C   UNL     1      43.755   5.662  12.895  0.00  0.00    +0.000 C 
ATOM      3  C   UNL     1      44.757   4.577  13.289  0.00  0.00    +0.000 C 
ATOM      4  C   UNL     1      46.204   4.889  12.868  0.00  0.00    +0.000 C 
ATOM      5  C   UNL     1      46.251   5.229  11.373  0.00  0.00    +0.000 C 
ATOM      6  C   UNL     1      45.280   6.349  10.984  0.00  0.00    +0.000 C 
ENDROOT
BRANCH   1   7
ATOM      7  C   UNL     1      43.190   5.028  10.480  0.00  0.00    +0.000 C 
BRANCH   7  10
ATOM      8  O   UNL     1      43.827   2.284  10.243  0.00  0.00    +0.000 OA
ATOM      9  C   UNL     1      44.382   3.100   9.516  0.00  0.00    +0.000 C 
ATOM     10  N   UNL     1      44.145   4.455   9.559  0.00  0.00    +0.000 N 
ATOM     11  H   UNL     1      44.748   5.042   8.989  0.00  0.00    +0.000 HD
BRANCH   9  12
ATOM     12  C   UNL     1      45.380   2.665   8.487  0.00  0.00    +0.000 A 
ATOM     13  C   UNL     1      45.797   3.582   7.526  0.00  0.00    +0.000 A 
ATOM     14  C   UNL     1      46.752   3.176   6.603  0.00  0.00    +0.000 A 
ATOM     15  C   UNL     1      47.253   1.881   6.670  0.00  0.00    +0.000 A 
ATOM     16  C   UNL     1      46.778   1.033   7.662  0.00  0.00    +0.000 A 
ATOM     17  N   UNL     1      45.848   1.388   8.576  0.00  0.00    +0.000 NA
ENDBRANCH   9  12
ENDBRANCH   7  10
ENDBRANCH   1   7
BRANCH   4  18
ATOM     18  C   UNL     1      46.853   6.012  13.692  0.00  0.00    +0.000 C 
BRANCH  18  19
ATOM     19  N   UNL     1      47.232   5.587  15.018  0.00  0.00    +0.000 N 
ATOM     20  C   UNL     1      47.635   4.319  15.340  0.00  0.00    +0.000 C 
ATOM     21  O   UNL     1      47.577   3.378  14.555  0.00  0.00    +0.000 OA
ATOM     22  H   UNL     1      47.383   6.333  15.687  0.00  0.00    +0.000 HD
BRANCH  20  23
ATOM     23  C   UNL     1      48.121   4.153  16.716  0.00  0.00    +0.000 A 
ATOM     24  C   UNL     1      47.514   3.246  17.575  0.00  0.00    +0.000 A 
ATOM     25  S   UNL     1      48.227   3.202  19.127  0.00  0.00    +0.000 S 
ATOM     26  C   UNL     1      49.402   4.353  18.686  0.00  0.00    +0.000 A 
ATOM     27  N   UNL     1      50.366   4.742  19.561  0.00  0.00    +0.000 NA
ATOM     28  C   UNL     1      51.222   5.581  19.073  0.00  0.00    +0.000 A 
ATOM     29  N   UNL     1      51.190   6.074  17.796  0.00  0.00    +0.000 N 
ATOM     30  C   UNL     1      50.186   5.778  16.909  0.00  0.00    +0.000 A 
ATOM     31  O   UNL     1      50.108   6.361  15.834  0.00  0.00    +0.000 OA
ATOM     32  C   UNL     1      49.230   4.791  17.384  0.00  0.00    +0.000 A 
ATOM     33  H   UNL     1      51.867   6.757  17.486  0.00  0.00    +0.000 HD
ENDBRANCH  20  23
ENDBRANCH  18  19
ENDBRANCH   4  18
TORSDOF 6
ENDMDL
MODEL 6
REMARK VINA RESULT:    -7.518      2.792      3.584
REMARK INTER + INTRA:         -10.766
REMARK INTER:                 -10.663
REMARK INTRA:                  -0.103
REMARK UNBOUND:                -0.610
REMARK  Name = 
REMARK  6 active torsions:
REMARK  status: ('A' for Active; 'I' for Inactive)
REMARK    1  A    between atoms: C_2  and  C_25
REMARK    2  A    between atoms: N_3  and  C_4
REMARK    3  A    between atoms: C_4  and  C_5
REMARK    4  A    between atoms: C_8  and  C_9
REMARK    5  A    between atoms: C_9  and  N_10
REMARK    6  A    between atoms: C_11  and  C_13
REMARK                            x       y       z     vdW  Elec       q    Type
REMARK                         _______ _______ _______ _____ _____    ______ ____
ROOT
ATOM      1  C   UNL     1      45.189   7.028  12.548  0.00  0.00    +0.000 C 
ATOM      2  C   UNL     1      46.562   6.332  12.586  0.00  0.00    +0.000 C 
ATOM      3  C   UNL     1      47.670   7.117  11.884  0.00  0.00    +0.000 C 
ATOM      4  C   UNL     1      47.774   8.583  12.339  0.00  0.00    +0.000 C 
ATOM      5  C   UNL     1      46.402   9.262  12.230  0.00  0.00    +0.000 C 
ATOM      6  C   UNL     1      45.299   8.501  12.972  0.00  0.00    +0.000 C 
ENDROOT
BRANCH   1   7
ATOM      7  C   UNL     1      44.507   6.917  11.176  0.00  0.00    +0.000 C 
BRANCH   7  10
ATOM      8  O   UNL     1      43.403   4.429  10.410  0.00  0.00    +0.000 OA
ATOM      9  C   UNL     1      44.515   4.749  10.006  0.00  0.00    +0.000 C 
ATOM     10  N   UNL     1      45.139   5.933  10.327  0.00  0.00    +0.000 N 
ATOM     11  H   UNL     1      46.104   6.035  10.026  0.00  0.00    +0.000 HD
BRANCH   9  12
ATOM     12  C   UNL     1      45.294   3.851   9.094  0.00  0.00    +0.000 A 
ATOM     13  C   UNL     1      45.227   2.475   9.288  0.00  0.00    +0.000 A 
ATOM     14  C   UNL     1      45.923   1.653   8.411  0.00  0.00    +0.000 A 
ATOM     15  C   UNL     1      46.655   2.229   7.378  0.00  0.00    +0.000 A 
ATOM     16  C   UNL     1      46.665   3.613   7.261  0.00  0.00    +0.000 A 
ATOM     17  N   UNL     1      46.005   4.446   8.096  0.00  0.00    +0.000 NA
ENDBRANCH   9  12
ENDBRANCH   7  10
ENDBRANCH   1   7
BRANCH   4  18
ATOM     18  C   UNL     1      48.339   8.745  13.759  0.00  0.00    +0.000 C 
BRANCH  18  19
ATOM     19  N   UNL     1      48.086   7.598  14.597  0.00  0.00    +0.000 N 
ATOM     20  C   UNL     1      49.062   6.826  15.169  0.00  0.00    +0.000 C 
ATOM     21  O   UNL     1      50.254   6.950  14.906  0.00  0.00    +0.000 OA
ATOM     22  H   UNL     1      47.131   7.497  14.920  0.00  0.00    +0.000 HD
BRANCH  20  23
ATOM     23  C   UNL     1      48.576   5.806  16.107  0.00  0.00    +0.000 A 
ATOM     24  C   UNL     1      47.694   4.820  15.685  0.00  0.00    +0.000 A 
ATOM     25  S   UNL     1      47.251   3.731  16.924  0.00  0.00    +0.000 S 
ATOM     26  C   UNL     1      48.263   4.509  18.052  0.00  0.00    +0.000 A 
ATOM     27  N   UNL     1      48.382   4.046  19.324  0.00  0.00    +0.000 NA
ATOM     28  C   UNL     1      49.226   4.703  20.054  0.00  0.00    +0.000 A 
ATOM     29  N   UNL     1      49.947   5.786  19.628  0.00  0.00    +0.000 N 
ATOM     30  C   UNL     1      49.792   6.340  18.383  0.00  0.00    +0.000 A 
ATOM     31  O   UNL     1      50.338   7.400  18.097  0.00  0.00    +0.000 OA
ATOM     32  C   UNL     1      48.902   5.606  17.499  0.00  0.00    +0.000 A 
ATOM     33  H   UNL     1      50.563   6.279  20.259  0.00  0.00    +0.000 HD
ENDBRANCH  20  23
ENDBRANCH  18  19
ENDBRANCH   4  18
TORSDOF 6
ENDMDL
MODEL 7
REMARK VINA RESULT:    -7.514      2.170      2.620
REMARK INTER + INTRA:         -10.760
REMARK INTER:                 -10.199
REMARK INTRA:                  -0.561
REMARK UNBOUND:                -0.610
REMARK  Name = 
REMARK  6 active torsions:
REMARK  status: ('A' for Active; 'I' for Inactive)
REMARK    1  A    between atoms: C_2  and  C_25
REMARK    2  A    between atoms: N_3  and  C_4
REMARK    3  A    between atoms: C_4  and  C_5
REMARK    4  A    between atoms: C_8  and  C_9
REMARK    5  A    between atoms: C_9  and  N_10
REMARK    6  A    between atoms: C_11  and  C_13
REMARK                            x       y       z     vdW  Elec       q    Type
REMARK                         _______ _______ _______ _____ _____    ______ ____
ROOT
ATOM      1  C   UNL     1      43.701   5.266  12.123  0.00  0.00    +0.000 C 
ATOM      2  C   UNL     1      44.031   3.795  12.438  0.00  0.00    +0.000 C 
ATOM      3  C   UNL     1      45.519   3.461  12.338  0.00  0.00    +0.000 C 
ATOM      4  C   UNL     1      46.423   4.418  13.135  0.00  0.00    +0.000 C 
ATOM      5  C   UNL     1      46.111   5.871  12.751  0.00  0.00    +0.000 C 
ATOM      6  C   UNL     1      44.627   6.221  12.894  0.00  0.00    +0.000 C 
ENDROOT
BRANCH   1   7
ATOM      7  C   UNL     1      43.752   5.574  10.618  0.00  0.00    +0.000 C 
BRANCH   7  10
ATOM      8  O   UNL     1      46.031   5.731   8.953  0.00  0.00    +0.000 OA
ATOM      9  C   UNL     1      45.441   4.664   9.073  0.00  0.00    +0.000 C 
ATOM     10  N   UNL     1      44.321   4.488   9.854  0.00  0.00    +0.000 N 
ATOM     11  H   UNL     1      43.853   3.589   9.783  0.00  0.00    +0.000 HD
BRANCH   9  12
ATOM     12  C   UNL     1      45.919   3.432   8.367  0.00  0.00    +0.000 A 
ATOM     13  C   UNL     1      46.746   3.573   7.257  0.00  0.00    +0.000 A 
ATOM     14  C   UNL     1      47.213   2.422   6.636  0.00  0.00    +0.000 A 
ATOM     15  C   UNL     1      46.842   1.181   7.141  0.00  0.00    +0.000 A 
ATOM     16  C   UNL     1      46.011   1.136   8.253  0.00  0.00    +0.000 A 
ATOM     17  N   UNL     1      45.533   2.232   8.883  0.00  0.00    +0.000 NA
ENDBRANCH   9  12
ENDBRANCH   7  10
ENDBRANCH   1   7
BRANCH   4  18
ATOM     18  C   UNL     1      46.319   4.234  14.657  0.00  0.00    +0.000 C 
BRANCH  18  19
ATOM     19  N   UNL     1      47.141   5.165  15.392  0.00  0.00    +0.000 N 
ATOM     20  C   UNL     1      48.275   4.823  16.079  0.00  0.00    +0.000 C 
ATOM     21  O   UNL     1      48.626   3.661  16.255  0.00  0.00    +0.000 OA
ATOM     22  H   UNL     1      46.953   6.145  15.214  0.00  0.00    +0.000 HD
BRANCH  20  23
ATOM     23  C   UNL     1      49.036   5.955  16.623  0.00  0.00    +0.000 A 
ATOM     24  C   UNL     1      49.644   6.871  15.774  0.00  0.00    +0.000 A 
ATOM     25  S   UNL     1      50.476   8.112  16.601  0.00  0.00    +0.000 S 
ATOM     26  C   UNL     1      50.008   7.498  18.119  0.00  0.00    +0.000 A 
ATOM     27  N   UNL     1      50.363   8.126  19.270  0.00  0.00    +0.000 NA
ATOM     28  C   UNL     1      49.892   7.577  20.344  0.00  0.00    +0.000 A 
ATOM     29  N   UNL     1      49.113   6.452  20.368  0.00  0.00    +0.000 N 
ATOM     30  C   UNL     1      48.806   5.736  19.239  0.00  0.00    +0.000 A 
ATOM     31  O   UNL     1      48.241   4.652  19.319  0.00  0.00    +0.000 OA
ATOM     32  C   UNL     1      49.257   6.341  17.996  0.00  0.00    +0.000 A 
ATOM     33  H   UNL     1      48.808   6.051  21.243  0.00  0.00    +0.000 HD
ENDBRANCH  20  23
ENDBRANCH  18  19
ENDBRANCH   4  18
TORSDOF 6
ENDMDL
MODEL 8
REMARK VINA RESULT:    -7.198      3.601      8.976
REMARK INTER + INTRA:         -10.333
REMARK INTER:                  -9.388
REMARK INTRA:                  -0.945
REMARK UNBOUND:                -0.610
REMARK  Name = 
REMARK  6 active torsions:
REMARK  status: ('A' for Active; 'I' for Inactive)
REMARK    1  A    between atoms: C_2  and  C_25
REMARK    2  A    between atoms: N_3  and  C_4
REMARK    3  A    between atoms: C_4  and  C_5
REMARK    4  A    between atoms: C_8  and  C_9
REMARK    5  A    between atoms: C_9  and  N_10
REMARK    6  A    between atoms: C_11  and  C_13
REMARK                            x       y       z     vdW  Elec       q    Type
REMARK                         _______ _______ _______ _____ _____    ______ ____
ROOT
ATOM      1  C   UNL     1      49.789   8.120  12.446  0.00  0.00    +0.000 C 
ATOM      2  C   UNL     1      48.867   6.916  12.713  0.00  0.00    +0.000 C 
ATOM      3  C   UNL     1      47.670   7.242  13.607  0.00  0.00    +0.000 C 
ATOM      4  C   UNL     1      46.865   8.468  13.140  0.00  0.00    +0.000 C 
ATOM      5  C   UNL     1      47.806   9.665  12.943  0.00  0.00    +0.000 C 
ATOM      6  C   UNL     1      48.981   9.354  12.011  0.00  0.00    +0.000 C 
ENDROOT
BRANCH   1   7
ATOM      7  C   UNL     1      50.679   8.463  13.651  0.00  0.00    +0.000 C 
BRANCH   7  10
ATOM      8  O   UNL     1      50.461   8.416  16.469  0.00  0.00    +0.000 OA
ATOM      9  C   UNL     1      50.778   7.396  15.869  0.00  0.00    +0.000 C 
ATOM     10  N   UNL     1      50.916   7.320  14.501  0.00  0.00    +0.000 N 
ATOM     11  H   UNL     1      51.295   6.453  14.130  0.00  0.00    +0.000 HD
BRANCH   9  12
ATOM     12  C   UNL     1      51.033   6.115  16.603  0.00  0.00    +0.000 A 
ATOM     13  C   UNL     1      52.326   5.832  17.030  0.00  0.00    +0.000 A 
ATOM     14  C   UNL     1      52.540   4.659  17.743  0.00  0.00    +0.000 A 
ATOM     15  C   UNL     1      51.464   3.818  18.003  0.00  0.00    +0.000 A 
ATOM     16  C   UNL     1      50.208   4.180  17.536  0.00  0.00    +0.000 A 
ATOM     17  N   UNL     1      49.959   5.309  16.836  0.00  0.00    +0.000 NA
ENDBRANCH   9  12
ENDBRANCH   7  10
ENDBRANCH   1   7
BRANCH   4  18
ATOM     18  C   UNL     1      46.048   8.215  11.863  0.00  0.00    +0.000 C 
BRANCH  18  19
ATOM     19  N   UNL     1      45.635   6.839  11.726  0.00  0.00    +0.000 N 
ATOM     20  C   UNL     1      44.365   6.440  11.403  0.00  0.00    +0.000 C 
ATOM     21  O   UNL     1      43.416   7.215  11.338  0.00  0.00    +0.000 OA
ATOM     22  H   UNL     1      46.386   6.161  11.682  0.00  0.00    +0.000 HD
BRANCH  20  23
ATOM     23  C   UNL     1      44.209   4.999  11.165  0.00  0.00    +0.000 A 
ATOM     24  C   UNL     1      43.428   4.224  12.011  0.00  0.00    +0.000 A 
ATOM     25  S   UNL     1      43.373   2.577  11.564  0.00  0.00    +0.000 S 
ATOM     26  C   UNL     1      44.348   2.854  10.195  0.00  0.00    +0.000 A 
ATOM     27  N   UNL     1      44.659   1.846   9.339  0.00  0.00    +0.000 NA
ATOM     28  C   UNL     1      45.362   2.214   8.315  0.00  0.00    +0.000 A 
ATOM     29  N   UNL     1      45.790   3.492   8.082  0.00  0.00    +0.000 N 
ATOM     30  C   UNL     1      45.576   4.521   8.964  0.00  0.00    +0.000 A 
ATOM     31  O   UNL     1      46.111   5.611   8.796  0.00  0.00    +0.000 OA
ATOM     32  C   UNL     1      44.739   4.179  10.102  0.00  0.00    +0.000 A 
ATOM     33  H   UNL     1      46.369   3.708   7.282  0.00  0.00    +0.000 HD
ENDBRANCH  20  23
ENDBRANCH  18  19
ENDBRANCH   4  18
TORSDOF 6
ENDMDL
MODEL 9
REMARK VINA RESULT:    -7.016      5.329      8.051
REMARK INTER + INTRA:         -10.087
REMARK INTER:                  -9.088
REMARK INTRA:                  -0.999
REMARK UNBOUND:                -0.610
REMARK  Name = 
REMARK  6 active torsions:
REMARK  status: ('A' for Active; 'I' for Inactive)
REMARK    1  A    between atoms: C_2  and  C_25
REMARK    2  A    between atoms: N_3  and  C_4
REMARK    3  A    between atoms: C_4  and  C_5
REMARK    4  A    between atoms: C_8  and  C_9
REMARK    5  A    between atoms: C_9  and  N_10
REMARK    6  A    between atoms: C_11  and  C_13
REMARK                            x       y       z     vdW  Elec       q    Type
REMARK                         _______ _______ _______ _____ _____    ______ ____
ROOT
ATOM      1  C   UNL     1      49.714   8.606  11.453  0.00  0.00    +0.000 C 
ATOM      2  C   UNL     1      49.022   7.235  11.565  0.00  0.00    +0.000 C 
ATOM      3  C   UNL     1      48.727   6.808  13.003  0.00  0.00    +0.000 C 
ATOM      4  C   UNL     1      47.985   7.876  13.825  0.00  0.00    +0.000 C 
ATOM      5  C   UNL     1      48.734   9.213  13.742  0.00  0.00    +0.000 C 
ATOM      6  C   UNL     1      48.991   9.665  12.301  0.00  0.00    +0.000 C 
ENDROOT
BRANCH   1   7
ATOM      7  C   UNL     1      51.203   8.550  11.827  0.00  0.00    +0.000 C 
BRANCH   7  10
ATOM      8  O   UNL     1      52.547   8.983   9.377  0.00  0.00    +0.000 OA
ATOM      9  C   UNL     1      52.552   7.866   9.882  0.00  0.00    +0.000 C 
ATOM     10  N   UNL     1      51.923   7.554  11.066  0.00  0.00    +0.000 N 
ATOM     11  H   UNL     1      51.899   6.572  11.324  0.00  0.00    +0.000 HD
BRANCH   9  12
ATOM     12  C   UNL     1      53.276   6.727   9.231  0.00  0.00    +0.000 A 
ATOM     13  C   UNL     1      52.919   6.354   7.940  0.00  0.00    +0.000 A 
ATOM     14  C   UNL     1      53.626   5.322   7.336  0.00  0.00    +0.000 A 
ATOM     15  C   UNL     1      54.656   4.705   8.036  0.00  0.00    +0.000 A 
ATOM     16  C   UNL     1      54.942   5.142   9.323  0.00  0.00    +0.000 A 
ATOM     17  N   UNL     1      54.277   6.139   9.947  0.00  0.00    +0.000 NA
ENDBRANCH   9  12
ENDBRANCH   7  10
ENDBRANCH   1   7
BRANCH   4  18
ATOM     18  C   UNL     1      46.517   8.060  13.408  0.00  0.00    +0.000 C 
BRANCH  18  19
ATOM     19  N   UNL     1      45.883   6.821  13.029  0.00  0.00    +0.000 N 
ATOM     20  C   UNL     1      44.987   6.692  12.001  0.00  0.00    +0.000 C 
ATOM     21  O   UNL     1      44.526   7.651  11.391  0.00  0.00    +0.000 OA
ATOM     22  H   UNL     1      46.284   5.984  13.435  0.00  0.00    +0.000 HD
BRANCH  20  23
ATOM     23  C   UNL     1      44.588   5.312  11.696  0.00  0.00    +0.000 A 
ATOM     24  C   UNL     1      43.829   4.579  12.599  0.00  0.00    +0.000 A 
ATOM     25  S   UNL     1      43.469   3.000  12.057  0.00  0.00    +0.000 S 
ATOM     26  C   UNL     1      44.269   3.261  10.576  0.00  0.00    +0.000 A 
ATOM     27  N   UNL     1      44.302   2.299   9.618  0.00  0.00    +0.000 NA
ATOM     28  C   UNL     1      44.897   2.655   8.524  0.00  0.00    +0.000 A 
ATOM     29  N   UNL     1      45.473   3.879   8.313  0.00  0.00    +0.000 N 
ATOM     30  C   UNL     1      45.541   4.846   9.283  0.00  0.00    +0.000 A 
ATOM     31  O   UNL     1      46.200   5.864   9.108  0.00  0.00    +0.000 OA
ATOM     32  C   UNL     1      44.834   4.523  10.512  0.00  0.00    +0.000 A 
ATOM     33  H   UNL     1      45.956   4.083   7.450  0.00  0.00    +0.000 HD
ENDBRANCH  20  23
ENDBRANCH  18  19
ENDBRANCH   4  18
TORSDOF 6
ENDMDL
