MODEL 1
REMARK VINA RESULT:    -8.023      0.000      0.000
REMARK INTER + INTRA:         -12.667
REMARK INTER:                 -11.541
REMARK INTRA:                  -1.125
REMARK UNBOUND:                -1.125
REMARK  Name = 
REMARK  8 active torsions:
REMARK  status: ('A' for Active; 'I' for Inactive)
REMARK    1  A    between atoms: C_2  and  C_20
REMARK    2  A    between atoms: N_3  and  C_4
REMARK    3  A    between atoms: C_4  and  C_5
REMARK    4  A    between atoms: C_8  and  C_9
REMARK    5  A    between atoms: C_9  and  O_10
REMARK    6  A    between atoms: C_9  and  C_11
REMARK    7  A    between atoms: C_11  and  N_12
REMARK    8  A    between atoms: N_12  and  C_13
REMARK                            x       y       z     vdW  Elec       q    Type
REMARK                         _______ _______ _______ _____ _____    ______ ____
ROOT
ATOM      1  C   UNL     1      46.326   6.322  12.542  0.00  0.00    +0.000 A 
ATOM      2  C   UNL     1      45.927   5.285  13.392  0.00  0.00    +0.000 A 
ATOM      3  C   UNL     1      45.201   4.198  12.897  0.00  0.00    +0.000 A 
ATOM      4  C   UNL     1      44.877   4.109  11.533  0.00  0.00    +0.000 A 
ATOM      5  C   UNL     1      45.297   5.141  10.681  0.00  0.00    +0.000 A 
ATOM      6  C   UNL     1      46.015   6.233  11.178  0.00  0.00    +0.000 A 
ENDROOT
BRANCH   1   7
ATOM      7  C   UNL     1      47.106   7.492  13.080  0.00  0.00    +0.000 C 
BRANCH   7  10
ATOM      8  O   UNL     1      49.785   7.037  13.854  0.00  0.00    +0.000 OA
ATOM      9  C   UNL     1      48.908   7.056  14.714  0.00  0.00    +0.000 C 
ATOM     10  N   UNL     1      47.586   7.239  14.413  0.00  0.00    +0.000 N 
ATOM     11  H   UNL     1      46.925   7.417  15.162  0.00  0.00    +0.000 HD
BRANCH   9  12
ATOM     12  C   UNL     1      49.224   6.820  16.131  0.00  0.00    +0.000 A 
ATOM     13  C   UNL     1      49.906   7.788  16.856  0.00  0.00    +0.000 A 
ATOM     14  S   UNL     1      50.202   7.351  18.478  0.00  0.00    +0.000 S 
ATOM     15  C   UNL     1      49.388   5.869  18.283  0.00  0.00    +0.000 A 
ATOM     16  N   UNL     1      49.245   5.010  19.327  0.00  0.00    +0.000 NA
ATOM     17  C   UNL     1      48.569   3.945  19.055  0.00  0.00    +0.000 A 
ATOM     18  N   UNL     1      48.036   3.653  17.827  0.00  0.00    +0.000 N 
ATOM     19  C   UNL     1      48.242   4.442  16.721  0.00  0.00    +0.000 A 
ATOM     20  O   UNL     1      47.905   4.068  15.600  0.00  0.00    +0.000 OA
ATOM     21  C   UNL     1      48.932   5.689  16.991  0.00  0.00    +0.000 A 
ATOM     22  H   UNL     1      47.554   2.784  17.661  0.00  0.00    +0.000 HD
ENDBRANCH   9  12
ENDBRANCH   7  10
ENDBRANCH   1   7
BRANCH   4  23
ATOM     23  C   UNL     1      44.116   2.902  11.015  0.00  0.00    +0.000 C 
BRANCH  23  24
ATOM     24  O   UNL     1      42.733   2.996  11.381  0.00  0.00    +0.000 OA
ATOM     25  H   UNL     1      42.388   2.089  11.440  0.00  0.00    +0.000 HD
ENDBRANCH  23  24
BRANCH  23  26
ATOM     26  C   UNL     1      44.196   2.706   9.478  0.00  0.00    +0.000 C 
BRANCH  26  27
ATOM     27  N   UNL     1      45.183   1.704   9.068  0.00  0.00    +0.000 NA
ATOM     28  H   UNL     1      44.725   0.968   8.537  0.00  0.00    +0.000 HD
BRANCH  27  29
ATOM     29  C   UNL     1      46.282   2.242   8.310  0.00  0.00    +0.000 C 
ATOM     30  C   UNL     1      45.789   3.268   7.298  0.00  0.00    +0.000 C 
ATOM     31  C   UNL     1      46.914   3.293   6.282  0.00  0.00    +0.000 C 
ATOM     32  C   UNL     1      47.483   1.881   6.324  0.00  0.00    +0.000 C 
ATOM     33  N   UNL     1      46.850   1.214   7.460  0.00  0.00    +0.000 NA
ATOM     34  H   UNL     1      47.521   0.658   7.980  0.00  0.00    +0.000 HD
ENDBRANCH  27  29
ENDBRANCH  26  27
ENDBRANCH  23  26
ENDBRANCH   4  23
TORSDOF 8
ENDMDL
MODEL 2
REMARK VINA RESULT:    -7.894      2.142      2.644
REMARK INTER + INTRA:         -12.481
REMARK INTER:                 -11.431
REMARK INTRA:                  -1.050
REMARK UNBOUND:                -1.125
REMARK  Name = 
REMARK  8 active torsions:
REMARK  status: ('A' for Active; 'I' for Inactive)
REMARK    1  A    between atoms: C_2  and  C_20
REMARK    2  A    between atoms: N_3  and  C_4
REMARK    3  A    between atoms: C_4  and  C_5
REMARK    4  A    between atoms: C_8  and  C_9
REMARK    5  A    between atoms: C_9  and  O_10
REMARK    6  A    between atoms: C_9  and  C_11
REMARK    7  A    between atoms: C_11  and  N_12
REMARK    8  A    between atoms: N_12  and  C_13
REMARK                            x       y       z     vdW  Elec       q    Type
REMARK                         _______ _______ _______ _____ _____    ______ ____
ROOT
ATOM      1  C   UNL     1      47.109   6.201  13.084  0.00  0.00    +0.000 A 
ATOM      2  C   UNL     1      46.397   5.135  13.644  0.00  0.00    +0.000 A 
ATOM      3  C   UNL     1      45.333   4.548  12.953  0.00  0.00    +0.000 A 
ATOM      4  C   UNL     1      44.969   4.997  11.673  0.00  0.00    +0.000 A 
ATOM      5  C   UNL     1      45.699   6.053  11.107  0.00  0.00    +0.000 A 
ATOM      6  C   UNL     1      46.757   6.645  11.802  0.00  0.00    +0.000 A 
ENDROOT
BRANCH   1   7
ATOM      7  C   UNL     1      48.253   6.832  13.832  0.00  0.00    +0.000 C 
BRANCH   7  10
ATOM      8  O   UNL     1      50.195   6.265  15.805  0.00  0.00    +0.000 OA
ATOM      9  C   UNL     1      49.046   6.526  16.153  0.00  0.00    +0.000 C 
ATOM     10  N   UNL     1      48.044   6.780  15.256  0.00  0.00    +0.000 N 
ATOM     11  H   UNL     1      47.162   7.155  15.588  0.00  0.00    +0.000 HD
BRANCH   9  12
ATOM     12  C   UNL     1      48.659   6.523  17.572  0.00  0.00    +0.000 A 
ATOM     13  C   UNL     1      48.781   5.356  18.316  0.00  0.00    +0.000 A 
ATOM     14  S   UNL     1      48.278   5.521  19.938  0.00  0.00    +0.000 S 
ATOM     15  C   UNL     1      47.923   7.171  19.717  0.00  0.00    +0.000 A 
ATOM     16  N   UNL     1      47.474   7.932  20.751  0.00  0.00    +0.000 NA
ATOM     17  C   UNL     1      47.288   9.175  20.458  0.00  0.00    +0.000 A 
ATOM     18  N   UNL     1      47.494   9.723  19.220  0.00  0.00    +0.000 N 
ATOM     19  C   UNL     1      47.849   8.973  18.124  0.00  0.00    +0.000 A 
ATOM     20  O   UNL     1      47.854   9.457  16.995  0.00  0.00    +0.000 OA
ATOM     21  C   UNL     1      48.145   7.583  18.416  0.00  0.00    +0.000 A 
ATOM     22  H   UNL     1      47.289  10.693  19.038  0.00  0.00    +0.000 HD
ENDBRANCH   9  12
ENDBRANCH   7  10
ENDBRANCH   1   7
BRANCH   4  23
ATOM     23  C   UNL     1      43.831   4.321  10.930  0.00  0.00    +0.000 C 
BRANCH  23  24
ATOM     24  O   UNL     1      43.480   5.082   9.767  0.00  0.00    +0.000 OA
ATOM     25  H   UNL     1      43.882   4.640   9.001  0.00  0.00    +0.000 HD
ENDBRANCH  23  24
BRANCH  23  26
ATOM     26  C   UNL     1      44.133   2.867  10.483  0.00  0.00    +0.000 C 
BRANCH  26  27
ATOM     27  N   UNL     1      44.328   2.730   9.038  0.00  0.00    +0.000 NA
ATOM     28  H   UNL     1      43.918   3.527   8.558  0.00  0.00    +0.000 HD
BRANCH  27  29
ATOM     29  C   UNL     1      45.706   2.580   8.645  0.00  0.00    +0.000 C 
ATOM     30  C   UNL     1      45.958   3.245   7.299  0.00  0.00    +0.000 C 
ATOM     31  C   UNL     1      47.211   2.542   6.815  0.00  0.00    +0.000 C 
ATOM     32  C   UNL     1      47.114   1.151   7.426  0.00  0.00    +0.000 C 
ATOM     33  N   UNL     1      45.994   1.188   8.364  0.00  0.00    +0.000 NA
ATOM     34  H   UNL     1      46.218   0.694   9.222  0.00  0.00    +0.000 HD
ENDBRANCH  27  29
ENDBRANCH  26  27
ENDBRANCH  23  26
ENDBRANCH   4  23
TORSDOF 8
ENDMDL
MODEL 3
REMARK VINA RESULT:    -7.338      2.486      3.530
REMARK INTER + INTRA:         -11.681
REMARK INTER:                 -10.352
REMARK INTRA:                  -1.329
REMARK UNBOUND:                -1.125
REMARK  Name = 
REMARK  8 active torsions:
REMARK  status: ('A' for Active; 'I' for Inactive)
REMARK    1  A    between atoms: C_2  and  C_20
REMARK    2  A    between atoms: N_3  and  C_4
REMARK    3  A    between atoms: C_4  and  C_5
REMARK    4  A    between atoms: C_8  and  C_9
REMARK    5  A    between atoms: C_9  and  O_10
REMARK    6  A    between atoms: C_9  and  C_11
REMARK    7  A    between atoms: C_11  and  N_12
REMARK    8  A    between atoms: N_12  and  C_13
REMARK                            x       y       z     vdW  Elec       q    Type
REMARK                         _______ _______ _______ _____ _____    ______ ____
ROOT
ATOM      1  C   UNL     1      46.983   4.598  14.349  0.00  0.00    +0.000 A 
ATOM      2  C   UNL     1      46.333   3.571  13.655  0.00  0.00    +0.000 A 
ATOM      3  C   UNL     1      45.664   3.835  12.457  0.00  0.00    +0.000 A 
ATOM      4  C   UNL     1      45.646   5.129  11.911  0.00  0.00    +0.000 A 
ATOM      5  C   UNL     1      46.316   6.151  12.600  0.00  0.00    +0.000 A 
ATOM      6  C   UNL     1      46.978   5.888  13.803  0.00  0.00    +0.000 A 
ENDROOT
BRANCH   1   7
ATOM      7  C   UNL     1      47.701   4.309  15.641  0.00  0.00    +0.000 C 
BRANCH   7  10
ATOM      8  O   UNL     1      49.662   5.271  17.433  0.00  0.00    +0.000 OA
ATOM      9  C   UNL     1      48.563   5.819  17.398  0.00  0.00    +0.000 C 
ATOM     10  N   UNL     1      47.553   5.391  16.580  0.00  0.00    +0.000 N 
ATOM     11  H   UNL     1      46.730   5.971  16.460  0.00  0.00    +0.000 HD
BRANCH   9  12
ATOM     12  C   UNL     1      48.243   6.945  18.288  0.00  0.00    +0.000 A 
ATOM     13  C   UNL     1      48.070   6.721  19.648  0.00  0.00    +0.000 A 
ATOM     14  S   UNL     1      47.692   8.129  20.534  0.00  0.00    +0.000 S 
ATOM     15  C   UNL     1      47.791   9.098  19.138  0.00  0.00    +0.000 A 
ATOM     16  N   UNL     1      47.604  10.443  19.209  0.00  0.00    +0.000 NA
ATOM     17  C   UNL     1      47.752  11.063  18.087  0.00  0.00    +0.000 A 
ATOM     18  N   UNL     1      48.052  10.458  16.895  0.00  0.00    +0.000 N 
ATOM     19  C   UNL     1      48.150   9.093  16.759  0.00  0.00    +0.000 A 
ATOM     20  O   UNL     1      48.244   8.569  15.651  0.00  0.00    +0.000 OA
ATOM     21  C   UNL     1      48.067   8.356  18.005  0.00  0.00    +0.000 A 
ATOM     22  H   UNL     1      48.112  10.988  16.041  0.00  0.00    +0.000 HD
ENDBRANCH   9  12
ENDBRANCH   7  10
ENDBRANCH   1   7
BRANCH   4  23
ATOM     23  C   UNL     1      44.939   5.383  10.592  0.00  0.00    +0.000 C 
BRANCH  23  24
ATOM     24  O   UNL     1      45.864   5.905   9.629  0.00  0.00    +0.000 OA
ATOM     25  H   UNL     1      46.482   5.189   9.404  0.00  0.00    +0.000 HD
ENDBRANCH  23  24
BRANCH  23  26
ATOM     26  C   UNL     1      44.259   4.131   9.978  0.00  0.00    +0.000 C 
BRANCH  26  27
ATOM     27  N   UNL     1      44.072   4.219   8.529  0.00  0.00    +0.000 NA
ATOM     28  H   UNL     1      44.255   5.170   8.215  0.00  0.00    +0.000 HD
BRANCH  27  29
ATOM     29  C   UNL     1      44.879   3.294   7.777  0.00  0.00    +0.000 C 
ATOM     30  C   UNL     1      45.448   2.213   8.686  0.00  0.00    +0.000 C 
ATOM     31  C   UNL     1      46.641   1.713   7.894  0.00  0.00    +0.000 C 
ATOM     32  C   UNL     1      47.101   2.932   7.107  0.00  0.00    +0.000 C 
ATOM     33  N   UNL     1      46.075   3.956   7.294  0.00  0.00    +0.000 NA
ATOM     34  H   UNL     1      45.881   4.444   6.425  0.00  0.00    +0.000 HD
ENDBRANCH  27  29
ENDBRANCH  26  27
ENDBRANCH  23  26
ENDBRANCH   4  23
TORSDOF 8
ENDMDL
MODEL 4
REMARK VINA RESULT:    -7.093      3.241      8.224
REMARK INTER + INTRA:         -11.328
REMARK INTER:                  -9.652
REMARK INTRA:                  -1.676
REMARK UNBOUND:                -1.125
REMARK  Name = 
REMARK  8 active torsions:
REMARK  status: ('A' for Active; 'I' for Inactive)
REMARK    1  A    between atoms: C_2  and  C_20
REMARK    2  A    between atoms: N_3  and  C_4
REMARK    3  A    between atoms: C_4  and  C_5
REMARK    4  A    between atoms: C_8  and  C_9
REMARK    5  A    between atoms: C_9  and  O_10
REMARK    6  A    between atoms: C_9  and  C_11
REMARK    7  A    between atoms: C_11  and  N_12
REMARK    8  A    between atoms: N_12  and  C_13
REMARK                            x       y       z     vdW  Elec       q    Type
REMARK                         _______ _______ _______ _____ _____    ______ ____
ROOT
ATOM      1  C   UNL     1      48.375   7.894  13.706  0.00  0.00    +0.000 A 
ATOM      2  C   UNL     1      48.380   9.021  14.534  0.00  0.00    +0.000 A 
ATOM      3  C   UNL     1      48.470   8.884  15.922  0.00  0.00    +0.000 A 
ATOM      4  C   UNL     1      48.581   7.616  16.516  0.00  0.00    +0.000 A 
ATOM      5  C   UNL     1      48.596   6.490  15.679  0.00  0.00    +0.000 A 
ATOM      6  C   UNL     1      48.497   6.627  14.292  0.00  0.00    +0.000 A 
ENDROOT
BRANCH   1   7
ATOM      7  C   UNL     1      48.276   8.046  12.211  0.00  0.00    +0.000 C 
BRANCH   7  10
ATOM      8  O   UNL     1      45.496   7.938  11.717  0.00  0.00    +0.000 OA
ATOM      9  C   UNL     1      46.201   6.989  11.382  0.00  0.00    +0.000 C 
ATOM     10  N   UNL     1      47.549   6.955  11.616  0.00  0.00    +0.000 N 
ATOM     11  H   UNL     1      48.113   6.236  11.175  0.00  0.00    +0.000 HD
BRANCH   9  12
ATOM     12  C   UNL     1      45.622   5.791  10.756  0.00  0.00    +0.000 A 
ATOM     13  C   UNL     1      45.872   5.525   9.416  0.00  0.00    +0.000 A 
ATOM     14  S   UNL     1      45.116   4.106   8.845  0.00  0.00    +0.000 S 
ATOM     15  C   UNL     1      44.463   3.771  10.382  0.00  0.00    +0.000 A 
ATOM     16  N   UNL     1      43.721   2.652  10.594  0.00  0.00    +0.000 NA
ATOM     17  C   UNL     1      43.327   2.496  11.813  0.00  0.00    +0.000 A 
ATOM     18  N   UNL     1      43.592   3.368  12.836  0.00  0.00    +0.000 N 
ATOM     19  C   UNL     1      44.251   4.559  12.644  0.00  0.00    +0.000 A 
ATOM     20  O   UNL     1      44.320   5.399  13.539  0.00  0.00    +0.000 OA
ATOM     21  C   UNL     1      44.782   4.746  11.308  0.00  0.00    +0.000 A 
ATOM     22  H   UNL     1      43.220   3.217  13.759  0.00  0.00    +0.000 HD
ENDBRANCH   9  12
ENDBRANCH   7  10
ENDBRANCH   1   7
BRANCH   4  23
ATOM     23  C   UNL     1      48.710   7.496  18.024  0.00  0.00    +0.000 C 
BRANCH  23  24
ATOM     24  O   UNL     1      47.412   7.374  18.622  0.00  0.00    +0.000 OA
ATOM     25  H   UNL     1      47.450   6.628  19.242  0.00  0.00    +0.000 HD
ENDBRANCH  23  24
BRANCH  23  26
ATOM     26  C   UNL     1      49.575   6.300  18.499  0.00  0.00    +0.000 C 
BRANCH  26  27
ATOM     27  N   UNL     1      48.889   5.426  19.453  0.00  0.00    +0.000 NA
ATOM     28  H   UNL     1      48.067   5.898  19.822  0.00  0.00    +0.000 HD
BRANCH  27  29
ATOM     29  C   UNL     1      48.514   4.146  18.909  0.00  0.00    +0.000 C 
ATOM     30  C   UNL     1      49.449   3.747  17.776  0.00  0.00    +0.000 C 
ATOM     31  C   UNL     1      48.620   2.738  17.006  0.00  0.00    +0.000 C 
ATOM     32  C   UNL     1      47.184   3.195  17.223  0.00  0.00    +0.000 C 
ATOM     33  N   UNL     1      47.234   4.248  18.236  0.00  0.00    +0.000 NA
ATOM     34  H   UNL     1      46.476   4.152  18.904  0.00  0.00    +0.000 HD
ENDBRANCH  27  29
ENDBRANCH  26  27
ENDBRANCH  23  26
ENDBRANCH   4  23
TORSDOF 8
ENDMDL
MODEL 5
REMARK VINA RESULT:    -7.050      2.238      3.910
REMARK INTER + INTRA:         -11.267
REMARK INTER:                 -10.198
REMARK INTRA:                  -1.069
REMARK UNBOUND:                -1.125
REMARK  Name = 
REMARK  8 active torsions:
REMARK  status: ('A' for Active; 'I' for Inactive)
REMARK    1  A    between atoms: C_2  and  C_20
REMARK    2  A    between atoms: N_3  and  C_4
REMARK    3  A    between atoms: C_4  and  C_5
REMARK    4  A    between atoms: C_8  and  C_9
REMARK    5  A    between atoms: C_9  and  O_10
REMARK    6  A    between atoms: C_9  and  C_11
REMARK    7  A    between atoms: C_11  and  N_12
REMARK    8  A    between atoms: N_12  and  C_13
REMARK                            x       y       z     vdW  Elec       q    Type
REMARK                         _______ _______ _______ _____ _____    ______ ____
ROOT
ATOM      1  C   UNL     1      46.516   4.761  13.570  0.00  0.00    +0.000 A 
ATOM      2  C   UNL     1      46.146   3.448  13.258  0.00  0.00    +0.000 A 
ATOM      3  C   UNL     1      45.277   3.187  12.195  0.00  0.00    +0.000 A 
ATOM      4  C   UNL     1      44.775   4.231  11.402  0.00  0.00    +0.000 A 
ATOM      5  C   UNL     1      45.165   5.544  11.705  0.00  0.00    +0.000 A 
ATOM      6  C   UNL     1      46.027   5.805  12.774  0.00  0.00    +0.000 A 
ENDROOT
BRANCH   1   7
ATOM      7  C   UNL     1      47.451   5.037  14.718  0.00  0.00    +0.000 C 
BRANCH   7  10
ATOM      8  O   UNL     1      49.749   6.083  15.987  0.00  0.00    +0.000 OA
ATOM      9  C   UNL     1      49.022   6.839  15.347  0.00  0.00    +0.000 C 
ATOM     10  N   UNL     1      47.876   6.413  14.732  0.00  0.00    +0.000 N 
ATOM     11  H   UNL     1      47.403   7.029  14.080  0.00  0.00    +0.000 HD
BRANCH   9  12
ATOM     12  C   UNL     1      49.311   8.278  15.254  0.00  0.00    +0.000 A 
ATOM     13  C   UNL     1      49.624   8.994  16.403  0.00  0.00    +0.000 A 
ATOM     14  S   UNL     1      49.919  10.650  16.120  0.00  0.00    +0.000 S 
ATOM     15  C   UNL     1      49.684  10.462  14.445  0.00  0.00    +0.000 A 
ATOM     16  N   UNL     1      49.828  11.516  13.598  0.00  0.00    +0.000 NA
ATOM     17  C   UNL     1      49.667  11.226  12.351  0.00  0.00    +0.000 A 
ATOM     18  N   UNL     1      49.356   9.979  11.875  0.00  0.00    +0.000 N 
ATOM     19  C   UNL     1      49.102   8.910  12.701  0.00  0.00    +0.000 A 
ATOM     20  O   UNL     1      48.655   7.855  12.257  0.00  0.00    +0.000 OA
ATOM     21  C   UNL     1      49.345   9.165  14.108  0.00  0.00    +0.000 A 
ATOM     22  H   UNL     1      49.198   9.821  10.893  0.00  0.00    +0.000 HD
ENDBRANCH   9  12
ENDBRANCH   7  10
ENDBRANCH   1   7
BRANCH   4  23
ATOM     23  C   UNL     1      43.858   3.918  10.232  0.00  0.00    +0.000 C 
BRANCH  23  24
ATOM     24  O   UNL     1      43.369   5.134   9.651  0.00  0.00    +0.000 OA
ATOM     25  H   UNL     1      43.906   5.312   8.860  0.00  0.00    +0.000 HD
ENDBRANCH  23  24
BRANCH  23  26
ATOM     26  C   UNL     1      44.518   3.076   9.109  0.00  0.00    +0.000 C 
BRANCH  26  27
ATOM     27  N   UNL     1      45.144   3.888   8.063  0.00  0.00    +0.000 NA
ATOM     28  H   UNL     1      45.243   4.848   8.384  0.00  0.00    +0.000 HD
BRANCH  27  29
ATOM     29  C   UNL     1      46.419   3.388   7.618  0.00  0.00    +0.000 C 
ATOM     30  C   UNL     1      46.478   3.338   6.097  0.00  0.00    +0.000 C 
ATOM     31  C   UNL     1      47.577   2.325   5.845  0.00  0.00    +0.000 C 
ATOM     32  C   UNL     1      47.495   1.383   7.037  0.00  0.00    +0.000 C 
ATOM     33  N   UNL     1      46.559   1.992   7.981  0.00  0.00    +0.000 NA
ATOM     34  H   UNL     1      46.895   1.909   8.936  0.00  0.00    +0.000 HD
ENDBRANCH  27  29
ENDBRANCH  26  27
ENDBRANCH  23  26
ENDBRANCH   4  23
TORSDOF 8
ENDMDL
MODEL 6
REMARK VINA RESULT:    -6.932      2.310      2.811
REMARK INTER + INTRA:         -11.096
REMARK INTER:                 -10.090
REMARK INTRA:                  -1.006
REMARK UNBOUND:                -1.125
REMARK  Name = 
REMARK  8 active torsions:
REMARK  status: ('A' for Active; 'I' for Inactive)
REMARK    1  A    between atoms: C_2  and  C_20
REMARK    2  A    between atoms: N_3  and  C_4
REMARK    3  A    between atoms: C_4  and  C_5
REMARK    4  A    between atoms: C_8  and  C_9
REMARK    5  A    between atoms: C_9  and  O_10
REMARK    6  A    between atoms: C_9  and  C_11
REMARK    7  A    between atoms: C_11  and  N_12
REMARK    8  A    between atoms: N_12  and  C_13
REMARK                            x       y       z     vdW  Elec       q    Type
REMARK                         _______ _______ _______ _____ _____    ______ ____
ROOT
ATOM      1  C   UNL     1      47.046   7.573  13.359  0.00  0.00    +0.000 A 
ATOM      2  C   UNL     1      46.026   7.673  12.406  0.00  0.00    +0.000 A 
ATOM      3  C   UNL     1      45.449   6.525  11.857  0.00  0.00    +0.000 A 
ATOM      4  C   UNL     1      45.861   5.246  12.265  0.00  0.00    +0.000 A 
ATOM      5  C   UNL     1      46.869   5.150  13.236  0.00  0.00    +0.000 A 
ATOM      6  C   UNL     1      47.452   6.299  13.778  0.00  0.00    +0.000 A 
ENDROOT
BRANCH   1   7
ATOM      7  C   UNL     1      47.667   8.813  13.946  0.00  0.00    +0.000 C 
BRANCH   7  10
ATOM      8  O   UNL     1      49.353  10.126  15.795  0.00  0.00    +0.000 OA
ATOM      9  C   UNL     1      48.353   9.541  16.206  0.00  0.00    +0.000 C 
ATOM     10  N   UNL     1      47.507   8.857  15.376  0.00  0.00    +0.000 N 
ATOM     11  H   UNL     1      46.613   8.537  15.731  0.00  0.00    +0.000 HD
BRANCH   9  12
ATOM     12  C   UNL     1      48.036   9.490  17.641  0.00  0.00    +0.000 A 
ATOM     13  C   UNL     1      47.714  10.659  18.318  0.00  0.00    +0.000 A 
ATOM     14  S   UNL     1      47.385  10.425  19.975  0.00  0.00    +0.000 S 
ATOM     15  C   UNL     1      47.616   8.744  19.839  0.00  0.00    +0.000 A 
ATOM     16  N   UNL     1      47.446   7.928  20.913  0.00  0.00    +0.000 NA
ATOM     17  C   UNL     1      47.606   6.673  20.661  0.00  0.00    +0.000 A 
ATOM     18  N   UNL     1      47.938   6.160  19.435  0.00  0.00    +0.000 N 
ATOM     19  C   UNL     1      48.218   6.954  18.349  0.00  0.00    +0.000 A 
ATOM     20  O   UNL     1      48.683   6.478  17.315  0.00  0.00    +0.000 OA
ATOM     21  C   UNL     1      47.978   8.369  18.559  0.00  0.00    +0.000 A 
ATOM     22  H   UNL     1      48.094   5.173  19.308  0.00  0.00    +0.000 HD
ENDBRANCH   9  12
ENDBRANCH   7  10
ENDBRANCH   1   7
BRANCH   4  23
ATOM     23  C   UNL     1      45.195   4.014  11.677  0.00  0.00    +0.000 C 
BRANCH  23  24
ATOM     24  O   UNL     1      44.421   3.345  12.682  0.00  0.00    +0.000 OA
ATOM     25  H   UNL     1      43.488   3.560  12.518  0.00  0.00    +0.000 HD
ENDBRANCH  23  24
BRANCH  23  26
ATOM     26  C   UNL     1      44.269   4.303  10.467  0.00  0.00    +0.000 C 
BRANCH  26  27
ATOM     27  N   UNL     1      43.918   3.105   9.702  0.00  0.00    +0.000 NA
ATOM     28  H   UNL     1      42.916   3.089   9.528  0.00  0.00    +0.000 HD
BRANCH  27  29
ATOM     29  C   UNL     1      44.631   2.976   8.458  0.00  0.00    +0.000 C 
ATOM     30  C   UNL     1      45.756   1.958   8.584  0.00  0.00    +0.000 C 
ATOM     31  C   UNL     1      46.682   2.350   7.450  0.00  0.00    +0.000 C 
ATOM     32  C   UNL     1      46.483   3.853   7.312  0.00  0.00    +0.000 C 
ATOM     33  N   UNL     1      45.349   4.200   8.167  0.00  0.00    +0.000 NA
ATOM     34  H   UNL     1      44.736   4.869   7.710  0.00  0.00    +0.000 HD
ENDBRANCH  27  29
ENDBRANCH  26  27
ENDBRANCH  23  26
ENDBRANCH   4  23
TORSDOF 8
ENDMDL
MODEL 7
REMARK VINA RESULT:    -6.679      2.341      2.907
REMARK INTER + INTRA:         -10.733
REMARK INTER:                  -9.702
REMARK INTRA:                  -1.032
REMARK UNBOUND:                -1.125
REMARK  Name = 
REMARK  8 active torsions:
REMARK  status: ('A' for Active; 'I' for Inactive)
REMARK    1  A    between atoms: C_2  and  C_20
REMARK    2  A    between atoms: N_3  and  C_4
REMARK    3  A    between atoms: C_4  and  C_5
REMARK    4  A    between atoms: C_8  and  C_9
REMARK    5  A    between atoms: C_9  and  O_10
REMARK    6  A    between atoms: C_9  and  C_11
REMARK    7  A    between atoms: C_11  and  N_12
REMARK    8  A    between atoms: N_12  and  C_13
REMARK                            x       y       z     vdW  Elec       q    Type
REMARK                         _______ _______ _______ _____ _____    ______ ____
ROOT
ATOM      1  C   UNL     1      47.186   4.508  14.425  0.00  0.00    +0.000 A 
ATOM      2  C   UNL     1      46.650   3.401  13.758  0.00  0.00    +0.000 A 
ATOM      3  C   UNL     1      45.825   3.574  12.643  0.00  0.00    +0.000 A 
ATOM      4  C   UNL     1      45.532   4.857  12.154  0.00  0.00    +0.000 A 
ATOM      5  C   UNL     1      46.089   5.963  12.814  0.00  0.00    +0.000 A 
ATOM      6  C   UNL     1      46.907   5.791  13.934  0.00  0.00    +0.000 A 
ENDROOT
BRANCH   1   7
ATOM      7  C   UNL     1      48.073   4.318  15.627  0.00  0.00    +0.000 C 
BRANCH   7  10
ATOM      8  O   UNL     1      50.382   5.786  16.333  0.00  0.00    +0.000 OA
ATOM      9  C   UNL     1      49.282   6.180  16.714  0.00  0.00    +0.000 C 
ATOM     10  N   UNL     1      48.123   5.506  16.439  0.00  0.00    +0.000 N 
ATOM     11  H   UNL     1      47.232   5.952  16.625  0.00  0.00    +0.000 HD
BRANCH   9  12
ATOM     12  C   UNL     1      49.149   7.382  17.551  0.00  0.00    +0.000 A 
ATOM     13  C   UNL     1      49.681   8.588  17.113  0.00  0.00    +0.000 A 
ATOM     14  S   UNL     1      49.451   9.877  18.206  0.00  0.00    +0.000 S 
ATOM     15  C   UNL     1      48.591   8.880  19.285  0.00  0.00    +0.000 A 
ATOM     16  N   UNL     1      48.072   9.384  20.436  0.00  0.00    +0.000 NA
ATOM     17  C   UNL     1      47.405   8.532  21.139  0.00  0.00    +0.000 A 
ATOM     18  N   UNL     1      47.226   7.215  20.805  0.00  0.00    +0.000 N 
ATOM     19  C   UNL     1      47.817   6.641  19.705  0.00  0.00    +0.000 A 
ATOM     20  O   UNL     1      47.785   5.426  19.527  0.00  0.00    +0.000 OA
ATOM     21  C   UNL     1      48.515   7.573  18.840  0.00  0.00    +0.000 A 
ATOM     22  H   UNL     1      46.732   6.585  21.416  0.00  0.00    +0.000 HD
ENDBRANCH   9  12
ENDBRANCH   7  10
ENDBRANCH   1   7
BRANCH   4  23
ATOM     23  C   UNL     1      44.659   5.016  10.922  0.00  0.00    +0.000 C 
BRANCH  23  24
ATOM     24  O   UNL     1      44.931   6.271  10.283  0.00  0.00    +0.000 OA
ATOM     25  H   UNL     1      45.572   6.744  10.840  0.00  0.00    +0.000 HD
ENDBRANCH  23  24
BRANCH  23  26
ATOM     26  C   UNL     1      44.829   3.890   9.868  0.00  0.00    +0.000 C 
BRANCH  26  27
ATOM     27  N   UNL     1      44.866   4.383   8.489  0.00  0.00    +0.000 NA
ATOM     28  H   UNL     1      45.354   5.274   8.455  0.00  0.00    +0.000 HD
BRANCH  27  29
ATOM     29  C   UNL     1      45.462   3.464   7.555  0.00  0.00    +0.000 C 
ATOM     30  C   UNL     1      45.957   2.214   8.270  0.00  0.00    +0.000 C 
ATOM     31  C   UNL     1      46.988   1.669   7.301  0.00  0.00    +0.000 C 
ATOM     32  C   UNL     1      47.538   2.908   6.609  0.00  0.00    +0.000 C 
ATOM     33  N   UNL     1      46.687   4.023   7.020  0.00  0.00    +0.000 NA
ATOM     34  H   UNL     1      46.482   4.637   6.237  0.00  0.00    +0.000 HD
ENDBRANCH  27  29
ENDBRANCH  26  27
ENDBRANCH  23  26
ENDBRANCH   4  23
TORSDOF 8
ENDMDL
MODEL 8
REMARK VINA RESULT:    -6.561      3.443      8.842
REMARK INTER + INTRA:         -10.563
REMARK INTER:                  -9.302
REMARK INTRA:                  -1.260
REMARK UNBOUND:                -1.125
REMARK  Name = 
REMARK  8 active torsions:
REMARK  status: ('A' for Active; 'I' for Inactive)
REMARK    1  A    between atoms: C_2  and  C_20
REMARK    2  A    between atoms: N_3  and  C_4
REMARK    3  A    between atoms: C_4  and  C_5
REMARK    4  A    between atoms: C_8  and  C_9
REMARK    5  A    between atoms: C_9  and  O_10
REMARK    6  A    between atoms: C_9  and  C_11
REMARK    7  A    between atoms: C_11  and  N_12
REMARK    8  A    between atoms: N_12  and  C_13
REMARK                            x       y       z     vdW  Elec       q    Type
REMARK                         _______ _______ _______ _____ _____    ______ ____
ROOT
ATOM      1  C   UNL     1      48.768   6.865  16.570  0.00  0.00    +0.000 A 
ATOM      2  C   UNL     1      48.654   7.616  17.745  0.00  0.00    +0.000 A 
ATOM      3  C   UNL     1      48.654   6.989  18.993  0.00  0.00    +0.000 A 
ATOM      4  C   UNL     1      48.791   5.595  19.100  0.00  0.00    +0.000 A 
ATOM      5  C   UNL     1      48.926   4.848  17.920  0.00  0.00    +0.000 A 
ATOM      6  C   UNL     1      48.917   5.476  16.671  0.00  0.00    +0.000 A 
ENDROOT
BRANCH   1   7
ATOM      7  C   UNL     1      48.765   7.545  15.226  0.00  0.00    +0.000 C 
BRANCH   7  10
ATOM      8  O   UNL     1      48.594   5.834  12.984  0.00  0.00    +0.000 OA
ATOM      9  C   UNL     1      47.571   6.362  13.414  0.00  0.00    +0.000 C 
ATOM     10  N   UNL     1      47.579   7.226  14.475  0.00  0.00    +0.000 N 
ATOM     11  H   UNL     1      46.700   7.501  14.899  0.00  0.00    +0.000 HD
BRANCH   9  12
ATOM     12  C   UNL     1      46.269   6.140  12.768  0.00  0.00    +0.000 A 
ATOM     13  C   UNL     1      45.591   7.210  12.198  0.00  0.00    +0.000 A 
ATOM     14  S   UNL     1      44.093   6.782  11.503  0.00  0.00    +0.000 S 
ATOM     15  C   UNL     1      44.317   5.142  11.899  0.00  0.00    +0.000 A 
ATOM     16  N   UNL     1      43.393   4.208  11.547  0.00  0.00    +0.000 NA
ATOM     17  C   UNL     1      43.708   2.998  11.866  0.00  0.00    +0.000 A 
ATOM     18  N   UNL     1      44.855   2.639  12.523  0.00  0.00    +0.000 N 
ATOM     19  C   UNL     1      45.765   3.559  12.987  0.00  0.00    +0.000 A 
ATOM     20  O   UNL     1      46.690   3.224  13.724  0.00  0.00    +0.000 OA
ATOM     21  C   UNL     1      45.496   4.926  12.587  0.00  0.00    +0.000 A 
ATOM     22  H   UNL     1      45.027   1.682  12.787  0.00  0.00    +0.000 HD
ENDBRANCH   9  12
ENDBRANCH   7  10
ENDBRANCH   1   7
BRANCH   4  23
ATOM     23  C   UNL     1      48.821   4.941  20.470  0.00  0.00    +0.000 C 
BRANCH  23  24
ATOM     24  O   UNL     1      48.345   3.592  20.382  0.00  0.00    +0.000 OA
ATOM     25  H   UNL     1      49.088   3.043  20.079  0.00  0.00    +0.000 HD
ENDBRANCH  23  24
BRANCH  23  26
ATOM     26  C   UNL     1      50.220   4.918  21.138  0.00  0.00    +0.000 C 
BRANCH  26  27
ATOM     27  N   UNL     1      51.171   5.853  20.533  0.00  0.00    +0.000 NA
ATOM     28  H   UNL     1      51.517   6.498  21.239  0.00  0.00    +0.000 HD
BRANCH  27  29
ATOM     29  C   UNL     1      52.279   5.214  19.871  0.00  0.00    +0.000 C 
ATOM     30  C   UNL     1      52.425   5.728  18.445  0.00  0.00    +0.000 C 
ATOM     31  C   UNL     1      53.207   4.616  17.774  0.00  0.00    +0.000 C 
ATOM     32  C   UNL     1      52.779   3.360  18.520  0.00  0.00    +0.000 C 
ATOM     33  N   UNL     1      51.993   3.808  19.668  0.00  0.00    +0.000 NA
ATOM     34  H   UNL     1      52.226   3.277  20.502  0.00  0.00    +0.000 HD
ENDBRANCH  27  29
ENDBRANCH  26  27
ENDBRANCH  23  26
ENDBRANCH   4  23
TORSDOF 8
ENDMDL
MODEL 9
REMARK VINA RESULT:    -6.154      1.929      2.559
REMARK INTER + INTRA:          -9.978
REMARK INTER:                  -9.716
REMARK INTRA:                  -0.261
REMARK UNBOUND:                -1.125
REMARK  Name = 
REMARK  8 active torsions:
REMARK  status: ('A' for Active; 'I' for Inactive)
REMARK    1  A    between atoms: C_2  and  C_20
REMARK    2  A    between atoms: N_3  and  C_4
REMARK    3  A    between atoms: C_4  and  C_5
REMARK    4  A    between atoms: C_8  and  C_9
REMARK    5  A    between atoms: C_9  and  O_10
REMARK    6  A    between atoms: C_9  and  C_11
REMARK    7  A    between atoms: C_11  and  N_12
REMARK    8  A    between atoms: N_12  and  C_13
REMARK                            x       y       z     vdW  Elec       q    Type
REMARK                         _______ _______ _______ _____ _____    ______ ____
ROOT
ATOM      1  C   UNL     1      47.294   6.521  13.588  0.00  0.00    +0.000 A 
ATOM      2  C   UNL     1      46.564   6.886  12.452  0.00  0.00    +0.000 A 
ATOM      3  C   UNL     1      45.748   5.957  11.801  0.00  0.00    +0.000 A 
ATOM      4  C   UNL     1      45.623   4.644  12.284  0.00  0.00    +0.000 A 
ATOM      5  C   UNL     1      46.341   4.288  13.435  0.00  0.00    +0.000 A 
ATOM      6  C   UNL     1      47.164   5.215  14.081  0.00  0.00    +0.000 A 
ENDROOT
BRANCH   1   7
ATOM      7  C   UNL     1      48.174   7.524  14.285  0.00  0.00    +0.000 C 
BRANCH   7  10
ATOM      8  O   UNL     1      50.531   6.608  15.545  0.00  0.00    +0.000 OA
ATOM      9  C   UNL     1      49.523   6.793  16.222  0.00  0.00    +0.000 C 
ATOM     10  N   UNL     1      48.337   7.205  15.679  0.00  0.00    +0.000 N 
ATOM     11  H   UNL     1      47.587   7.507  16.292  0.00  0.00    +0.000 HD
BRANCH   9  12
ATOM     12  C   UNL     1      49.514   6.521  17.668  0.00  0.00    +0.000 A 
ATOM     13  C   UNL     1      48.415   6.891  18.432  0.00  0.00    +0.000 A 
ATOM     14  S   UNL     1      48.572   6.515  20.088  0.00  0.00    +0.000 S 
ATOM     15  C   UNL     1      50.098   5.802  19.837  0.00  0.00    +0.000 A 
ATOM     16  N   UNL     1      50.781   5.238  20.868  0.00  0.00    +0.000 NA
ATOM     17  C   UNL     1      51.902   4.693  20.531  0.00  0.00    +0.000 A 
ATOM     18  N   UNL     1      52.409   4.677  19.259  0.00  0.00    +0.000 N 
ATOM     19  C   UNL     1      51.802   5.322  18.208  0.00  0.00    +0.000 A 
ATOM     20  O   UNL     1      52.365   5.441  17.123  0.00  0.00    +0.000 OA
ATOM     21  C   UNL     1      50.501   5.885  18.518  0.00  0.00    +0.000 A 
ATOM     22  H   UNL     1      53.312   4.275  19.063  0.00  0.00    +0.000 HD
ENDBRANCH   9  12
ENDBRANCH   7  10
ENDBRANCH   1   7
BRANCH   4  23
ATOM     23  C   UNL     1      44.704   3.663  11.577  0.00  0.00    +0.000 C 
BRANCH  23  24
ATOM     24  O   UNL     1      44.189   2.708  12.514  0.00  0.00    +0.000 OA
ATOM     25  H   UNL     1      44.916   2.103  12.738  0.00  0.00    +0.000 HD
ENDBRANCH  23  24
BRANCH  23  26
ATOM     26  C   UNL     1      43.504   4.322  10.848  0.00  0.00    +0.000 C 
BRANCH  26  27
ATOM     27  N   UNL     1      43.749   4.569   9.426  0.00  0.00    +0.000 NA
ATOM     28  H   UNL     1      43.870   5.565   9.265  0.00  0.00    +0.000 HD
BRANCH  27  29
ATOM     29  C   UNL     1      44.876   3.848   8.892  0.00  0.00    +0.000 C 
ATOM     30  C   UNL     1      45.946   4.810   8.396  0.00  0.00    +0.000 C 
ATOM     31  C   UNL     1      46.730   3.954   7.421  0.00  0.00    +0.000 C 
ATOM     32  C   UNL     1      45.699   2.977   6.873  0.00  0.00    +0.000 C 
ATOM     33  N   UNL     1      44.493   3.154   7.679  0.00  0.00    +0.000 NA
ATOM     34  H   UNL     1      44.067   2.260   7.903  0.00  0.00    +0.000 HD
ENDBRANCH  27  29
ENDBRANCH  26  27
ENDBRANCH  23  26
ENDBRANCH   4  23
TORSDOF 8
ENDMDL
