MODEL 1
REMARK VINA RESULT:    -8.014      0.000      0.000
REMARK INTER + INTRA:         -14.148
REMARK INTER:                 -12.699
REMARK INTRA:                  -1.449
REMARK UNBOUND:                -1.449
REMARK  Name = 
REMARK  11 active torsions:
REMARK  status: ('A' for Active; 'I' for Inactive)
REMARK    1  A    between atoms: C_2  and  C_24
REMARK    2  A    between atoms: N_3  and  CA_4
REMARK    3  A    between atoms: CA_4  and  C_5
REMARK    4  A    between atoms: CA_4  and  C_7
REMARK    5  A    between atoms: C_5  and  O_6
REMARK    6  A    between atoms: C_10  and  C_11
REMARK    7  A    between atoms: C_11  and  N_12
REMARK    8  A    between atoms: N_12  and  CA_13
REMARK    9  A    between atoms: CA_13  and  C_14
REMARK   10  A    between atoms: CA_13  and  C_16
REMARK   11  A    between atoms: C_14  and  O_15
REMARK                            x       y       z     vdW  Elec       q    Type
REMARK                         _______ _______ _______ _____ _____    ______ ____
ROOT
ATOM      1  CA  UNL     1      47.943   7.025  13.842  0.00  0.00    +0.000 C 
ENDROOT
BRANCH   1   2
ATOM      2  C   UNL     1      46.741   6.510  13.054  0.00  0.00    +0.000 A 
ATOM      3  C   UNL     1      46.509   7.026  11.767  0.00  0.00    +0.000 A 
ATOM      4  C   UNL     1      45.446   6.562  10.986  0.00  0.00    +0.000 A 
ATOM      5  C   UNL     1      44.589   5.560  11.463  0.00  0.00    +0.000 A 
ATOM      6  C   UNL     1      44.822   5.037  12.740  0.00  0.00    +0.000 A 
ATOM      7  C   UNL     1      45.891   5.496  13.519  0.00  0.00    +0.000 A 
BRANCH   5   8
ATOM      8  C   UNL     1      43.440   5.060  10.611  0.00  0.00    +0.000 C 
BRANCH   8   9
ATOM      9  N   UNL     1      43.953   4.363   9.433  0.00  0.00    +0.000 NA
ATOM     10  H   UNL     1      44.544   5.018   8.917  0.00  0.00    +0.000 HD
BRANCH   9  11
ATOM     11  CA  UNL     1      44.772   3.167   9.729  0.00  0.00    +0.000 C 
BRANCH  11  12
ATOM     12  C   UNL     1      45.651   2.831   8.522  0.00  0.00    +0.000 A 
ATOM     13  C   UNL     1      46.134   1.524   8.341  0.00  0.00    +0.000 A 
ATOM     14  C   UNL     1      46.921   1.209   7.228  0.00  0.00    +0.000 A 
ATOM     15  C   UNL     1      47.239   2.186   6.287  0.00  0.00    +0.000 A 
ATOM     16  C   UNL     1      46.767   3.485   6.449  0.00  0.00    +0.000 A 
ATOM     17  C   UNL     1      45.978   3.801   7.552  0.00  0.00    +0.000 A 
ENDBRANCH  11  12
BRANCH  11  18
ATOM     18  C   UNL     1      43.921   1.928  10.117  0.00  0.00    +0.000 C 
BRANCH  18  19
ATOM     19  O   UNL     1      43.342   2.056  11.417  0.00  0.00    +0.000 OA
ATOM     20  H   UNL     1      43.846   1.446  11.989  0.00  0.00    +0.000 HD
ENDBRANCH  18  19
ENDBRANCH  11  18
ENDBRANCH   9  11
ENDBRANCH   8   9
ENDBRANCH   5   8
ENDBRANCH   1   2
BRANCH   1  23
ATOM     21  O   UNL     1      50.144   6.450  15.517  0.00  0.00    +0.000 OA
ATOM     22  C   UNL     1      49.010   6.249  15.942  0.00  0.00    +0.000 C 
ATOM     23  N   UNL     1      47.894   6.436  15.172  0.00  0.00    +0.000 N 
ATOM     24  H   UNL     1      46.980   6.410  15.610  0.00  0.00    +0.000 HD
BRANCH  22  25
ATOM     25  C   UNL     1      48.780   5.744  17.302  0.00  0.00    +0.000 A 
ATOM     26  C   UNL     1      49.068   4.423  17.609  0.00  0.00    +0.000 A 
ATOM     27  S   UNL     1      48.721   4.007  19.227  0.00  0.00    +0.000 S 
ATOM     28  C   UNL     1      48.219   5.593  19.585  0.00  0.00    +0.000 A 
ATOM     29  N   UNL     1      47.814   5.934  20.838  0.00  0.00    +0.000 NA
ATOM     30  C   UNL     1      47.496   7.178  20.977  0.00  0.00    +0.000 A 
ATOM     31  N   UNL     1      47.537   8.111  19.974  0.00  0.00    +0.000 N 
ATOM     32  C   UNL     1      47.904   7.806  18.685  0.00  0.00    +0.000 A 
ATOM     33  O   UNL     1      47.870   8.651  17.794  0.00  0.00    +0.000 OA
ATOM     34  C   UNL     1      48.292   6.423  18.481  0.00  0.00    +0.000 A 
ATOM     35  H   UNL     1      47.260   9.066  20.145  0.00  0.00    +0.000 HD
ENDBRANCH  22  25
ENDBRANCH   1  23
BRANCH   1  36
ATOM     36  C   UNL     1      48.060   8.567  13.934  0.00  0.00    +0.000 C 
BRANCH  36  37
ATOM     37  O   UNL     1      47.192   9.134  14.915  0.00  0.00    +0.000 OA
ATOM     38  H   UNL     1      46.284   9.090  14.568  0.00  0.00    +0.000 HD
ENDBRANCH  36  37
ENDBRANCH   1  36
TORSDOF 11
ENDMDL
MODEL 2
REMARK VINA RESULT:    -7.983      1.442      2.085
REMARK INTER + INTRA:         -14.099
REMARK INTER:                 -12.834
REMARK INTRA:                  -1.265
REMARK UNBOUND:                -1.449
REMARK  Name = 
REMARK  11 active torsions:
REMARK  status: ('A' for Active; 'I' for Inactive)
REMARK    1  A    between atoms: C_2  and  C_24
REMARK    2  A    between atoms: N_3  and  CA_4
REMARK    3  A    between atoms: CA_4  and  C_5
REMARK    4  A    between atoms: CA_4  and  C_7
REMARK    5  A    between atoms: C_5  and  O_6
REMARK    6  A    between atoms: C_10  and  C_11
REMARK    7  A    between atoms: C_11  and  N_12
REMARK    8  A    between atoms: N_12  and  CA_13
REMARK    9  A    between atoms: CA_13  and  C_14
REMARK   10  A    between atoms: CA_13  and  C_16
REMARK   11  A    between atoms: C_14  and  O_15
REMARK                            x       y       z     vdW  Elec       q    Type
REMARK                         _______ _______ _______ _____ _____    ______ ____
ROOT
ATOM      1  CA  UNL     1      48.481   6.566  13.781  0.00  0.00    +0.000 C 
ENDROOT
BRANCH   1   2
ATOM      2  C   UNL     1      47.173   6.232  13.068  0.00  0.00    +0.000 A 
ATOM      3  C   UNL     1      46.970   6.723  11.767  0.00  0.00    +0.000 A 
ATOM      4  C   UNL     1      45.809   6.414  11.053  0.00  0.00    +0.000 A 
ATOM      5  C   UNL     1      44.819   5.595  11.613  0.00  0.00    +0.000 A 
ATOM      6  C   UNL     1      45.020   5.095  12.904  0.00  0.00    +0.000 A 
ATOM      7  C   UNL     1      46.188   5.398  13.617  0.00  0.00    +0.000 A 
BRANCH   5   8
ATOM      8  C   UNL     1      43.562   5.262  10.834  0.00  0.00    +0.000 C 
BRANCH   8   9
ATOM      9  N   UNL     1      43.898   4.470   9.652  0.00  0.00    +0.000 NA
ATOM     10  H   UNL     1      44.439   5.065   9.022  0.00  0.00    +0.000 HD
BRANCH   9  11
ATOM     11  CA  UNL     1      44.709   3.263   9.925  0.00  0.00    +0.000 C 
BRANCH  11  12
ATOM     12  C   UNL     1      45.556   2.920   8.697  0.00  0.00    +0.000 A 
ATOM     13  C   UNL     1      45.910   3.923   7.780  0.00  0.00    +0.000 A 
ATOM     14  C   UNL     1      46.701   3.617   6.667  0.00  0.00    +0.000 A 
ATOM     15  C   UNL     1      47.145   2.314   6.453  0.00  0.00    +0.000 A 
ATOM     16  C   UNL     1      46.807   1.309   7.353  0.00  0.00    +0.000 A 
ATOM     17  C   UNL     1      46.026   1.611   8.465  0.00  0.00    +0.000 A 
ENDBRANCH  11  12
BRANCH  11  18
ATOM     18  C   UNL     1      43.851   2.033  10.328  0.00  0.00    +0.000 C 
BRANCH  18  19
ATOM     19  O   UNL     1      43.192   2.222  11.581  0.00  0.00    +0.000 OA
ATOM     20  H   UNL     1      43.098   3.189  11.684  0.00  0.00    +0.000 HD
ENDBRANCH  18  19
ENDBRANCH  11  18
ENDBRANCH   9  11
ENDBRANCH   8   9
ENDBRANCH   5   8
ENDBRANCH   1   2
BRANCH   1  23
ATOM     21  O   UNL     1      50.311   6.176  15.896  0.00  0.00    +0.000 OA
ATOM     22  C   UNL     1      49.167   6.532  16.163  0.00  0.00    +0.000 C 
ATOM     23  N   UNL     1      48.202   6.677  15.204  0.00  0.00    +0.000 N 
ATOM     24  H   UNL     1      47.323   7.122  15.449  0.00  0.00    +0.000 HD
BRANCH  22  25
ATOM     25  C   UNL     1      48.746   6.781  17.548  0.00  0.00    +0.000 A 
ATOM     26  C   UNL     1      48.327   8.047  17.928  0.00  0.00    +0.000 A 
ATOM     27  S   UNL     1      47.895   8.158  19.574  0.00  0.00    +0.000 S 
ATOM     28  C   UNL     1      48.207   6.505  19.824  0.00  0.00    +0.000 A 
ATOM     29  N   UNL     1      48.005   5.929  21.040  0.00  0.00    +0.000 NA
ATOM     30  C   UNL     1      48.247   4.660  21.079  0.00  0.00    +0.000 A 
ATOM     31  N   UNL     1      48.682   3.917  20.013  0.00  0.00    +0.000 N 
ATOM     32  C   UNL     1      48.936   4.460  18.776  0.00  0.00    +0.000 A 
ATOM     33  O   UNL     1      49.385   3.778  17.859  0.00  0.00    +0.000 OA
ATOM     34  C   UNL     1      48.658   5.880  18.675  0.00  0.00    +0.000 A 
ATOM     35  H   UNL     1      48.868   2.930  20.114  0.00  0.00    +0.000 HD
ENDBRANCH  22  25
ENDBRANCH   1  23
BRANCH   1  36
ATOM     36  C   UNL     1      49.204   7.837  13.268  0.00  0.00    +0.000 C 
BRANCH  36  37
ATOM     37  O   UNL     1      50.623   7.688  13.216  0.00  0.00    +0.000 OA
ATOM     38  H   UNL     1      50.901   7.807  12.291  0.00  0.00    +0.000 HD
ENDBRANCH  36  37
ENDBRANCH   1  36
TORSDOF 11
ENDMDL
MODEL 3
REMARK VINA RESULT:    -7.753      1.646      2.321
REMARK INTER + INTRA:         -13.734
REMARK INTER:                 -12.376
REMARK INTRA:                  -1.358
REMARK UNBOUND:                -1.449
REMARK  Name = 
REMARK  11 active torsions:
REMARK  status: ('A' for Active; 'I' for Inactive)
REMARK    1  A    between atoms: C_2  and  C_24
REMARK    2  A    between atoms: N_3  and  CA_4
REMARK    3  A    between atoms: CA_4  and  C_5
REMARK    4  A    between atoms: CA_4  and  C_7
REMARK    5  A    between atoms: C_5  and  O_6
REMARK    6  A    between atoms: C_10  and  C_11
REMARK    7  A    between atoms: C_11  and  N_12
REMARK    8  A    between atoms: N_12  and  CA_13
REMARK    9  A    between atoms: CA_13  and  C_14
REMARK   10  A    between atoms: CA_13  and  C_16
REMARK   11  A    between atoms: C_14  and  O_15
REMARK                            x       y       z     vdW  Elec       q    Type
REMARK                         _______ _______ _______ _____ _____    ______ ____
ROOT
ATOM      1  CA  UNL     1      48.016   7.933  13.612  0.00  0.00    +0.000 C 
ENDROOT
BRANCH   1   2
ATOM      2  C   UNL     1      46.750   7.399  12.947  0.00  0.00    +0.000 A 
ATOM      3  C   UNL     1      46.208   6.187  13.407  0.00  0.00    +0.000 A 
ATOM      4  C   UNL     1      45.028   5.671  12.862  0.00  0.00    +0.000 A 
ATOM      5  C   UNL     1      44.348   6.358  11.847  0.00  0.00    +0.000 A 
ATOM      6  C   UNL     1      44.878   7.570  11.392  0.00  0.00    +0.000 A 
ATOM      7  C   UNL     1      46.056   8.091  11.943  0.00  0.00    +0.000 A 
BRANCH   5   8
ATOM      8  C   UNL     1      43.068   5.796  11.261  0.00  0.00    +0.000 C 
BRANCH   8   9
ATOM      9  N   UNL     1      43.377   4.862  10.180  0.00  0.00    +0.000 NA
ATOM     10  H   UNL     1      43.832   5.391   9.433  0.00  0.00    +0.000 HD
BRANCH   9  11
ATOM     11  CA  UNL     1      44.288   3.758  10.556  0.00  0.00    +0.000 C 
BRANCH  11  12
ATOM     12  C   UNL     1      45.140   3.356   9.351  0.00  0.00    +0.000 A 
ATOM     13  C   UNL     1      45.401   2.001   9.089  0.00  0.00    +0.000 A 
ATOM     14  C   UNL     1      46.164   1.629   7.976  0.00  0.00    +0.000 A 
ATOM     15  C   UNL     1      46.677   2.597   7.116  0.00  0.00    +0.000 A 
ATOM     16  C   UNL     1      46.426   3.944   7.358  0.00  0.00    +0.000 A 
ATOM     17  C   UNL     1      45.662   4.318   8.460  0.00  0.00    +0.000 A 
ENDBRANCH  11  12
BRANCH  11  18
ATOM     18  C   UNL     1      43.538   2.513  11.104  0.00  0.00    +0.000 C 
BRANCH  18  19
ATOM     19  O   UNL     1      43.721   2.350  12.512  0.00  0.00    +0.000 OA
ATOM     20  H   UNL     1      42.821   2.323  12.892  0.00  0.00    +0.000 HD
ENDBRANCH  18  19
ENDBRANCH  11  18
ENDBRANCH   9  11
ENDBRANCH   8   9
ENDBRANCH   5   8
ENDBRANCH   1   2
BRANCH   1  23
ATOM     21  O   UNL     1      50.452   7.075  14.754  0.00  0.00    +0.000 OA
ATOM     22  C   UNL     1      49.414   6.914  15.388  0.00  0.00    +0.000 C 
ATOM     23  N   UNL     1      48.186   7.240  14.879  0.00  0.00    +0.000 N 
ATOM     24  H   UNL     1      47.379   7.237  15.493  0.00  0.00    +0.000 HD
BRANCH  22  25
ATOM     25  C   UNL     1      49.420   6.314  16.728  0.00  0.00    +0.000 A 
ATOM     26  C   UNL     1      50.025   6.979  17.784  0.00  0.00    +0.000 A 
ATOM     27  S   UNL     1      49.954   6.127  19.259  0.00  0.00    +0.000 S 
ATOM     28  C   UNL     1      49.070   4.860  18.548  0.00  0.00    +0.000 A 
ATOM     29  N   UNL     1      48.652   3.796  19.286  0.00  0.00    +0.000 NA
ATOM     30  C   UNL     1      47.960   2.926  18.627  0.00  0.00    +0.000 A 
ATOM     31  N   UNL     1      47.657   3.019  17.294  0.00  0.00    +0.000 N 
ATOM     32  C   UNL     1      48.088   4.054  16.499  0.00  0.00    +0.000 A 
ATOM     33  O   UNL     1      47.852   4.076  15.294  0.00  0.00    +0.000 OA
ATOM     34  C   UNL     1      48.852   5.070  17.198  0.00  0.00    +0.000 A 
ATOM     35  H   UNL     1      47.124   2.296  16.834  0.00  0.00    +0.000 HD
ENDBRANCH  22  25
ENDBRANCH   1  23
BRANCH   1  36
ATOM     36  C   UNL     1      48.052   9.468  13.823  0.00  0.00    +0.000 C 
BRANCH  36  37
ATOM     37  O   UNL     1      47.858   9.848  15.185  0.00  0.00    +0.000 OA
ATOM     38  H   UNL     1      48.566  10.473  15.422  0.00  0.00    +0.000 HD
ENDBRANCH  36  37
ENDBRANCH   1  36
TORSDOF 11
ENDMDL
MODEL 4
REMARK VINA RESULT:    -7.325      3.319      4.791
REMARK INTER + INTRA:         -13.056
REMARK INTER:                 -11.674
REMARK INTRA:                  -1.381
REMARK UNBOUND:                -1.449
REMARK  Name = 
REMARK  11 active torsions:
REMARK  status: ('A' for Active; 'I' for Inactive)
REMARK    1  A    between atoms: C_2  and  C_24
REMARK    2  A    between atoms: N_3  and  CA_4
REMARK    3  A    between atoms: CA_4  and  C_5
REMARK    4  A    between atoms: CA_4  and  C_7
REMARK    5  A    between atoms: C_5  and  O_6
REMARK    6  A    between atoms: C_10  and  C_11
REMARK    7  A    between atoms: C_11  and  N_12
REMARK    8  A    between atoms: N_12  and  CA_13
REMARK    9  A    between atoms: CA_13  and  C_14
REMARK   10  A    between atoms: CA_13  and  C_16
REMARK   11  A    between atoms: C_14  and  O_15
REMARK                            x       y       z     vdW  Elec       q    Type
REMARK                         _______ _______ _______ _____ _____    ______ ____
ROOT
ATOM      1  CA  UNL     1      48.999   6.169  17.494  0.00  0.00    +0.000 C 
ENDROOT
BRANCH   1   2
ATOM      2  C   UNL     1      48.289   5.648  16.245  0.00  0.00    +0.000 A 
ATOM      3  C   UNL     1      47.585   4.435  16.328  0.00  0.00    +0.000 A 
ATOM      4  C   UNL     1      46.884   3.932  15.227  0.00  0.00    +0.000 A 
ATOM      5  C   UNL     1      46.858   4.632  14.013  0.00  0.00    +0.000 A 
ATOM      6  C   UNL     1      47.550   5.845  13.929  0.00  0.00    +0.000 A 
ATOM      7  C   UNL     1      48.245   6.354  15.034  0.00  0.00    +0.000 A 
BRANCH   5   8
ATOM      8  C   UNL     1      46.095   4.084  12.824  0.00  0.00    +0.000 C 
BRANCH   8   9
ATOM      9  N   UNL     1      45.196   5.104  12.289  0.00  0.00    +0.000 NA
ATOM     10  H   UNL     1      45.756   5.747  11.725  0.00  0.00    +0.000 HD
BRANCH   9  11
ATOM     11  CA  UNL     1      44.116   4.584  11.422  0.00  0.00    +0.000 C 
BRANCH  11  12
ATOM     12  C   UNL     1      44.717   3.975  10.153  0.00  0.00    +0.000 A 
ATOM     13  C   UNL     1      45.381   4.792   9.223  0.00  0.00    +0.000 A 
ATOM     14  C   UNL     1      45.949   4.236   8.071  0.00  0.00    +0.000 A 
ATOM     15  C   UNL     1      45.861   2.867   7.831  0.00  0.00    +0.000 A 
ATOM     16  C   UNL     1      45.210   2.042   8.743  0.00  0.00    +0.000 A 
ATOM     17  C   UNL     1      44.649   2.591   9.893  0.00  0.00    +0.000 A 
ENDBRANCH  11  12
BRANCH  11  18
ATOM     18  C   UNL     1      43.071   5.667  11.038  0.00  0.00    +0.000 C 
BRANCH  18  19
ATOM     19  O   UNL     1      43.520   6.986  11.357  0.00  0.00    +0.000 OA
ATOM     20  H   UNL     1      44.448   6.885  11.643  0.00  0.00    +0.000 HD
ENDBRANCH  18  19
ENDBRANCH  11  18
ENDBRANCH   9  11
ENDBRANCH   8   9
ENDBRANCH   5   8
ENDBRANCH   1   2
BRANCH   1  23
ATOM     21  O   UNL     1      51.640   6.134  16.495  0.00  0.00    +0.000 OA
ATOM     22  C   UNL     1      51.324   5.318  17.355  0.00  0.00    +0.000 C 
ATOM     23  N   UNL     1      50.048   5.223  17.842  0.00  0.00    +0.000 N 
ATOM     24  H   UNL     1      49.871   4.646  18.658  0.00  0.00    +0.000 HD
BRANCH  22  25
ATOM     25  C   UNL     1      52.292   4.350  17.887  0.00  0.00    +0.000 A 
ATOM     26  C   UNL     1      53.413   4.797  18.571  0.00  0.00    +0.000 A 
ATOM     27  S   UNL     1      54.436   3.538  19.099  0.00  0.00    +0.000 S 
ATOM     28  C   UNL     1      53.391   2.351  18.474  0.00  0.00    +0.000 A 
ATOM     29  N   UNL     1      53.668   1.027  18.617  0.00  0.00    +0.000 NA
ATOM     30  C   UNL     1      52.772   0.236  18.127  0.00  0.00    +0.000 A 
ATOM     31  N   UNL     1      51.627   0.650  17.498  0.00  0.00    +0.000 N 
ATOM     32  C   UNL     1      51.322   1.976  17.297  0.00  0.00    +0.000 A 
ATOM     33  O   UNL     1      50.318   2.312  16.674  0.00  0.00    +0.000 OA
ATOM     34  C   UNL     1      52.288   2.906  17.849  0.00  0.00    +0.000 A 
ATOM     35  H   UNL     1      50.973  -0.020  17.123  0.00  0.00    +0.000 HD
ENDBRANCH  22  25
ENDBRANCH   1  23
BRANCH   1  36
ATOM     36  C   UNL     1      48.079   6.433  18.712  0.00  0.00    +0.000 C 
BRANCH  36  37
ATOM     37  O   UNL     1      47.183   7.526  18.508  0.00  0.00    +0.000 OA
ATOM     38  H   UNL     1      46.919   7.521  17.571  0.00  0.00    +0.000 HD
ENDBRANCH  36  37
ENDBRANCH   1  36
TORSDOF 11
ENDMDL
MODEL 5
REMARK VINA RESULT:    -7.087      1.696      2.153
REMARK INTER + INTRA:         -12.680
REMARK INTER:                 -10.942
REMARK INTRA:                  -1.737
REMARK UNBOUND:                -1.449
REMARK  Name = 
REMARK  11 active torsions:
REMARK  status: ('A' for Active; 'I' for Inactive)
REMARK    1  A    between atoms: C_2  and  C_24
REMARK    2  A    between atoms: N_3  and  CA_4
REMARK    3  A    between atoms: CA_4  and  C_5
REMARK    4  A    between atoms: CA_4  and  C_7
REMARK    5  A    between atoms: C_5  and  O_6
REMARK    6  A    between atoms: C_10  and  C_11
REMARK    7  A    between atoms: C_11  and  N_12
REMARK    8  A    between atoms: N_12  and  CA_13
REMARK    9  A    between atoms: CA_13  and  C_14
REMARK   10  A    between atoms: CA_13  and  C_16
REMARK   11  A    between atoms: C_14  and  O_15
REMARK                            x       y       z     vdW  Elec       q    Type
REMARK                         _______ _______ _______ _____ _____    ______ ____
ROOT
ATOM      1  CA  UNL     1      48.339   6.949  13.399  0.00  0.00    +0.000 C 
ENDROOT
BRANCH   1   2
ATOM      2  C   UNL     1      46.994   6.545  12.801  0.00  0.00    +0.000 A 
ATOM      3  C   UNL     1      46.721   6.885  11.465  0.00  0.00    +0.000 A 
ATOM      4  C   UNL     1      45.521   6.505  10.855  0.00  0.00    +0.000 A 
ATOM      5  C   UNL     1      44.563   5.762  11.559  0.00  0.00    +0.000 A 
ATOM      6  C   UNL     1      44.834   5.413  12.886  0.00  0.00    +0.000 A 
ATOM      7  C   UNL     1      46.039   5.787  13.495  0.00  0.00    +0.000 A 
BRANCH   5   8
ATOM      8  C   UNL     1      43.265   5.351  10.892  0.00  0.00    +0.000 C 
BRANCH   8   9
ATOM      9  N   UNL     1      43.533   4.410   9.807  0.00  0.00    +0.000 NA
ATOM     10  H   UNL     1      43.960   4.935   9.039  0.00  0.00    +0.000 HD
BRANCH   9  11
ATOM     11  CA  UNL     1      44.456   3.308  10.155  0.00  0.00    +0.000 C 
BRANCH  11  12
ATOM     12  C   UNL     1      45.391   3.024   8.977  0.00  0.00    +0.000 A 
ATOM     13  C   UNL     1      45.842   1.717   8.731  0.00  0.00    +0.000 A 
ATOM     14  C   UNL     1      46.681   1.450   7.643  0.00  0.00    +0.000 A 
ATOM     15  C   UNL     1      47.082   2.477   6.793  0.00  0.00    +0.000 A 
ATOM     16  C   UNL     1      46.643   3.778   7.019  0.00  0.00    +0.000 A 
ATOM     17  C   UNL     1      45.803   4.046   8.096  0.00  0.00    +0.000 A 
ENDBRANCH  11  12
BRANCH  11  18
ATOM     18  C   UNL     1      43.718   2.004  10.562  0.00  0.00    +0.000 C 
BRANCH  18  19
ATOM     19  O   UNL     1      43.276   2.036  11.921  0.00  0.00    +0.000 OA
ATOM     20  H   UNL     1      43.888   1.453  12.410  0.00  0.00    +0.000 HD
ENDBRANCH  18  19
ENDBRANCH  11  18
ENDBRANCH   9  11
ENDBRANCH   8   9
ENDBRANCH   5   8
ENDBRANCH   1   2
BRANCH   1  23
ATOM     21  O   UNL     1      49.425   5.930  15.798  0.00  0.00    +0.000 OA
ATOM     22  C   UNL     1      48.720   6.933  15.849  0.00  0.00    +0.000 C 
ATOM     23  N   UNL     1      48.101   7.451  14.744  0.00  0.00    +0.000 N 
ATOM     24  H   UNL     1      47.661   8.363  14.804  0.00  0.00    +0.000 HD
BRANCH  22  25
ATOM     25  C   UNL     1      48.456   7.620  17.120  0.00  0.00    +0.000 A 
ATOM     26  C   UNL     1      48.212   6.883  18.269  0.00  0.00    +0.000 A 
ATOM     27  S   UNL     1      47.906   7.845  19.645  0.00  0.00    +0.000 S 
ATOM     28  C   UNL     1      48.137   9.279  18.761  0.00  0.00    +0.000 A 
ATOM     29  N   UNL     1      48.046  10.496  19.363  0.00  0.00    +0.000 NA
ATOM     30  C   UNL     1      48.280  11.498  18.582  0.00  0.00    +0.000 A 
ATOM     31  N   UNL     1      48.587  11.395  17.251  0.00  0.00    +0.000 N 
ATOM     32  C   UNL     1      48.653  10.191  16.590  0.00  0.00    +0.000 A 
ATOM     33  O   UNL     1      48.868  10.137  15.383  0.00  0.00    +0.000 OA
ATOM     34  C   UNL     1      48.419   9.031  17.430  0.00  0.00    +0.000 A 
ATOM     35  H   UNL     1      48.743  12.220  16.692  0.00  0.00    +0.000 HD
ENDBRANCH  22  25
ENDBRANCH   1  23
BRANCH   1  36
ATOM     36  C   UNL     1      49.145   7.980  12.569  0.00  0.00    +0.000 C 
BRANCH  36  37
ATOM     37  O   UNL     1      48.776   9.331  12.848  0.00  0.00    +0.000 OA
ATOM     38  H   UNL     1      47.815   9.350  13.003  0.00  0.00    +0.000 HD
ENDBRANCH  36  37
ENDBRANCH   1  36
TORSDOF 11
ENDMDL
MODEL 6
REMARK VINA RESULT:    -7.073      2.817      8.789
REMARK INTER + INTRA:         -12.657
REMARK INTER:                 -10.539
REMARK INTRA:                  -2.119
REMARK UNBOUND:                -1.449
REMARK  Name = 
REMARK  11 active torsions:
REMARK  status: ('A' for Active; 'I' for Inactive)
REMARK    1  A    between atoms: C_2  and  C_24
REMARK    2  A    between atoms: N_3  and  CA_4
REMARK    3  A    between atoms: CA_4  and  C_5
REMARK    4  A    between atoms: CA_4  and  C_7
REMARK    5  A    between atoms: C_5  and  O_6
REMARK    6  A    between atoms: C_10  and  C_11
REMARK    7  A    between atoms: C_11  and  N_12
REMARK    8  A    between atoms: N_12  and  CA_13
REMARK    9  A    between atoms: CA_13  and  C_14
REMARK   10  A    between atoms: CA_13  and  C_16
REMARK   11  A    between atoms: C_14  and  O_15
REMARK                            x       y       z     vdW  Elec       q    Type
REMARK                         _______ _______ _______ _____ _____    ______ ____
ROOT
ATOM      1  CA  UNL     1      47.908   7.830  12.479  0.00  0.00    +0.000 C 
ENDROOT
BRANCH   1   2
ATOM      2  C   UNL     1      48.381   7.838  13.930  0.00  0.00    +0.000 A 
ATOM      3  C   UNL     1      47.905   8.845  14.788  0.00  0.00    +0.000 A 
ATOM      4  C   UNL     1      48.274   8.877  16.136  0.00  0.00    +0.000 A 
ATOM      5  C   UNL     1      49.121   7.897  16.671  0.00  0.00    +0.000 A 
ATOM      6  C   UNL     1      49.590   6.887  15.824  0.00  0.00    +0.000 A 
ATOM      7  C   UNL     1      49.214   6.850  14.475  0.00  0.00    +0.000 A 
BRANCH   5   8
ATOM      8  C   UNL     1      49.516   7.935  18.134  0.00  0.00    +0.000 C 
BRANCH   8   9
ATOM      9  N   UNL     1      48.479   7.311  18.952  0.00  0.00    +0.000 NA
ATOM     10  H   UNL     1      47.670   7.140  18.352  0.00  0.00    +0.000 HD
BRANCH   9  11
ATOM     11  CA  UNL     1      48.862   6.015  19.556  0.00  0.00    +0.000 C 
BRANCH  11  12
ATOM     12  C   UNL     1      48.630   4.886  18.549  0.00  0.00    +0.000 A 
ATOM     13  C   UNL     1      47.391   4.761  17.901  0.00  0.00    +0.000 A 
ATOM     14  C   UNL     1      47.182   3.741  16.965  0.00  0.00    +0.000 A 
ATOM     15  C   UNL     1      48.198   2.837  16.666  0.00  0.00    +0.000 A 
ATOM     16  C   UNL     1      49.433   2.949  17.297  0.00  0.00    +0.000 A 
ATOM     17  C   UNL     1      49.647   3.965  18.224  0.00  0.00    +0.000 A 
ENDBRANCH  11  12
BRANCH  11  18
ATOM     18  C   UNL     1      48.096   5.708  20.871  0.00  0.00    +0.000 C 
BRANCH  18  19
ATOM     19  O   UNL     1      48.024   4.307  21.139  0.00  0.00    +0.000 OA
ATOM     20  H   UNL     1      47.755   3.892  20.296  0.00  0.00    +0.000 HD
ENDBRANCH  18  19
ENDBRANCH  11  18
ENDBRANCH   9  11
ENDBRANCH   8   9
ENDBRANCH   5   8
ENDBRANCH   1   2
BRANCH   1  23
ATOM     21  O   UNL     1      45.090   7.666  12.553  0.00  0.00    +0.000 OA
ATOM     22  C   UNL     1      45.732   6.660  12.268  0.00  0.00    +0.000 C 
ATOM     23  N   UNL     1      47.100   6.637  12.276  0.00  0.00    +0.000 N 
ATOM     24  H   UNL     1      47.584   5.836  11.883  0.00  0.00    +0.000 HD
BRANCH  22  25
ATOM     25  C   UNL     1      45.065   5.393  11.942  0.00  0.00    +0.000 A 
ATOM     26  C   UNL     1      44.312   4.738  12.905  0.00  0.00    +0.000 A 
ATOM     27  S   UNL     1      43.629   3.274  12.357  0.00  0.00    +0.000 S 
ATOM     28  C   UNL     1      44.277   3.489  10.800  0.00  0.00    +0.000 A 
ATOM     29  N   UNL     1      44.039   2.587   9.810  0.00  0.00    +0.000 NA
ATOM     30  C   UNL     1      44.561   2.893   8.669  0.00  0.00    +0.000 A 
ATOM     31  N   UNL     1      45.309   4.016   8.430  0.00  0.00    +0.000 N 
ATOM     32  C   UNL     1      45.608   4.937   9.406  0.00  0.00    +0.000 A 
ATOM     33  O   UNL     1      46.333   5.901   9.175  0.00  0.00    +0.000 OA
ATOM     34  C   UNL     1      45.025   4.649  10.703  0.00  0.00    +0.000 A 
ATOM     35  H   UNL     1      45.703   4.190   7.518  0.00  0.00    +0.000 HD
ENDBRANCH  22  25
ENDBRANCH   1  23
BRANCH   1  36
ATOM     36  C   UNL     1      49.035   7.910  11.418  0.00  0.00    +0.000 C 
BRANCH  36  37
ATOM     37  O   UNL     1      49.686   9.180  11.392  0.00  0.00    +0.000 OA
ATOM     38  H   UNL     1      50.570   9.068  11.782  0.00  0.00    +0.000 HD
ENDBRANCH  36  37
ENDBRANCH   1  36
TORSDOF 11
ENDMDL
MODEL 7
REMARK VINA RESULT:    -6.971      3.146      8.425
REMARK INTER + INTRA:         -12.495
REMARK INTER:                 -10.727
REMARK INTRA:                  -1.767
REMARK UNBOUND:                -1.449
REMARK  Name = 
REMARK  11 active torsions:
REMARK  status: ('A' for Active; 'I' for Inactive)
REMARK    1  A    between atoms: C_2  and  C_24
REMARK    2  A    between atoms: N_3  and  CA_4
REMARK    3  A    between atoms: CA_4  and  C_5
REMARK    4  A    between atoms: CA_4  and  C_7
REMARK    5  A    between atoms: C_5  and  O_6
REMARK    6  A    between atoms: C_10  and  C_11
REMARK    7  A    between atoms: C_11  and  N_12
REMARK    8  A    between atoms: N_12  and  CA_13
REMARK    9  A    between atoms: CA_13  and  C_14
REMARK   10  A    between atoms: CA_13  and  C_16
REMARK   11  A    between atoms: C_14  and  O_15
REMARK                            x       y       z     vdW  Elec       q    Type
REMARK                         _______ _______ _______ _____ _____    ______ ____
ROOT
ATOM      1  CA  UNL     1      48.264   8.169  12.129  0.00  0.00    +0.000 C 
ENDROOT
BRANCH   1   2
ATOM      2  C   UNL     1      48.391   8.037  13.645  0.00  0.00    +0.000 A 
ATOM      3  C   UNL     1      48.274   9.194  14.434  0.00  0.00    +0.000 A 
ATOM      4  C   UNL     1      48.342   9.125  15.828  0.00  0.00    +0.000 A 
ATOM      5  C   UNL     1      48.517   7.896  16.478  0.00  0.00    +0.000 A 
ATOM      6  C   UNL     1      48.624   6.740  15.697  0.00  0.00    +0.000 A 
ATOM      7  C   UNL     1      48.548   6.807  14.300  0.00  0.00    +0.000 A 
BRANCH   5   8
ATOM      8  C   UNL     1      48.588   7.826  17.990  0.00  0.00    +0.000 C 
BRANCH   8   9
ATOM      9  N   UNL     1      47.914   6.622  18.471  0.00  0.00    +0.000 NA
ATOM     10  H   UNL     1      47.527   6.137  17.659  0.00  0.00    +0.000 HD
BRANCH   9  11
ATOM     11  CA  UNL     1      48.790   5.663  19.181  0.00  0.00    +0.000 C 
BRANCH  11  12
ATOM     12  C   UNL     1      49.016   4.426  18.310  0.00  0.00    +0.000 A 
ATOM     13  C   UNL     1      50.309   3.899  18.152  0.00  0.00    +0.000 A 
ATOM     14  C   UNL     1      50.516   2.755  17.372  0.00  0.00    +0.000 A 
ATOM     15  C   UNL     1      49.446   2.127  16.740  0.00  0.00    +0.000 A 
ATOM     16  C   UNL     1      48.158   2.633  16.889  0.00  0.00    +0.000 A 
ATOM     17  C   UNL     1      47.946   3.767  17.669  0.00  0.00    +0.000 A 
ENDBRANCH  11  12
BRANCH  11  18
ATOM     18  C   UNL     1      48.226   5.234  20.562  0.00  0.00    +0.000 C 
BRANCH  18  19
ATOM     19  O   UNL     1      46.881   5.675  20.757  0.00  0.00    +0.000 OA
ATOM     20  H   UNL     1      46.848   6.582  20.396  0.00  0.00    +0.000 HD
ENDBRANCH  18  19
ENDBRANCH  11  18
ENDBRANCH   9  11
ENDBRANCH   8   9
ENDBRANCH   5   8
ENDBRANCH   1   2
BRANCH   1  23
ATOM     21  O   UNL     1      45.483   8.000  11.667  0.00  0.00    +0.000 OA
ATOM     22  C   UNL     1      46.188   7.037  11.382  0.00  0.00    +0.000 C 
ATOM     23  N   UNL     1      47.533   7.012  11.636  0.00  0.00    +0.000 N 
ATOM     24  H   UNL     1      48.098   6.267  11.242  0.00  0.00    +0.000 HD
BRANCH  22  25
ATOM     25  C   UNL     1      45.620   5.821  10.785  0.00  0.00    +0.000 A 
ATOM     26  C   UNL     1      45.863   5.525   9.452  0.00  0.00    +0.000 A 
ATOM     27  S   UNL     1      45.110   4.088   8.925  0.00  0.00    +0.000 S 
ATOM     28  C   UNL     1      44.474   3.787  10.473  0.00  0.00    +0.000 A 
ATOM     29  N   UNL     1      43.735   2.673  10.724  0.00  0.00    +0.000 NA
ATOM     30  C   UNL     1      43.346   2.553  11.950  0.00  0.00    +0.000 A 
ATOM     31  N   UNL     1      43.621   3.452  12.947  0.00  0.00    +0.000 N 
ATOM     32  C   UNL     1      44.331   4.610  12.734  0.00  0.00    +0.000 A 
ATOM     33  O   UNL     1      44.506   5.426  13.635  0.00  0.00    +0.000 OA
ATOM     34  C   UNL     1      44.809   4.781  11.376  0.00  0.00    +0.000 A 
ATOM     35  H   UNL     1      43.274   3.307  13.883  0.00  0.00    +0.000 HD
ENDBRANCH  22  25
ENDBRANCH   1  23
BRANCH   1  36
ATOM     36  C   UNL     1      49.604   8.331  11.367  0.00  0.00    +0.000 C 
BRANCH  36  37
ATOM     37  O   UNL     1      50.516   7.259  11.611  0.00  0.00    +0.000 OA
ATOM     38  H   UNL     1      51.414   7.633  11.631  0.00  0.00    +0.000 HD
ENDBRANCH  36  37
ENDBRANCH   1  36
TORSDOF 11
ENDMDL
MODEL 8
REMARK VINA RESULT:    -6.926      3.656      5.102
REMARK INTER + INTRA:         -12.423
REMARK INTER:                 -11.573
REMARK INTRA:                  -0.850
REMARK UNBOUND:                -1.449
REMARK  Name = 
REMARK  11 active torsions:
REMARK  status: ('A' for Active; 'I' for Inactive)
REMARK    1  A    between atoms: C_2  and  C_24
REMARK    2  A    between atoms: N_3  and  CA_4
REMARK    3  A    between atoms: CA_4  and  C_5
REMARK    4  A    between atoms: CA_4  and  C_7
REMARK    5  A    between atoms: C_5  and  O_6
REMARK    6  A    between atoms: C_10  and  C_11
REMARK    7  A    between atoms: C_11  and  N_12
REMARK    8  A    between atoms: N_12  and  CA_13
REMARK    9  A    between atoms: CA_13  and  C_14
REMARK   10  A    between atoms: CA_13  and  C_16
REMARK   11  A    between atoms: C_14  and  O_15
REMARK                            x       y       z     vdW  Elec       q    Type
REMARK                         _______ _______ _______ _____ _____    ______ ____
ROOT
ATOM      1  CA  UNL     1      48.373   4.608  17.387  0.00  0.00    +0.000 C 
ENDROOT
BRANCH   1   2
ATOM      2  C   UNL     1      47.899   4.940  15.974  0.00  0.00    +0.000 A 
ATOM      3  C   UNL     1      48.310   6.152  15.393  0.00  0.00    +0.000 A 
ATOM      4  C   UNL     1      47.939   6.488  14.088  0.00  0.00    +0.000 A 
ATOM      5  C   UNL     1      47.154   5.618  13.319  0.00  0.00    +0.000 A 
ATOM      6  C   UNL     1      46.751   4.406  13.889  0.00  0.00    +0.000 A 
ATOM      7  C   UNL     1      47.129   4.065  15.194  0.00  0.00    +0.000 A 
BRANCH   5   8
ATOM      8  C   UNL     1      46.756   5.986  11.903  0.00  0.00    +0.000 C 
BRANCH   8   9
ATOM      9  N   UNL     1      45.320   6.247  11.836  0.00  0.00    +0.000 NA
ATOM     10  H   UNL     1      45.153   6.861  11.037  0.00  0.00    +0.000 HD
BRANCH   9  11
ATOM     11  CA  UNL     1      44.479   5.044  11.651  0.00  0.00    +0.000 C 
BRANCH  11  12
ATOM     12  C   UNL     1      44.919   4.293  10.392  0.00  0.00    +0.000 A 
ATOM     13  C   UNL     1      44.794   2.897  10.322  0.00  0.00    +0.000 A 
ATOM     14  C   UNL     1      45.176   2.209   9.164  0.00  0.00    +0.000 A 
ATOM     15  C   UNL     1      45.687   2.901   8.068  0.00  0.00    +0.000 A 
ATOM     16  C   UNL     1      45.815   4.286   8.119  0.00  0.00    +0.000 A 
ATOM     17  C   UNL     1      45.430   4.974   9.267  0.00  0.00    +0.000 A 
ENDBRANCH  11  12
BRANCH  11  18
ATOM     18  C   UNL     1      42.963   5.370  11.564  0.00  0.00    +0.000 C 
BRANCH  18  19
ATOM     19  O   UNL     1      42.377   5.559  12.852  0.00  0.00    +0.000 OA
ATOM     20  H   UNL     1      42.545   6.494  13.082  0.00  0.00    +0.000 HD
ENDBRANCH  18  19
ENDBRANCH  11  18
ENDBRANCH   9  11
ENDBRANCH   8   9
ENDBRANCH   5   8
ENDBRANCH   1   2
BRANCH   1  23
ATOM     21  O   UNL     1      50.362   5.158  19.315  0.00  0.00    +0.000 OA
ATOM     22  C   UNL     1      50.664   4.495  18.328  0.00  0.00    +0.000 C 
ATOM     23  N   UNL     1      49.779   4.242  17.315  0.00  0.00    +0.000 N 
ATOM     24  H   UNL     1      50.023   3.563  16.602  0.00  0.00    +0.000 HD
BRANCH  22  25
ATOM     25  C   UNL     1      52.022   3.966  18.147  0.00  0.00    +0.000 A 
ATOM     26  C   UNL     1      53.121   4.779  18.383  0.00  0.00    +0.000 A 
ATOM     27  S   UNL     1      54.615   4.005  18.104  0.00  0.00    +0.000 S 
ATOM     28  C   UNL     1      53.846   2.542  17.705  0.00  0.00    +0.000 A 
ATOM     29  N   UNL     1      54.569   1.434  17.387  0.00  0.00    +0.000 NA
ATOM     30  C   UNL     1      53.858   0.384  17.140  0.00  0.00    +0.000 A 
ATOM     31  N   UNL     1      52.488   0.343  17.175  0.00  0.00    +0.000 N 
ATOM     32  C   UNL     1      51.715   1.445  17.454  0.00  0.00    +0.000 A 
ATOM     33  O   UNL     1      50.489   1.390  17.415  0.00  0.00    +0.000 OA
ATOM     34  C   UNL     1      52.468   2.647  17.759  0.00  0.00    +0.000 A 
ATOM     35  H   UNL     1      51.992  -0.507  16.957  0.00  0.00    +0.000 HD
ENDBRANCH  22  25
ENDBRANCH   1  23
BRANCH   1  36
ATOM     36  C   UNL     1      47.560   3.506  18.112  0.00  0.00    +0.000 C 
BRANCH  36  37
ATOM     37  O   UNL     1      48.284   2.889  19.177  0.00  0.00    +0.000 OA
ATOM     38  H   UNL     1      49.161   3.310  19.222  0.00  0.00    +0.000 HD
ENDBRANCH  36  37
ENDBRANCH   1  36
TORSDOF 11
ENDMDL
MODEL 9
REMARK VINA RESULT:    -6.750      2.089      2.452
REMARK INTER + INTRA:         -12.145
REMARK INTER:                 -10.937
REMARK INTRA:                  -1.208
REMARK UNBOUND:                -1.449
REMARK  Name = 
REMARK  11 active torsions:
REMARK  status: ('A' for Active; 'I' for Inactive)
REMARK    1  A    between atoms: C_2  and  C_24
REMARK    2  A    between atoms: N_3  and  CA_4
REMARK    3  A    between atoms: CA_4  and  C_5
REMARK    4  A    between atoms: CA_4  and  C_7
REMARK    5  A    between atoms: C_5  and  O_6
REMARK    6  A    between atoms: C_10  and  C_11
REMARK    7  A    between atoms: C_11  and  N_12
REMARK    8  A    between atoms: N_12  and  CA_13
REMARK    9  A    between atoms: CA_13  and  C_14
REMARK   10  A    between atoms: CA_13  and  C_16
REMARK   11  A    between atoms: C_14  and  O_15
REMARK                            x       y       z     vdW  Elec       q    Type
REMARK                         _______ _______ _______ _____ _____    ______ ____
ROOT
ATOM      1  CA  UNL     1      48.869   6.807  13.425  0.00  0.00    +0.000 C 
ENDROOT
BRANCH   1   2
ATOM      2  C   UNL     1      47.426   6.607  12.968  0.00  0.00    +0.000 A 
ATOM      3  C   UNL     1      46.994   7.254  11.798  0.00  0.00    +0.000 A 
ATOM      4  C   UNL     1      45.695   7.075  11.312  0.00  0.00    +0.000 A 
ATOM      5  C   UNL     1      44.791   6.234  11.976  0.00  0.00    +0.000 A 
ATOM      6  C   UNL     1      45.219   5.581  13.137  0.00  0.00    +0.000 A 
ATOM      7  C   UNL     1      46.523   5.754  13.619  0.00  0.00    +0.000 A 
BRANCH   5   8
ATOM      8  C   UNL     1      43.385   6.042  11.445  0.00  0.00    +0.000 C 
BRANCH   8   9
ATOM      9  N   UNL     1      43.371   4.997  10.424  0.00  0.00    +0.000 NA
ATOM     10  H   UNL     1      43.748   5.398   9.563  0.00  0.00    +0.000 HD
BRANCH   9  11
ATOM     11  CA  UNL     1      44.185   3.804  10.746  0.00  0.00    +0.000 C 
BRANCH  11  12
ATOM     12  C   UNL     1      45.019   3.400   9.528  0.00  0.00    +0.000 A 
ATOM     13  C   UNL     1      45.225   2.044   9.231  0.00  0.00    +0.000 A 
ATOM     14  C   UNL     1      45.971   1.671   8.107  0.00  0.00    +0.000 A 
ATOM     15  C   UNL     1      46.520   2.640   7.270  0.00  0.00    +0.000 A 
ATOM     16  C   UNL     1      46.322   3.989   7.548  0.00  0.00    +0.000 A 
ATOM     17  C   UNL     1      45.576   4.364   8.662  0.00  0.00    +0.000 A 
ENDBRANCH  11  12
BRANCH  11  18
ATOM     18  C   UNL     1      43.330   2.596  11.218  0.00  0.00    +0.000 C 
BRANCH  18  19
ATOM     19  O   UNL     1      43.578   2.260  12.584  0.00  0.00    +0.000 OA
ATOM     20  H   UNL     1      42.893   1.604  12.821  0.00  0.00    +0.000 HD
ENDBRANCH  18  19
ENDBRANCH  11  18
ENDBRANCH   9  11
ENDBRANCH   8   9
ENDBRANCH   5   8
ENDBRANCH   1   2
BRANCH   1  23
ATOM     21  O   UNL     1      49.062   5.566  15.954  0.00  0.00    +0.000 OA
ATOM     22  C   UNL     1      49.006   6.790  15.901  0.00  0.00    +0.000 C 
ATOM     23  N   UNL     1      48.844   7.466  14.721  0.00  0.00    +0.000 N 
ATOM     24  H   UNL     1      48.961   8.474  14.708  0.00  0.00    +0.000 HD
BRANCH  22  25
ATOM     25  C   UNL     1      49.064   7.614  17.115  0.00  0.00    +0.000 A 
ATOM     26  C   UNL     1      48.072   8.550  17.366  0.00  0.00    +0.000 A 
ATOM     27  S   UNL     1      48.311   9.428  18.809  0.00  0.00    +0.000 S 
ATOM     28  C   UNL     1      49.724   8.554  19.172  0.00  0.00    +0.000 A 
ATOM     29  N   UNL     1      50.423   8.793  20.314  0.00  0.00    +0.000 NA
ATOM     30  C   UNL     1      51.454   8.033  20.480  0.00  0.00    +0.000 A 
ATOM     31  N   UNL     1      51.856   7.061  19.602  0.00  0.00    +0.000 N 
ATOM     32  C   UNL     1      51.205   6.807  18.419  0.00  0.00    +0.000 A 
ATOM     33  O   UNL     1      51.626   5.972  17.624  0.00  0.00    +0.000 OA
ATOM     34  C   UNL     1      50.025   7.622  18.195  0.00  0.00    +0.000 A 
ATOM     35  H   UNL     1      52.682   6.510  19.784  0.00  0.00    +0.000 HD
ENDBRANCH  22  25
ENDBRANCH   1  23
BRANCH   1  36
ATOM     36  C   UNL     1      49.771   7.588  12.436  0.00  0.00    +0.000 C 
BRANCH  36  37
ATOM     37  O   UNL     1      49.977   8.946  12.823  0.00  0.00    +0.000 OA
ATOM     38  H   UNL     1      49.566   9.072  13.696  0.00  0.00    +0.000 HD
ENDBRANCH  36  37
ENDBRANCH   1  36
TORSDOF 11
ENDMDL
