MODEL 1
REMARK VINA RESULT:    -7.994      0.000      0.000
REMARK INTER + INTRA:         -10.056
REMARK INTER:                  -9.630
REMARK INTRA:                  -0.427
REMARK UNBOUND:                -0.427
REMARK  Name = 
REMARK  4 active torsions:
REMARK  status: ('A' for Active; 'I' for Inactive)
REMARK    1  A    between atoms: N_1  and  C_2
REMARK    2  A    between atoms: C_2  and  C_3
REMARK    3  A    between atoms: C_6  and  C_7
REMARK    4  A    between atoms: C_7  and  N_8
REMARK                            x       y       z     vdW  Elec       q    Type
REMARK                         _______ _______ _______ _____ _____    ______ ____
ROOT
ATOM      1  C   UNL     1      46.599   2.316   7.410  0.00  0.00    +0.000 A 
ATOM      2  C   UNL     1      45.880   1.600   8.372  0.00  0.00    +0.000 A 
ATOM      3  C   UNL     1      44.987   2.263   9.212  0.00  0.00    +0.000 A 
ATOM      4  C   UNL     1      44.839   3.643   9.084  0.00  0.00    +0.000 A 
ATOM      5  N   UNL     1      45.510   4.357   8.144  0.00  0.00    +0.000 NA
ATOM      6  C   UNL     1      46.360   3.682   7.333  0.00  0.00    +0.000 A 
ENDROOT
BRANCH   1   7
ATOM      7  C   UNL     1      47.632   1.662   6.538  0.00  0.00    +0.000 C 
BRANCH   7   8
ATOM      8  N   UNL     1      48.729   2.564   6.206  0.00  0.00    +0.000 NA
ATOM      9  H   UNL     1      49.434   2.050   5.679  0.00  0.00    +0.000 HD
ATOM     10  H   UNL     1      49.184   2.866   7.067  0.00  0.00    +0.000 HD
ENDBRANCH   7   8
ENDBRANCH   1   7
BRANCH   4  11
ATOM     11  C   UNL     1      43.937   4.418  10.012  0.00  0.00    +0.000 C 
BRANCH  11  12
ATOM     12  N   UNL     1      44.466   4.466  11.361  0.00  0.00    +0.000 N 
ATOM     13  C   UNL     1      43.983   3.741  12.418  0.00  0.00    +0.000 A 
ATOM     14  N   UNL     1      44.669   3.964  13.514  0.00  0.00    +0.000 NA
ATOM     15  C   UNL     1      45.619   4.889  13.162  0.00  0.00    +0.000 A 
ATOM     16  C   UNL     1      46.628   5.472  13.944  0.00  0.00    +0.000 A 
ATOM     17  C   UNL     1      47.476   6.417  13.358  0.00  0.00    +0.000 A 
ATOM     18  C   UNL     1      47.316   6.788  12.022  0.00  0.00    +0.000 A 
ATOM     19  C   UNL     1      46.320   6.214  11.222  0.00  0.00    +0.000 A 
ATOM     20  C   UNL     1      45.496   5.251  11.820  0.00  0.00    +0.000 A 
ENDBRANCH  11  12
ENDBRANCH   4  11
TORSDOF 4
ENDMDL
MODEL 2
REMARK VINA RESULT:    -7.430      1.090      1.742
REMARK INTER + INTRA:          -9.377
REMARK INTER:                  -8.953
REMARK INTRA:                  -0.425
REMARK UNBOUND:                -0.427
REMARK  Name = 
REMARK  4 active torsions:
REMARK  status: ('A' for Active; 'I' for Inactive)
REMARK    1  A    between atoms: N_1  and  C_2
REMARK    2  A    between atoms: C_2  and  C_3
REMARK    3  A    between atoms: C_6  and  C_7
REMARK    4  A    between atoms: C_7  and  N_8
REMARK                            x       y       z     vdW  Elec       q    Type
REMARK                         _______ _______ _______ _____ _____    ______ ____
ROOT
ATOM      1  C   UNL     1      46.458   2.399   7.503  0.00  0.00    +0.000 A 
ATOM      2  C   UNL     1      45.763   1.668   8.470  0.00  0.00    +0.000 A 
ATOM      3  C   UNL     1      44.912   2.320   9.360  0.00  0.00    +0.000 A 
ATOM      4  C   UNL     1      44.781   3.706   9.275  0.00  0.00    +0.000 A 
ATOM      5  N   UNL     1      45.429   4.435   8.332  0.00  0.00    +0.000 NA
ATOM      6  C   UNL     1      46.238   3.770   7.472  0.00  0.00    +0.000 A 
ENDROOT
BRANCH   1   7
ATOM      7  C   UNL     1      47.448   1.755   6.576  0.00  0.00    +0.000 C 
BRANCH   7   8
ATOM      8  N   UNL     1      48.612   2.600   6.333  0.00  0.00    +0.000 NA
ATOM      9  H   UNL     1      48.522   3.454   6.882  0.00  0.00    +0.000 HD
ATOM     10  H   UNL     1      48.613   2.892   5.357  0.00  0.00    +0.000 HD
ENDBRANCH   7   8
ENDBRANCH   1   7
BRANCH   4  11
ATOM     11  C   UNL     1      43.925   4.467  10.257  0.00  0.00    +0.000 C 
BRANCH  11  12
ATOM     12  N   UNL     1      44.726   5.267  11.162  0.00  0.00    +0.000 N 
ATOM     13  C   UNL     1      44.819   6.634  11.124  0.00  0.00    +0.000 A 
ATOM     14  N   UNL     1      45.596   7.094  12.077  0.00  0.00    +0.000 NA
ATOM     15  C   UNL     1      46.045   5.982  12.744  0.00  0.00    +0.000 A 
ATOM     16  C   UNL     1      46.894   5.894  13.857  0.00  0.00    +0.000 A 
ATOM     17  C   UNL     1      47.227   4.630  14.354  0.00  0.00    +0.000 A 
ATOM     18  C   UNL     1      46.738   3.473  13.747  0.00  0.00    +0.000 A 
ATOM     19  C   UNL     1      45.884   3.539  12.639  0.00  0.00    +0.000 A 
ATOM     20  C   UNL     1      45.541   4.814  12.170  0.00  0.00    +0.000 A 
ENDBRANCH  11  12
ENDBRANCH   4  11
TORSDOF 4
ENDMDL
MODEL 3
REMARK VINA RESULT:    -6.792      2.041      2.415
REMARK INTER + INTRA:          -8.608
REMARK INTER:                  -8.213
REMARK INTRA:                  -0.395
REMARK UNBOUND:                -0.427
REMARK  Name = 
REMARK  4 active torsions:
REMARK  status: ('A' for Active; 'I' for Inactive)
REMARK    1  A    between atoms: N_1  and  C_2
REMARK    2  A    between atoms: C_2  and  C_3
REMARK    3  A    between atoms: C_6  and  C_7
REMARK    4  A    between atoms: C_7  and  N_8
REMARK                            x       y       z     vdW  Elec       q    Type
REMARK                         _______ _______ _______ _____ _____    ______ ____
ROOT
ATOM      1  C   UNL     1      46.087   2.290   8.011  0.00  0.00    +0.000 A 
ATOM      2  C   UNL     1      46.213   3.676   7.885  0.00  0.00    +0.000 A 
ATOM      3  C   UNL     1      45.465   4.522   8.702  0.00  0.00    +0.000 A 
ATOM      4  C   UNL     1      44.586   3.961   9.627  0.00  0.00    +0.000 A 
ATOM      5  N   UNL     1      44.462   2.619   9.783  0.00  0.00    +0.000 NA
ATOM      6  C   UNL     1      45.213   1.823   8.984  0.00  0.00    +0.000 A 
ENDROOT
BRANCH   1   7
ATOM      7  C   UNL     1      46.809   1.339   7.099  0.00  0.00    +0.000 C 
BRANCH   7   8
ATOM      8  N   UNL     1      46.942   0.008   7.681  0.00  0.00    +0.000 NA
ATOM      9  H   UNL     1      47.741   0.000   8.314  0.00  0.00    +0.000 HD
ATOM     10  H   UNL     1      47.162  -0.658   6.941  0.00  0.00    +0.000 HD
ENDBRANCH   7   8
ENDBRANCH   1   7
BRANCH   4  11
ATOM     11  C   UNL     1      43.704   4.832  10.488  0.00  0.00    +0.000 C 
BRANCH  11  12
ATOM     12  N   UNL     1      44.470   5.555  11.484  0.00  0.00    +0.000 N 
ATOM     13  C   UNL     1      45.183   4.971  12.498  0.00  0.00    +0.000 A 
ATOM     14  N   UNL     1      45.799   5.865  13.236  0.00  0.00    +0.000 NA
ATOM     15  C   UNL     1      45.451   7.078  12.696  0.00  0.00    +0.000 A 
ATOM     16  C   UNL     1      45.838   8.370  13.085  0.00  0.00    +0.000 A 
ATOM     17  C   UNL     1      45.331   9.467  12.382  0.00  0.00    +0.000 A 
ATOM     18  C   UNL     1      44.444   9.286  11.320  0.00  0.00    +0.000 A 
ATOM     19  C   UNL     1      44.050   8.005  10.911  0.00  0.00    +0.000 A 
ATOM     20  C   UNL     1      44.588   6.918  11.612  0.00  0.00    +0.000 A 
ENDBRANCH  11  12
ENDBRANCH   4  11
TORSDOF 4
ENDMDL
MODEL 4
REMARK VINA RESULT:    -6.696      1.482      5.819
REMARK INTER + INTRA:          -8.493
REMARK INTER:                  -8.034
REMARK INTRA:                  -0.460
REMARK UNBOUND:                -0.427
REMARK  Name = 
REMARK  4 active torsions:
REMARK  status: ('A' for Active; 'I' for Inactive)
REMARK    1  A    between atoms: N_1  and  C_2
REMARK    2  A    between atoms: C_2  and  C_3
REMARK    3  A    between atoms: C_6  and  C_7
REMARK    4  A    between atoms: C_7  and  N_8
REMARK                            x       y       z     vdW  Elec       q    Type
REMARK                         _______ _______ _______ _____ _____    ______ ____
ROOT
ATOM      1  C   UNL     1      46.557   6.001  12.710  0.00  0.00    +0.000 A 
ATOM      2  C   UNL     1      46.712   6.536  11.428  0.00  0.00    +0.000 A 
ATOM      3  C   UNL     1      45.955   6.038  10.368  0.00  0.00    +0.000 A 
ATOM      4  C   UNL     1      45.061   4.996  10.609  0.00  0.00    +0.000 A 
ATOM      5  N   UNL     1      44.877   4.475  11.849  0.00  0.00    +0.000 NA
ATOM      6  C   UNL     1      45.617   4.989  12.861  0.00  0.00    +0.000 A 
ENDROOT
BRANCH   1   7
ATOM      7  C   UNL     1      47.406   6.445  13.866  0.00  0.00    +0.000 C 
BRANCH   7   8
ATOM      8  N   UNL     1      47.611   5.382  14.844  0.00  0.00    +0.000 NA
ATOM      9  H   UNL     1      46.706   5.081  15.202  0.00  0.00    +0.000 HD
ATOM     10  H   UNL     1      48.120   5.759  15.643  0.00  0.00    +0.000 HD
ENDBRANCH   7   8
ENDBRANCH   1   7
BRANCH   4  11
ATOM     11  C   UNL     1      44.268   4.377   9.485  0.00  0.00    +0.000 C 
BRANCH  11  12
ATOM     12  N   UNL     1      44.879   3.154   9.006  0.00  0.00    +0.000 N 
ATOM     13  C   UNL     1      44.547   1.894   9.431  0.00  0.00    +0.000 A 
ATOM     14  N   UNL     1      45.244   0.972   8.809  0.00  0.00    +0.000 NA
ATOM     15  C   UNL     1      46.079   1.660   7.965  0.00  0.00    +0.000 A 
ATOM     16  C   UNL     1      47.029   1.169   7.056  0.00  0.00    +0.000 A 
ATOM     17  C   UNL     1      47.782   2.080   6.308  0.00  0.00    +0.000 A 
ATOM     18  C   UNL     1      47.606   3.455   6.471  0.00  0.00    +0.000 A 
ATOM     19  C   UNL     1      46.659   3.966   7.368  0.00  0.00    +0.000 A 
ATOM     20  C   UNL     1      45.897   3.038   8.089  0.00  0.00    +0.000 A 
ENDBRANCH  11  12
ENDBRANCH   4  11
TORSDOF 4
ENDMDL
MODEL 5
REMARK VINA RESULT:    -6.577      2.296      5.596
REMARK INTER + INTRA:          -8.350
REMARK INTER:                  -7.958
REMARK INTRA:                  -0.392
REMARK UNBOUND:                -0.427
REMARK  Name = 
REMARK  4 active torsions:
REMARK  status: ('A' for Active; 'I' for Inactive)
REMARK    1  A    between atoms: N_1  and  C_2
REMARK    2  A    between atoms: C_2  and  C_3
REMARK    3  A    between atoms: C_6  and  C_7
REMARK    4  A    between atoms: C_7  and  N_8
REMARK                            x       y       z     vdW  Elec       q    Type
REMARK                         _______ _______ _______ _____ _____    ______ ____
ROOT
ATOM      1  C   UNL     1      47.936   7.046  13.076  0.00  0.00    +0.000 A 
ATOM      2  C   UNL     1      47.290   7.861  12.143  0.00  0.00    +0.000 A 
ATOM      3  C   UNL     1      45.986   7.569  11.746  0.00  0.00    +0.000 A 
ATOM      4  C   UNL     1      45.353   6.449  12.283  0.00  0.00    +0.000 A 
ATOM      5  N   UNL     1      45.952   5.655  13.206  0.00  0.00    +0.000 NA
ATOM      6  C   UNL     1      47.214   5.973  13.582  0.00  0.00    +0.000 A 
ENDROOT
BRANCH   1   7
ATOM      7  C   UNL     1      49.367   7.270  13.473  0.00  0.00    +0.000 C 
BRANCH   7   8
ATOM      8  N   UNL     1      49.692   6.646  14.751  0.00  0.00    +0.000 NA
ATOM      9  H   UNL     1      50.674   6.372  14.747  0.00  0.00    +0.000 HD
ATOM     10  H   UNL     1      49.159   5.783  14.845  0.00  0.00    +0.000 HD
ENDBRANCH   7   8
ENDBRANCH   1   7
BRANCH   4  11
ATOM     11  C   UNL     1      43.968   6.051  11.836  0.00  0.00    +0.000 C 
BRANCH  11  12
ATOM     12  N   UNL     1      43.942   4.707  11.295  0.00  0.00    +0.000 N 
ATOM     13  C   UNL     1      43.279   3.649  11.859  0.00  0.00    +0.000 A 
ATOM     14  N   UNL     1      43.408   2.557  11.142  0.00  0.00    +0.000 NA
ATOM     15  C   UNL     1      44.207   2.913  10.085  0.00  0.00    +0.000 A 
ATOM     16  C   UNL     1      44.654   2.137   9.005  0.00  0.00    +0.000 A 
ATOM     17  C   UNL     1      45.486   2.726   8.048  0.00  0.00    +0.000 A 
ATOM     18  C   UNL     1      45.881   4.059   8.169  0.00  0.00    +0.000 A 
ATOM     19  C   UNL     1      45.441   4.854   9.236  0.00  0.00    +0.000 A 
ATOM     20  C   UNL     1      44.588   4.253  10.171  0.00  0.00    +0.000 A 
ENDBRANCH  11  12
ENDBRANCH   4  11
TORSDOF 4
ENDMDL
MODEL 6
REMARK VINA RESULT:    -6.355      1.600      2.189
REMARK INTER + INTRA:          -8.083
REMARK INTER:                  -7.712
REMARK INTRA:                  -0.371
REMARK UNBOUND:                -0.427
REMARK  Name = 
REMARK  4 active torsions:
REMARK  status: ('A' for Active; 'I' for Inactive)
REMARK    1  A    between atoms: N_1  and  C_2
REMARK    2  A    between atoms: C_2  and  C_3
REMARK    3  A    between atoms: C_6  and  C_7
REMARK    4  A    between atoms: C_7  and  N_8
REMARK                            x       y       z     vdW  Elec       q    Type
REMARK                         _______ _______ _______ _____ _____    ______ ____
ROOT
ATOM      1  C   UNL     1      45.382   3.453   8.285  0.00  0.00    +0.000 A 
ATOM      2  C   UNL     1      44.740   2.540   9.126  0.00  0.00    +0.000 A 
ATOM      3  C   UNL     1      44.416   2.902  10.432  0.00  0.00    +0.000 A 
ATOM      4  C   UNL     1      44.755   4.178  10.881  0.00  0.00    +0.000 A 
ATOM      5  N   UNL     1      45.359   5.089  10.078  0.00  0.00    +0.000 NA
ATOM      6  C   UNL     1      45.649   4.711   8.809  0.00  0.00    +0.000 A 
ENDROOT
BRANCH   1   7
ATOM      7  C   UNL     1      45.826   3.083   6.898  0.00  0.00    +0.000 C 
BRANCH   7   8
ATOM      8  N   UNL     1      46.794   4.029   6.356  0.00  0.00    +0.000 NA
ATOM      9  H   UNL     1      46.793   4.872   6.929  0.00  0.00    +0.000 HD
ATOM     10  H   UNL     1      46.492   4.320   5.427  0.00  0.00    +0.000 HD
ENDBRANCH   7   8
ENDBRANCH   1   7
BRANCH   4  11
ATOM     11  C   UNL     1      44.487   4.596  12.306  0.00  0.00    +0.000 C 
BRANCH  11  12
ATOM     12  N   UNL     1      45.710   4.933  13.007  0.00  0.00    +0.000 N 
ATOM     13  C   UNL     1      46.546   4.024  13.601  0.00  0.00    +0.000 A 
ATOM     14  N   UNL     1      47.591   4.608  14.141  0.00  0.00    +0.000 NA
ATOM     15  C   UNL     1      47.413   5.949  13.911  0.00  0.00    +0.000 A 
ATOM     16  C   UNL     1      48.237   7.029  14.262  0.00  0.00    +0.000 A 
ATOM     17  C   UNL     1      47.829   8.325  13.930  0.00  0.00    +0.000 A 
ATOM     18  C   UNL     1      46.617   8.546  13.274  0.00  0.00    +0.000 A 
ATOM     19  C   UNL     1      45.783   7.481  12.910  0.00  0.00    +0.000 A 
ATOM     20  C   UNL     1      46.220   6.189  13.228  0.00  0.00    +0.000 A 
ENDBRANCH  11  12
ENDBRANCH   4  11
TORSDOF 4
ENDMDL
MODEL 7
REMARK VINA RESULT:    -5.517      2.176      3.510
REMARK INTER + INTRA:          -7.073
REMARK INTER:                  -6.684
REMARK INTRA:                  -0.388
REMARK UNBOUND:                -0.427
REMARK  Name = 
REMARK  4 active torsions:
REMARK  status: ('A' for Active; 'I' for Inactive)
REMARK    1  A    between atoms: N_1  and  C_2
REMARK    2  A    between atoms: C_2  and  C_3
REMARK    3  A    between atoms: C_6  and  C_7
REMARK    4  A    between atoms: C_7  and  N_8
REMARK                            x       y       z     vdW  Elec       q    Type
REMARK                         _______ _______ _______ _____ _____    ______ ____
ROOT
ATOM      1  C   UNL     1      44.371   3.023  10.075  0.00  0.00    +0.000 A 
ATOM      2  C   UNL     1      43.771   2.952  11.336  0.00  0.00    +0.000 A 
ATOM      3  C   UNL     1      43.917   4.003  12.239  0.00  0.00    +0.000 A 
ATOM      4  C   UNL     1      44.679   5.110  11.866  0.00  0.00    +0.000 A 
ATOM      5  N   UNL     1      45.254   5.212  10.641  0.00  0.00    +0.000 NA
ATOM      6  C   UNL     1      45.082   4.179   9.781  0.00  0.00    +0.000 A 
ENDROOT
BRANCH   1   7
ATOM      7  C   UNL     1      44.312   1.882   9.100  0.00  0.00    +0.000 C 
BRANCH   7   8
ATOM      8  N   UNL     1      45.635   1.357   8.782  0.00  0.00    +0.000 NA
ATOM      9  H   UNL     1      45.549   0.375   8.522  0.00  0.00    +0.000 HD
ATOM     10  H   UNL     1      46.212   1.376   9.622  0.00  0.00    +0.000 HD
ENDBRANCH   7   8
ENDBRANCH   1   7
BRANCH   4  11
ATOM     11  C   UNL     1      44.924   6.245  12.830  0.00  0.00    +0.000 C 
BRANCH  11  12
ATOM     12  N   UNL     1      46.336   6.430  13.096  0.00  0.00    +0.000 N 
ATOM     13  C   UNL     1      47.138   5.523  13.738  0.00  0.00    +0.000 A 
ATOM     14  N   UNL     1      48.379   5.942  13.818  0.00  0.00    +0.000 NA
ATOM     15  C   UNL     1      48.379   7.181  13.228  0.00  0.00    +0.000 A 
ATOM     16  C   UNL     1      49.444   8.073  13.029  0.00  0.00    +0.000 A 
ATOM     17  C   UNL     1      49.190   9.301  12.410  0.00  0.00    +0.000 A 
ATOM     18  C   UNL     1      47.897   9.645  12.010  0.00  0.00    +0.000 A 
ATOM     19  C   UNL     1      46.821   8.767  12.194  0.00  0.00    +0.000 A 
ATOM     20  C   UNL     1      47.100   7.531  12.793  0.00  0.00    +0.000 A 
ENDBRANCH  11  12
ENDBRANCH   4  11
TORSDOF 4
ENDMDL
MODEL 8
REMARK VINA RESULT:    -5.373      3.247      5.132
REMARK INTER + INTRA:          -6.899
REMARK INTER:                  -6.520
REMARK INTRA:                  -0.379
REMARK UNBOUND:                -0.427
REMARK  Name = 
REMARK  4 active torsions:
REMARK  status: ('A' for Active; 'I' for Inactive)
REMARK    1  A    between atoms: N_1  and  C_2
REMARK    2  A    between atoms: C_2  and  C_3
REMARK    3  A    between atoms: C_6  and  C_7
REMARK    4  A    between atoms: C_7  and  N_8
REMARK                            x       y       z     vdW  Elec       q    Type
REMARK                         _______ _______ _______ _____ _____    ______ ____
ROOT
ATOM      1  C   UNL     1      44.602   4.118  11.278  0.00  0.00    +0.000 A 
ATOM      2  C   UNL     1      45.222   5.080  10.476  0.00  0.00    +0.000 A 
ATOM      3  C   UNL     1      45.762   6.228  11.054  0.00  0.00    +0.000 A 
ATOM      4  C   UNL     1      45.656   6.402  12.433  0.00  0.00    +0.000 A 
ATOM      5  N   UNL     1      45.077   5.473  13.235  0.00  0.00    +0.000 NA
ATOM      6  C   UNL     1      44.575   4.361  12.646  0.00  0.00    +0.000 A 
ENDROOT
BRANCH   1   7
ATOM      7  C   UNL     1      43.933   2.906  10.695  0.00  0.00    +0.000 C 
BRANCH   7   8
ATOM      8  N   UNL     1      43.048   2.249  11.650  0.00  0.00    +0.000 NA
ATOM      9  H   UNL     1      43.606   1.869  12.414  0.00  0.00    +0.000 HD
ATOM     10  H   UNL     1      42.607   1.448  11.198  0.00  0.00    +0.000 HD
ENDBRANCH   7   8
ENDBRANCH   1   7
BRANCH   4  11
ATOM     11  C   UNL     1      46.163   7.657  13.099  0.00  0.00    +0.000 C 
BRANCH  11  12
ATOM     12  N   UNL     1      47.594   7.607  13.324  0.00  0.00    +0.000 N 
ATOM     13  C   UNL     1      48.216   6.787  14.229  0.00  0.00    +0.000 A 
ATOM     14  N   UNL     1      49.520   6.935  14.201  0.00  0.00    +0.000 NA
ATOM     15  C   UNL     1      49.752   7.906  13.261  0.00  0.00    +0.000 A 
ATOM     16  C   UNL     1      50.971   8.446  12.819  0.00  0.00    +0.000 A 
ATOM     17  C   UNL     1      50.951   9.453  11.850  0.00  0.00    +0.000 A 
ATOM     18  C   UNL     1      49.743   9.929  11.338  0.00  0.00    +0.000 A 
ATOM     19  C   UNL     1      48.516   9.400  11.760  0.00  0.00    +0.000 A 
ATOM     20  C   UNL     1      48.557   8.374  12.713  0.00  0.00    +0.000 A 
ENDBRANCH  11  12
ENDBRANCH   4  11
TORSDOF 4
ENDMDL
MODEL 9
REMARK VINA RESULT:    -5.353      4.489      7.628
REMARK INTER + INTRA:          -6.875
REMARK INTER:                  -6.834
REMARK INTRA:                  -0.041
REMARK UNBOUND:                -0.427
REMARK  Name = 
REMARK  4 active torsions:
REMARK  status: ('A' for Active; 'I' for Inactive)
REMARK    1  A    between atoms: N_1  and  C_2
REMARK    2  A    between atoms: C_2  and  C_3
REMARK    3  A    between atoms: C_6  and  C_7
REMARK    4  A    between atoms: C_7  and  N_8
REMARK                            x       y       z     vdW  Elec       q    Type
REMARK                         _______ _______ _______ _____ _____    ______ ____
ROOT
ATOM      1  C   UNL     1      50.879   2.364  17.386  0.00  0.00    +0.000 A 
ATOM      2  C   UNL     1      50.560   3.624  17.898  0.00  0.00    +0.000 A 
ATOM      3  C   UNL     1      49.364   4.242  17.536  0.00  0.00    +0.000 A 
ATOM      4  C   UNL     1      48.510   3.589  16.649  0.00  0.00    +0.000 A 
ATOM      5  N   UNL     1      48.788   2.356  16.154  0.00  0.00    +0.000 NA
ATOM      6  C   UNL     1      49.951   1.776  16.537  0.00  0.00    +0.000 A 
ENDROOT
BRANCH   1   7
ATOM      7  C   UNL     1      52.191   1.694  17.681  0.00  0.00    +0.000 C 
BRANCH   7   8
ATOM      8  N   UNL     1      52.022   0.311  18.113  0.00  0.00    +0.000 NA
ATOM      9  H   UNL     1      51.934  -0.286  17.292  0.00  0.00    +0.000 HD
ATOM     10  H   UNL     1      51.141   0.225  18.619  0.00  0.00    +0.000 HD
ENDBRANCH   7   8
ENDBRANCH   1   7
BRANCH   4  11
ATOM     11  C   UNL     1      47.237   4.243  16.172  0.00  0.00    +0.000 C 
BRANCH  11  12
ATOM     12  N   UNL     1      47.484   5.186  15.099  0.00  0.00    +0.000 N 
ATOM     13  C   UNL     1      48.399   6.205  15.148  0.00  0.00    +0.000 A 
ATOM     14  N   UNL     1      48.428   6.885  14.026  0.00  0.00    +0.000 NA
ATOM     15  C   UNL     1      47.478   6.301  13.227  0.00  0.00    +0.000 A 
ATOM     16  C   UNL     1      47.100   6.622  11.914  0.00  0.00    +0.000 A 
ATOM     17  C   UNL     1      46.080   5.884  11.306  0.00  0.00    +0.000 A 
ATOM     18  C   UNL     1      45.435   4.856  11.994  0.00  0.00    +0.000 A 
ATOM     19  C   UNL     1      45.801   4.515  13.303  0.00  0.00    +0.000 A 
ATOM     20  C   UNL     1      46.842   5.249  13.886  0.00  0.00    +0.000 A 
ENDBRANCH  11  12
ENDBRANCH   4  11
TORSDOF 4
ENDMDL
