MODEL 1
REMARK VINA RESULT:    -8.637      0.000      0.000
REMARK INTER + INTRA:         -12.683
REMARK INTER:                 -11.667
REMARK INTRA:                  -1.016
REMARK UNBOUND:                -1.016
REMARK  Name = 
REMARK  6 active torsions:
REMARK  status: ('A' for Active; 'I' for Inactive)
REMARK    1  A    between atoms: C_2  and  C_3
REMARK    2  A    between atoms: C_6  and  C_7
REMARK    3  A    between atoms: C_9  and  C_10
REMARK    4  A    between atoms: C_10  and  N_11
REMARK    5  A    between atoms: N_11  and  C_12
REMARK    6  A    between atoms: C_15  and  C_16
REMARK                            x       y       z     vdW  Elec       q    Type
REMARK                         _______ _______ _______ _____ _____    ______ ____
ROOT
ATOM      1  C   UNL     1      43.894   4.960  11.376  0.00  0.00    +0.000 C 
ATOM      2  C   UNL     1      43.205   6.308  11.306  0.00  0.00    +0.000 C 
ATOM      3  C   UNL     1      42.646   5.260  12.208  0.00  0.00    +0.000 C 
ENDROOT
BRANCH   1   6
ATOM      4  C   UNL     1      47.342   5.846  12.819  0.00  0.00    +0.000 A 
ATOM      5  C   UNL     1      46.163   5.913  12.077  0.00  0.00    +0.000 A 
ATOM      6  C   UNL     1      45.220   4.873  12.126  0.00  0.00    +0.000 A 
ATOM      7  C   UNL     1      45.550   3.766  12.915  0.00  0.00    +0.000 A 
ATOM      8  C   UNL     1      46.731   3.768  13.633  0.00  0.00    +0.000 A 
ATOM      9  N   UNL     1      47.623   4.777  13.602  0.00  0.00    +0.000 NA
BRANCH   4  13
ATOM     10  C   UNL     1      50.313   8.967  12.730  0.00  0.00    +0.000 A 
ATOM     11  C   UNL     1      50.132   8.217  13.892  0.00  0.00    +0.000 A 
ATOM     12  C   UNL     1      49.172   7.198  13.925  0.00  0.00    +0.000 A 
ATOM     13  C   UNL     1      48.368   6.913  12.805  0.00  0.00    +0.000 A 
ATOM     14  C   UNL     1      48.580   7.682  11.646  0.00  0.00    +0.000 A 
ATOM     15  C   UNL     1      49.537   8.700  11.604  0.00  0.00    +0.000 A 
BRANCH  10  17
ATOM     16  N   UNL     1      52.091  10.853  12.669  0.00  0.00    +0.000 NA
ATOM     17  C   UNL     1      51.298  10.009  12.696  0.00  0.00    +0.000 C 
ENDBRANCH  10  17
ENDBRANCH   4  13
ENDBRANCH   1   6
BRANCH   1  18
ATOM     18  N   UNL     1      43.706   3.922  10.358  0.00  0.00    +0.000 N 
ATOM     19  H   UNL     1      42.759   3.588  10.210  0.00  0.00    +0.000 HD
BRANCH  18  20
ATOM     20  C   UNL     1      44.646   3.445   9.434  0.00  0.00    +0.000 A 
ATOM     21  C   UNL     1      45.043   2.114   9.314  0.00  0.00    +0.000 A 
ATOM     22  C   UNL     1      45.974   1.740   8.338  0.00  0.00    +0.000 A 
ATOM     23  C   UNL     1      46.476   2.719   7.491  0.00  0.00    +0.000 A 
ATOM     24  N   UNL     1      46.102   4.024   7.546  0.00  0.00    +0.000 NA
ATOM     25  C   UNL     1      45.199   4.336   8.504  0.00  0.00    +0.000 A 
BRANCH  23  26
ATOM     26  C   UNL     1      47.494   2.374   6.448  0.00  0.00    +0.000 C 
ATOM     27  N   UNL     1      47.453   3.150   5.320  0.00  0.00    +0.000 N 
ATOM     28  O   UNL     1      48.308   1.470   6.585  0.00  0.00    +0.000 OA
ATOM     29  H   UNL     1      46.759   3.886   5.251  0.00  0.00    +0.000 HD
ATOM     30  H   UNL     1      48.106   2.986   4.567  0.00  0.00    +0.000 HD
ENDBRANCH  23  26
ENDBRANCH  18  20
ENDBRANCH   1  18
TORSDOF 6
ENDMDL
MODEL 2
REMARK VINA RESULT:    -8.122      2.426      3.771
REMARK INTER + INTRA:         -11.987
REMARK INTER:                 -11.798
REMARK INTRA:                  -0.189
REMARK UNBOUND:                -1.016
REMARK  Name = 
REMARK  6 active torsions:
REMARK  status: ('A' for Active; 'I' for Inactive)
REMARK    1  A    between atoms: C_2  and  C_3
REMARK    2  A    between atoms: C_6  and  C_7
REMARK    3  A    between atoms: C_9  and  C_10
REMARK    4  A    between atoms: C_10  and  N_11
REMARK    5  A    between atoms: N_11  and  C_12
REMARK    6  A    between atoms: C_15  and  C_16
REMARK                            x       y       z     vdW  Elec       q    Type
REMARK                         _______ _______ _______ _____ _____    ______ ____
ROOT
ATOM      1  C   UNL     1      43.821   5.100  11.325  0.00  0.00    +0.000 C 
ATOM      2  C   UNL     1      42.582   5.443  12.125  0.00  0.00    +0.000 C 
ATOM      3  C   UNL     1      43.154   4.071  12.239  0.00  0.00    +0.000 C 
ENDROOT
BRANCH   1   6
ATOM      4  C   UNL     1      46.940   5.853  13.436  0.00  0.00    +0.000 A 
ATOM      5  C   UNL     1      45.689   5.369  13.051  0.00  0.00    +0.000 A 
ATOM      6  C   UNL     1      45.155   5.676  11.790  0.00  0.00    +0.000 A 
ATOM      7  C   UNL     1      45.918   6.519  10.975  0.00  0.00    +0.000 A 
ATOM      8  C   UNL     1      47.154   6.956  11.414  0.00  0.00    +0.000 A 
ATOM      9  N   UNL     1      47.675   6.641  12.615  0.00  0.00    +0.000 NA
BRANCH   4  13
ATOM     10  C   UNL     1      48.693   4.950  17.269  0.00  0.00    +0.000 A 
ATOM     11  C   UNL     1      49.102   6.085  16.571  0.00  0.00    +0.000 A 
ATOM     12  C   UNL     1      48.533   6.388  15.328  0.00  0.00    +0.000 A 
ATOM     13  C   UNL     1      47.551   5.559  14.752  0.00  0.00    +0.000 A 
ATOM     14  C   UNL     1      47.154   4.424  15.483  0.00  0.00    +0.000 A 
ATOM     15  C   UNL     1      47.716   4.117  16.726  0.00  0.00    +0.000 A 
BRANCH  10  17
ATOM     16  N   UNL     1      49.745   4.391  19.571  0.00  0.00    +0.000 NA
ATOM     17  C   UNL     1      49.275   4.642  18.543  0.00  0.00    +0.000 C 
ENDBRANCH  10  17
ENDBRANCH   4  13
ENDBRANCH   1   6
BRANCH   1  18
ATOM     18  N   UNL     1      43.772   4.761   9.899  0.00  0.00    +0.000 N 
ATOM     19  H   UNL     1      43.129   5.293   9.321  0.00  0.00    +0.000 HD
BRANCH  18  20
ATOM     20  C   UNL     1      44.625   3.906   9.189  0.00  0.00    +0.000 A 
ATOM     21  C   UNL     1      45.573   4.319   8.254  0.00  0.00    +0.000 A 
ATOM     22  C   UNL     1      46.394   3.380   7.618  0.00  0.00    +0.000 A 
ATOM     23  C   UNL     1      46.249   2.040   7.951  0.00  0.00    +0.000 A 
ATOM     24  N   UNL     1      45.362   1.587   8.875  0.00  0.00    +0.000 NA
ATOM     25  C   UNL     1      44.594   2.532   9.464  0.00  0.00    +0.000 A 
BRANCH  23  26
ATOM     26  C   UNL     1      47.085   0.994   7.279  0.00  0.00    +0.000 C 
ATOM     27  N   UNL     1      46.810  -0.295   7.652  0.00  0.00    +0.000 N 
ATOM     28  O   UNL     1      47.948   1.261   6.453  0.00  0.00    +0.000 OA
ATOM     29  H   UNL     1      46.086  -0.466   8.341  0.00  0.00    +0.000 HD
ATOM     30  H   UNL     1      47.326  -1.062   7.246  0.00  0.00    +0.000 HD
ENDBRANCH  23  26
ENDBRANCH  18  20
ENDBRANCH   1  18
TORSDOF 6
ENDMDL
MODEL 3
REMARK VINA RESULT:    -7.401      1.340      1.928
REMARK INTER + INTRA:         -11.013
REMARK INTER:                 -10.688
REMARK INTRA:                  -0.325
REMARK UNBOUND:                -1.016
REMARK  Name = 
REMARK  6 active torsions:
REMARK  status: ('A' for Active; 'I' for Inactive)
REMARK    1  A    between atoms: C_2  and  C_3
REMARK    2  A    between atoms: C_6  and  C_7
REMARK    3  A    between atoms: C_9  and  C_10
REMARK    4  A    between atoms: C_10  and  N_11
REMARK    5  A    between atoms: N_11  and  C_12
REMARK    6  A    between atoms: C_15  and  C_16
REMARK                            x       y       z     vdW  Elec       q    Type
REMARK                         _______ _______ _______ _____ _____    ______ ____
ROOT
ATOM      1  C   UNL     1      44.131   4.467  11.679  0.00  0.00    +0.000 C 
ATOM      2  C   UNL     1      43.378   3.958  12.892  0.00  0.00    +0.000 C 
ATOM      3  C   UNL     1      44.740   3.417  12.609  0.00  0.00    +0.000 C 
ENDROOT
BRANCH   1   6
ATOM      4  C   UNL     1      46.597   7.380  12.111  0.00  0.00    +0.000 A 
ATOM      5  C   UNL     1      46.055   6.094  12.118  0.00  0.00    +0.000 A 
ATOM      6  C   UNL     1      44.720   5.873  11.743  0.00  0.00    +0.000 A 
ATOM      7  C   UNL     1      43.967   7.004  11.410  0.00  0.00    +0.000 A 
ATOM      8  C   UNL     1      44.569   8.248  11.413  0.00  0.00    +0.000 A 
ATOM      9  N   UNL     1      45.856   8.456  11.751  0.00  0.00    +0.000 NA
BRANCH   4  13
ATOM     10  C   UNL     1      50.678   8.258  13.186  0.00  0.00    +0.000 A 
ATOM     11  C   UNL     1      49.897   7.462  14.024  0.00  0.00    +0.000 A 
ATOM     12  C   UNL     1      48.572   7.169  13.677  0.00  0.00    +0.000 A 
ATOM     13  C   UNL     1      47.996   7.670  12.494  0.00  0.00    +0.000 A 
ATOM     14  C   UNL     1      48.812   8.464  11.666  0.00  0.00    +0.000 A 
ATOM     15  C   UNL     1      50.136   8.759  12.004  0.00  0.00    +0.000 A 
BRANCH  10  17
ATOM     16  N   UNL     1      53.132   8.795  13.823  0.00  0.00    +0.000 NA
ATOM     17  C   UNL     1      52.034   8.556  13.540  0.00  0.00    +0.000 C 
ENDBRANCH  10  17
ENDBRANCH   4  13
ENDBRANCH   1   6
BRANCH   1  18
ATOM     18  N   UNL     1      43.859   3.986  10.321  0.00  0.00    +0.000 N 
ATOM     19  H   UNL     1      42.925   4.138   9.956  0.00  0.00    +0.000 HD
BRANCH  18  20
ATOM     20  C   UNL     1      44.777   3.486   9.388  0.00  0.00    +0.000 A 
ATOM     21  C   UNL     1      45.102   2.140   9.229  0.00  0.00    +0.000 A 
ATOM     22  C   UNL     1      46.018   1.745   8.246  0.00  0.00    +0.000 A 
ATOM     23  C   UNL     1      46.577   2.721   7.432  0.00  0.00    +0.000 A 
ATOM     24  N   UNL     1      46.274   4.042   7.525  0.00  0.00    +0.000 NA
ATOM     25  C   UNL     1      45.383   4.373   8.487  0.00  0.00    +0.000 A 
BRANCH  23  26
ATOM     26  C   UNL     1      47.582   2.353   6.383  0.00  0.00    +0.000 C 
ATOM     27  N   UNL     1      47.529   3.107   5.241  0.00  0.00    +0.000 N 
ATOM     28  O   UNL     1      48.395   1.450   6.528  0.00  0.00    +0.000 OA
ATOM     29  H   UNL     1      46.837   3.844   5.166  0.00  0.00    +0.000 HD
ATOM     30  H   UNL     1      48.173   2.927   4.484  0.00  0.00    +0.000 HD
ENDBRANCH  23  26
ENDBRANCH  18  20
ENDBRANCH   1  18
TORSDOF 6
ENDMDL
MODEL 4
REMARK VINA RESULT:    -6.396      4.004      6.193
REMARK INTER + INTRA:          -9.656
REMARK INTER:                  -8.979
REMARK INTRA:                  -0.677
REMARK UNBOUND:                -1.016
REMARK  Name = 
REMARK  6 active torsions:
REMARK  status: ('A' for Active; 'I' for Inactive)
REMARK    1  A    between atoms: C_2  and  C_3
REMARK    2  A    between atoms: C_6  and  C_7
REMARK    3  A    between atoms: C_9  and  C_10
REMARK    4  A    between atoms: C_10  and  N_11
REMARK    5  A    between atoms: N_11  and  C_12
REMARK    6  A    between atoms: C_15  and  C_16
REMARK                            x       y       z     vdW  Elec       q    Type
REMARK                         _______ _______ _______ _____ _____    ______ ____
ROOT
ATOM      1  C   UNL     1      47.809   7.810  13.313  0.00  0.00    +0.000 C 
ATOM      2  C   UNL     1      48.737   7.564  12.140  0.00  0.00    +0.000 C 
ATOM      3  C   UNL     1      48.231   8.947  12.380  0.00  0.00    +0.000 C 
ENDROOT
BRANCH   1   6
ATOM      4  C   UNL     1      49.799   6.782  16.432  0.00  0.00    +0.000 A 
ATOM      5  C   UNL     1      49.204   6.741  15.172  0.00  0.00    +0.000 A 
ATOM      6  C   UNL     1      48.412   7.806  14.714  0.00  0.00    +0.000 A 
ATOM      7  C   UNL     1      48.222   8.872  15.600  0.00  0.00    +0.000 A 
ATOM      8  C   UNL     1      48.850   8.854  16.832  0.00  0.00    +0.000 A 
ATOM      9  N   UNL     1      49.628   7.841  17.259  0.00  0.00    +0.000 NA
BRANCH   4  13
ATOM     10  C   UNL     1      52.217   3.567  17.981  0.00  0.00    +0.000 A 
ATOM     11  C   UNL     1      52.822   4.760  17.588  0.00  0.00    +0.000 A 
ATOM     12  C   UNL     1      52.041   5.810  17.089  0.00  0.00    +0.000 A 
ATOM     13  C   UNL     1      50.644   5.689  16.963  0.00  0.00    +0.000 A 
ATOM     14  C   UNL     1      50.063   4.476  17.375  0.00  0.00    +0.000 A 
ATOM     15  C   UNL     1      50.835   3.423  17.877  0.00  0.00    +0.000 A 
BRANCH  10  17
ATOM     16  N   UNL     1      53.661   1.624  18.906  0.00  0.00    +0.000 NA
ATOM     17  C   UNL     1      53.016   2.493  18.494  0.00  0.00    +0.000 C 
ENDBRANCH  10  17
ENDBRANCH   4  13
ENDBRANCH   1   6
BRANCH   1  18
ATOM     18  N   UNL     1      46.379   7.492  13.268  0.00  0.00    +0.000 N 
ATOM     19  H   UNL     1      45.738   8.197  13.618  0.00  0.00    +0.000 HD
BRANCH  18  20
ATOM     20  C   UNL     1      45.761   6.400  12.643  0.00  0.00    +0.000 A 
ATOM     21  C   UNL     1      45.378   6.358  11.303  0.00  0.00    +0.000 A 
ATOM     22  C   UNL     1      44.788   5.204  10.773  0.00  0.00    +0.000 A 
ATOM     23  C   UNL     1      44.610   4.108  11.607  0.00  0.00    +0.000 A 
ATOM     24  N   UNL     1      44.991   4.086  12.910  0.00  0.00    +0.000 NA
ATOM     25  C   UNL     1      45.558   5.223  13.376  0.00  0.00    +0.000 A 
BRANCH  23  26
ATOM     26  C   UNL     1      43.959   2.860  11.094  0.00  0.00    +0.000 C 
ATOM     27  N   UNL     1      44.533   2.327   9.971  0.00  0.00    +0.000 N 
ATOM     28  O   UNL     1      42.989   2.345  11.634  0.00  0.00    +0.000 OA
ATOM     29  H   UNL     1      45.335   2.791   9.558  0.00  0.00    +0.000 HD
ATOM     30  H   UNL     1      44.157   1.485   9.559  0.00  0.00    +0.000 HD
ENDBRANCH  23  26
ENDBRANCH  18  20
ENDBRANCH   1  18
TORSDOF 6
ENDMDL
MODEL 5
REMARK VINA RESULT:    -5.983      5.272      8.973
REMARK INTER + INTRA:          -9.098
REMARK INTER:                  -8.160
REMARK INTRA:                  -0.938
REMARK UNBOUND:                -1.016
REMARK  Name = 
REMARK  6 active torsions:
REMARK  status: ('A' for Active; 'I' for Inactive)
REMARK    1  A    between atoms: C_2  and  C_3
REMARK    2  A    between atoms: C_6  and  C_7
REMARK    3  A    between atoms: C_9  and  C_10
REMARK    4  A    between atoms: C_10  and  N_11
REMARK    5  A    between atoms: N_11  and  C_12
REMARK    6  A    between atoms: C_15  and  C_16
REMARK                            x       y       z     vdW  Elec       q    Type
REMARK                         _______ _______ _______ _____ _____    ______ ____
ROOT
ATOM      1  C   UNL     1      49.411   5.600  18.045  0.00  0.00    +0.000 C 
ATOM      2  C   UNL     1      48.103   5.098  18.624  0.00  0.00    +0.000 C 
ATOM      3  C   UNL     1      48.645   6.405  19.096  0.00  0.00    +0.000 C 
ENDROOT
BRANCH   1   6
ATOM      4  C   UNL     1      48.382   6.307  14.413  0.00  0.00    +0.000 A 
ATOM      5  C   UNL     1      48.414   5.757  15.694  0.00  0.00    +0.000 A 
ATOM      6  C   UNL     1      49.400   6.139  16.618  0.00  0.00    +0.000 A 
ATOM      7  C   UNL     1      50.358   7.054  16.169  0.00  0.00    +0.000 A 
ATOM      8  C   UNL     1      50.262   7.569  14.890  0.00  0.00    +0.000 A 
ATOM      9  N   UNL     1      49.301   7.218  14.013  0.00  0.00    +0.000 NA
BRANCH   4  13
ATOM     10  C   UNL     1      45.401   5.208  11.500  0.00  0.00    +0.000 A 
ATOM     11  C   UNL     1      46.243   6.291  11.253  0.00  0.00    +0.000 A 
ATOM     12  C   UNL     1      47.217   6.650  12.193  0.00  0.00    +0.000 A 
ATOM     13  C   UNL     1      47.365   5.943  13.401  0.00  0.00    +0.000 A 
ATOM     14  C   UNL     1      46.505   4.850  13.618  0.00  0.00    +0.000 A 
ATOM     15  C   UNL     1      45.531   4.484  12.684  0.00  0.00    +0.000 A 
BRANCH  10  17
ATOM     16  N   UNL     1      43.604   4.541   9.756  0.00  0.00    +0.000 NA
ATOM     17  C   UNL     1      44.405   4.839  10.537  0.00  0.00    +0.000 C 
ENDBRANCH  10  17
ENDBRANCH   4  13
ENDBRANCH   1   6
BRANCH   1  18
ATOM     18  N   UNL     1      50.715   5.105  18.496  0.00  0.00    +0.000 N 
ATOM     19  H   UNL     1      51.236   5.696  19.136  0.00  0.00    +0.000 HD
BRANCH  18  20
ATOM     20  C   UNL     1      51.270   3.835  18.291  0.00  0.00    +0.000 A 
ATOM     21  C   UNL     1      50.704   2.835  17.501  0.00  0.00    +0.000 A 
ATOM     22  C   UNL     1      51.356   1.605  17.344  0.00  0.00    +0.000 A 
ATOM     23  C   UNL     1      52.576   1.416  17.980  0.00  0.00    +0.000 A 
ATOM     24  N   UNL     1      53.184   2.366  18.737  0.00  0.00    +0.000 NA
ATOM     25  C   UNL     1      52.517   3.537  18.857  0.00  0.00    +0.000 A 
BRANCH  23  26
ATOM     26  C   UNL     1      53.299   0.109  17.865  0.00  0.00    +0.000 C 
ATOM     27  N   UNL     1      53.873  -0.129  16.645  0.00  0.00    +0.000 N 
ATOM     28  O   UNL     1      53.380  -0.690  18.788  0.00  0.00    +0.000 OA
ATOM     29  H   UNL     1      53.777   0.562  15.909  0.00  0.00    +0.000 HD
ATOM     30  H   UNL     1      54.381  -0.987  16.482  0.00  0.00    +0.000 HD
ENDBRANCH  23  26
ENDBRANCH  18  20
ENDBRANCH   1  18
TORSDOF 6
ENDMDL
MODEL 6
REMARK VINA RESULT:    -5.847      3.998      8.628
REMARK INTER + INTRA:          -8.913
REMARK INTER:                  -7.994
REMARK INTRA:                  -0.919
REMARK UNBOUND:                -1.016
REMARK  Name = 
REMARK  6 active torsions:
REMARK  status: ('A' for Active; 'I' for Inactive)
REMARK    1  A    between atoms: C_2  and  C_3
REMARK    2  A    between atoms: C_6  and  C_7
REMARK    3  A    between atoms: C_9  and  C_10
REMARK    4  A    between atoms: C_10  and  N_11
REMARK    5  A    between atoms: N_11  and  C_12
REMARK    6  A    between atoms: C_15  and  C_16
REMARK                            x       y       z     vdW  Elec       q    Type
REMARK                         _______ _______ _______ _____ _____    ______ ____
ROOT
ATOM      1  C   UNL     1      49.308   8.490  17.067  0.00  0.00    +0.000 C 
ATOM      2  C   UNL     1      48.118   9.297  17.546  0.00  0.00    +0.000 C 
ATOM      3  C   UNL     1      49.426   9.987  17.358  0.00  0.00    +0.000 C 
ENDROOT
BRANCH   1   6
ATOM      4  C   UNL     1      48.330   6.962  13.682  0.00  0.00    +0.000 A 
ATOM      5  C   UNL     1      48.316   7.289  15.038  0.00  0.00    +0.000 A 
ATOM      6  C   UNL     1      49.341   8.066  15.602  0.00  0.00    +0.000 A 
ATOM      7  C   UNL     1      50.380   8.448  14.748  0.00  0.00    +0.000 A 
ATOM      8  C   UNL     1      50.326   8.099  13.411  0.00  0.00    +0.000 A 
ATOM      9  N   UNL     1      49.331   7.374  12.867  0.00  0.00    +0.000 NA
BRANCH   4  13
ATOM     10  C   UNL     1      45.257   4.563  11.843  0.00  0.00    +0.000 A 
ATOM     11  C   UNL     1      45.730   5.701  11.191  0.00  0.00    +0.000 A 
ATOM     12  C   UNL     1      46.732   6.482  11.780  0.00  0.00    +0.000 A 
ATOM     13  C   UNL     1      47.276   6.149  13.035  0.00  0.00    +0.000 A 
ATOM     14  C   UNL     1      46.783   4.991  13.665  0.00  0.00    +0.000 A 
ATOM     15  C   UNL     1      45.785   4.205  13.082  0.00  0.00    +0.000 A 
BRANCH  10  17
ATOM     16  N   UNL     1      43.407   3.117  10.746  0.00  0.00    +0.000 NA
ATOM     17  C   UNL     1      44.233   3.763  11.238  0.00  0.00    +0.000 C 
ENDBRANCH  10  17
ENDBRANCH   4  13
ENDBRANCH   1   6
BRANCH   1  18
ATOM     18  N   UNL     1      50.095   7.637  17.963  0.00  0.00    +0.000 N 
ATOM     19  H   UNL     1      50.340   8.022  18.869  0.00  0.00    +0.000 HD
BRANCH  18  20
ATOM     20  C   UNL     1      50.415   6.283  17.798  0.00  0.00    +0.000 A 
ATOM     21  C   UNL     1      51.695   5.789  17.547  0.00  0.00    +0.000 A 
ATOM     22  C   UNL     1      51.909   4.412  17.422  0.00  0.00    +0.000 A 
ATOM     23  C   UNL     1      50.824   3.557  17.567  0.00  0.00    +0.000 A 
ATOM     24  N   UNL     1      49.563   3.982  17.840  0.00  0.00    +0.000 NA
ATOM     25  C   UNL     1      49.407   5.321  17.954  0.00  0.00    +0.000 A 
BRANCH  23  26
ATOM     26  C   UNL     1      50.996   2.076  17.416  0.00  0.00    +0.000 C 
ATOM     27  N   UNL     1      51.977   1.525  18.197  0.00  0.00    +0.000 N 
ATOM     28  O   UNL     1      50.314   1.401  16.657  0.00  0.00    +0.000 OA
ATOM     29  H   UNL     1      52.518   2.125  18.809  0.00  0.00    +0.000 HD
ATOM     30  H   UNL     1      52.159   0.532  18.158  0.00  0.00    +0.000 HD
ENDBRANCH  23  26
ENDBRANCH  18  20
ENDBRANCH   1  18
TORSDOF 6
ENDMDL
MODEL 7
REMARK VINA RESULT:    -5.819      3.832      8.477
REMARK INTER + INTRA:          -8.876
REMARK INTER:                  -8.030
REMARK INTRA:                  -0.846
REMARK UNBOUND:                -1.016
REMARK  Name = 
REMARK  6 active torsions:
REMARK  status: ('A' for Active; 'I' for Inactive)
REMARK    1  A    between atoms: C_2  and  C_3
REMARK    2  A    between atoms: C_6  and  C_7
REMARK    3  A    between atoms: C_9  and  C_10
REMARK    4  A    between atoms: C_10  and  N_11
REMARK    5  A    between atoms: N_11  and  C_12
REMARK    6  A    between atoms: C_15  and  C_16
REMARK                            x       y       z     vdW  Elec       q    Type
REMARK                         _______ _______ _______ _____ _____    ______ ____
ROOT
ATOM      1  C   UNL     1      49.654   9.527  12.280  0.00  0.00    +0.000 C 
ATOM      2  C   UNL     1      50.431  10.197  11.165  0.00  0.00    +0.000 C 
ATOM      3  C   UNL     1      50.541   8.719  11.331  0.00  0.00    +0.000 C 
ENDROOT
BRANCH   1   6
ATOM      4  C   UNL     1      46.146   7.998  11.957  0.00  0.00    +0.000 A 
ATOM      5  C   UNL     1      47.533   8.116  12.048  0.00  0.00    +0.000 A 
ATOM      6  C   UNL     1      48.145   9.378  12.111  0.00  0.00    +0.000 A 
ATOM      7  C   UNL     1      47.300  10.490  12.034  0.00  0.00    +0.000 A 
ATOM      8  C   UNL     1      45.933  10.302  11.955  0.00  0.00    +0.000 A 
ATOM      9  N   UNL     1      45.346   9.091  11.918  0.00  0.00    +0.000 NA
BRANCH   4  13
ATOM     10  C   UNL     1      44.138   4.192  11.713  0.00  0.00    +0.000 A 
ATOM     11  C   UNL     1      43.997   4.977  12.857  0.00  0.00    +0.000 A 
ATOM     12  C   UNL     1      44.642   6.216  12.941  0.00  0.00    +0.000 A 
ATOM     13  C   UNL     1      45.448   6.695  11.890  0.00  0.00    +0.000 A 
ATOM     14  C   UNL     1      45.564   5.883  10.746  0.00  0.00    +0.000 A 
ATOM     15  C   UNL     1      44.921   4.645  10.654  0.00  0.00    +0.000 A 
BRANCH  10  17
ATOM     16  N   UNL     1      42.936   1.901  11.559  0.00  0.00    +0.000 NA
ATOM     17  C   UNL     1      43.475   2.924  11.628  0.00  0.00    +0.000 C 
ENDBRANCH  10  17
ENDBRANCH   4  13
ENDBRANCH   1   6
BRANCH   1  18
ATOM     18  N   UNL     1      50.110   9.532  13.674  0.00  0.00    +0.000 N 
ATOM     19  H   UNL     1      50.716  10.295  13.958  0.00  0.00    +0.000 HD
BRANCH  18  20
ATOM     20  C   UNL     1      49.680   8.707  14.721  0.00  0.00    +0.000 A 
ATOM     21  C   UNL     1      48.892   9.123  15.794  0.00  0.00    +0.000 A 
ATOM     22  C   UNL     1      48.497   8.209  16.778  0.00  0.00    +0.000 A 
ATOM     23  C   UNL     1      48.895   6.885  16.649  0.00  0.00    +0.000 A 
ATOM     24  N   UNL     1      49.637   6.420  15.610  0.00  0.00    +0.000 NA
ATOM     25  C   UNL     1      49.993   7.341  14.685  0.00  0.00    +0.000 A 
BRANCH  23  26
ATOM     26  C   UNL     1      48.521   5.873  17.689  0.00  0.00    +0.000 C 
ATOM     27  N   UNL     1      47.335   5.225  17.466  0.00  0.00    +0.000 N 
ATOM     28  O   UNL     1      49.218   5.633  18.666  0.00  0.00    +0.000 OA
ATOM     29  H   UNL     1      46.791   5.459  16.643  0.00  0.00    +0.000 HD
ATOM     30  H   UNL     1      47.008   4.526  18.117  0.00  0.00    +0.000 HD
ENDBRANCH  23  26
ENDBRANCH  18  20
ENDBRANCH   1  18
TORSDOF 6
ENDMDL
