MODEL 1
REMARK VINA RESULT:    -8.771      0.000      0.000
REMARK INTER + INTRA:         -12.809
REMARK INTER:                 -11.847
REMARK INTRA:                  -0.962
REMARK UNBOUND:                -0.962
REMARK  Name = 
REMARK  6 active torsions:
REMARK  status: ('A' for Active; 'I' for Inactive)
REMARK    1  A    between atoms: C_7  and  C_8
REMARK    2  A    between atoms: N_10  and  C_11
REMARK    3  A    between atoms: C_11  and  C_12
REMARK    4  A    between atoms: C_15  and  O_16
REMARK    5  A    between atoms: O_16  and  C_17
REMARK    6  A    between atoms: C_17  and  C_18
REMARK                            x       y       z     vdW  Elec       q    Type
REMARK                         _______ _______ _______ _____ _____    ______ ____
ROOT
ATOM      1  C   UNL     1      48.889   6.952  14.576  0.00  0.00    +0.000 C 
ATOM      2  O   UNL     1      49.654   7.060  13.619  0.00  0.00    +0.000 OA
ATOM      3  N   UNL     1      47.532   7.114  14.447  0.00  0.00    +0.000 N 
ATOM      4  H   UNL     1      46.927   6.958  15.249  0.00  0.00    +0.000 HD
ENDROOT
BRANCH   1  11
ATOM      5  N   UNL     1      48.450   3.730  20.469  0.00  0.00    +0.000 N 
ATOM      6  C   UNL     1      48.674   4.423  19.321  0.00  0.00    +0.000 A 
ATOM      7  N   UNL     1      49.664   5.261  19.239  0.00  0.00    +0.000 NA
ATOM      8  C   UNL     1      49.755   5.888  18.043  0.00  0.00    +0.000 A 
ATOM      9  N   UNL     1      50.717   6.807  17.746  0.00  0.00    +0.000 N 
ATOM     10  C   UNL     1      50.513   7.265  16.470  0.00  0.00    +0.000 A 
ATOM     11  C   UNL     1      49.394   6.641  15.922  0.00  0.00    +0.000 A 
ATOM     12  C   UNL     1      48.943   5.741  16.937  0.00  0.00    +0.000 A 
ATOM     13  C   UNL     1      47.878   4.774  17.044  0.00  0.00    +0.000 A 
ATOM     14  O   UNL     1      47.123   4.487  16.121  0.00  0.00    +0.000 OA
ATOM     15  N   UNL     1      47.794   4.184  18.288  0.00  0.00    +0.000 N 
ATOM     16  H   UNL     1      48.966   4.109  21.257  0.00  0.00    +0.000 HD
ATOM     17  H   UNL     1      47.494   3.496  20.696  0.00  0.00    +0.000 HD
ATOM     18  H   UNL     1      51.450   7.093  18.379  0.00  0.00    +0.000 HD
ATOM     19  H   UNL     1      47.077   3.485  18.393  0.00  0.00    +0.000 HD
ENDBRANCH   1  11
BRANCH   3  20
ATOM     20  C   UNL     1      46.900   7.413  13.182  0.00  0.00    +0.000 C 
BRANCH  20  21
ATOM     21  C   UNL     1      46.315   6.195  12.505  0.00  0.00    +0.000 A 
ATOM     22  C   UNL     1      46.272   4.962  13.172  0.00  0.00    +0.000 A 
ATOM     23  C   UNL     1      45.736   3.824  12.557  0.00  0.00    +0.000 A 
ATOM     24  C   UNL     1      45.207   3.907  11.270  0.00  0.00    +0.000 A 
ATOM     25  C   UNL     1      45.250   5.128  10.594  0.00  0.00    +0.000 A 
ATOM     26  C   UNL     1      45.800   6.263  11.203  0.00  0.00    +0.000 A 
BRANCH  24  27
ATOM     27  O   UNL     1      44.653   2.865  10.576  0.00  0.00    +0.000 OA
BRANCH  27  28
ATOM     28  C   UNL     1      44.465   3.082   9.172  0.00  0.00    +0.000 C 
BRANCH  28  29
ATOM     29  C   UNL     1      45.604   2.457   8.399  0.00  0.00    +0.000 A 
ATOM     30  N   UNL     1      45.756   1.103   8.448  0.00  0.00    +0.000 NA
ATOM     31  C   UNL     1      46.765   0.569   7.719  0.00  0.00    +0.000 A 
ATOM     32  C   UNL     1      47.630   1.313   6.931  0.00  0.00    +0.000 A 
ATOM     33  C   UNL     1      47.453   2.691   6.882  0.00  0.00    +0.000 A 
ATOM     34  C   UNL     1      46.428   3.266   7.620  0.00  0.00    +0.000 A 
ATOM     35  F   UNL     1      46.236   4.590   7.553  0.00  0.00    +0.000 F 
ENDBRANCH  28  29
ENDBRANCH  27  28
ENDBRANCH  24  27
ENDBRANCH  20  21
ENDBRANCH   3  20
TORSDOF 6
ENDMDL
MODEL 2
REMARK VINA RESULT:    -8.166      2.220      2.953
REMARK INTER + INTRA:         -11.992
REMARK INTER:                 -11.239
REMARK INTRA:                  -0.754
REMARK UNBOUND:                -0.962
REMARK  Name = 
REMARK  6 active torsions:
REMARK  status: ('A' for Active; 'I' for Inactive)
REMARK    1  A    between atoms: C_7  and  C_8
REMARK    2  A    between atoms: N_10  and  C_11
REMARK    3  A    between atoms: C_11  and  C_12
REMARK    4  A    between atoms: C_15  and  O_16
REMARK    5  A    between atoms: O_16  and  C_17
REMARK    6  A    between atoms: C_17  and  C_18
REMARK                            x       y       z     vdW  Elec       q    Type
REMARK                         _______ _______ _______ _____ _____    ______ ____
ROOT
ATOM      1  C   UNL     1      47.433   4.133  16.503  0.00  0.00    +0.000 C 
ATOM      2  O   UNL     1      46.765   3.294  17.106  0.00  0.00    +0.000 OA
ATOM      3  N   UNL     1      46.987   4.729  15.349  0.00  0.00    +0.000 N 
ATOM      4  H   UNL     1      47.541   5.460  14.913  0.00  0.00    +0.000 HD
ENDROOT
BRANCH   1  11
ATOM      5  N   UNL     1      53.656   2.728  18.647  0.00  0.00    +0.000 N 
ATOM      6  C   UNL     1      52.441   3.154  18.210  0.00  0.00    +0.000 A 
ATOM      7  N   UNL     1      52.133   4.416  18.242  0.00  0.00    +0.000 NA
ATOM      8  C   UNL     1      50.888   4.689  17.790  0.00  0.00    +0.000 A 
ATOM      9  N   UNL     1      50.364   5.947  17.739  0.00  0.00    +0.000 N 
ATOM     10  C   UNL     1      49.082   5.874  17.257  0.00  0.00    +0.000 A 
ATOM     11  C   UNL     1      48.757   4.545  16.992  0.00  0.00    +0.000 A 
ATOM     12  C   UNL     1      49.939   3.807  17.312  0.00  0.00    +0.000 A 
ATOM     13  C   UNL     1      50.324   2.420  17.250  0.00  0.00    +0.000 A 
ATOM     14  O   UNL     1      49.613   1.535  16.785  0.00  0.00    +0.000 OA
ATOM     15  N   UNL     1      51.585   2.175  17.754  0.00  0.00    +0.000 N 
ATOM     16  H   UNL     1      54.145   3.439  19.181  0.00  0.00    +0.000 HD
ATOM     17  H   UNL     1      53.708   1.810  19.066  0.00  0.00    +0.000 HD
ATOM     18  H   UNL     1      50.855   6.783  18.021  0.00  0.00    +0.000 HD
ATOM     19  H   UNL     1      51.898   1.219  17.705  0.00  0.00    +0.000 HD
ENDBRANCH   1  11
BRANCH   3  20
ATOM     20  C   UNL     1      45.701   4.424  14.762  0.00  0.00    +0.000 C 
BRANCH  20  21
ATOM     21  C   UNL     1      45.656   4.663  13.271  0.00  0.00    +0.000 A 
ATOM     22  C   UNL     1      46.339   5.749  12.703  0.00  0.00    +0.000 A 
ATOM     23  C   UNL     1      46.304   5.985  11.322  0.00  0.00    +0.000 A 
ATOM     24  C   UNL     1      45.606   5.119  10.482  0.00  0.00    +0.000 A 
ATOM     25  C   UNL     1      44.918   4.039  11.037  0.00  0.00    +0.000 A 
ATOM     26  C   UNL     1      44.939   3.811  12.418  0.00  0.00    +0.000 A 
BRANCH  24  27
ATOM     27  O   UNL     1      45.510   5.247   9.122  0.00  0.00    +0.000 OA
BRANCH  27  28
ATOM     28  C   UNL     1      44.850   4.173   8.441  0.00  0.00    +0.000 C 
BRANCH  28  29
ATOM     29  C   UNL     1      45.876   3.228   7.857  0.00  0.00    +0.000 A 
ATOM     30  N   UNL     1      46.824   3.737   7.019  0.00  0.00    +0.000 NA
ATOM     31  C   UNL     1      47.749   2.872   6.538  0.00  0.00    +0.000 A 
ATOM     32  C   UNL     1      47.788   1.523   6.855  0.00  0.00    +0.000 A 
ATOM     33  C   UNL     1      46.823   1.023   7.720  0.00  0.00    +0.000 A 
ATOM     34  C   UNL     1      45.861   1.886   8.229  0.00  0.00    +0.000 A 
ATOM     35  F   UNL     1      44.945   1.415   9.085  0.00  0.00    +0.000 F 
ENDBRANCH  28  29
ENDBRANCH  27  28
ENDBRANCH  24  27
ENDBRANCH  20  21
ENDBRANCH   3  20
TORSDOF 6
ENDMDL
MODEL 3
REMARK VINA RESULT:    -8.136      1.374      1.585
REMARK INTER + INTRA:         -11.952
REMARK INTER:                 -11.039
REMARK INTRA:                  -0.913
REMARK UNBOUND:                -0.962
REMARK  Name = 
REMARK  6 active torsions:
REMARK  status: ('A' for Active; 'I' for Inactive)
REMARK    1  A    between atoms: C_7  and  C_8
REMARK    2  A    between atoms: N_10  and  C_11
REMARK    3  A    between atoms: C_11  and  C_12
REMARK    4  A    between atoms: C_15  and  O_16
REMARK    5  A    between atoms: O_16  and  C_17
REMARK    6  A    between atoms: C_17  and  C_18
REMARK                            x       y       z     vdW  Elec       q    Type
REMARK                         _______ _______ _______ _____ _____    ______ ____
ROOT
ATOM      1  C   UNL     1      49.139   7.958  15.275  0.00  0.00    +0.000 C 
ATOM      2  O   UNL     1      50.038   8.450  14.595  0.00  0.00    +0.000 OA
ATOM      3  N   UNL     1      47.882   7.734  14.770  0.00  0.00    +0.000 N 
ATOM      4  H   UNL     1      47.183   7.271  15.345  0.00  0.00    +0.000 HD
ENDROOT
BRANCH   1  11
ATOM      5  N   UNL     1      48.596   3.641  20.410  0.00  0.00    +0.000 N 
ATOM      6  C   UNL     1      48.796   4.593  19.460  0.00  0.00    +0.000 A 
ATOM      7  N   UNL     1      49.332   5.735  19.772  0.00  0.00    +0.000 NA
ATOM      8  C   UNL     1      49.454   6.587  18.728  0.00  0.00    +0.000 A 
ATOM      9  N   UNL     1      49.988   7.837  18.835  0.00  0.00    +0.000 N 
ATOM     10  C   UNL     1      49.944   8.445  17.607  0.00  0.00    +0.000 A 
ATOM     11  C   UNL     1      49.366   7.580  16.678  0.00  0.00    +0.000 A 
ATOM     12  C   UNL     1      49.088   6.385  17.412  0.00  0.00    +0.000 A 
ATOM     13  C   UNL     1      48.534   5.095  17.088  0.00  0.00    +0.000 A 
ATOM     14  O   UNL     1      48.230   4.749  15.952  0.00  0.00    +0.000 OA
ATOM     15  N   UNL     1      48.390   4.268  18.183  0.00  0.00    +0.000 N 
ATOM     16  H   UNL     1      48.688   4.010  21.351  0.00  0.00    +0.000 HD
ATOM     17  H   UNL     1      47.801   3.028  20.299  0.00  0.00    +0.000 HD
ATOM     18  H   UNL     1      50.347   8.234  19.692  0.00  0.00    +0.000 HD
ATOM     19  H   UNL     1      48.028   3.348  17.992  0.00  0.00    +0.000 HD
ENDBRANCH   1  11
BRANCH   3  20
ATOM     20  C   UNL     1      47.522   8.049  13.406  0.00  0.00    +0.000 C 
BRANCH  20  21
ATOM     21  C   UNL     1      46.692   6.973  12.745  0.00  0.00    +0.000 A 
ATOM     22  C   UNL     1      46.717   5.657  13.228  0.00  0.00    +0.000 A 
ATOM     23  C   UNL     1      45.956   4.648  12.624  0.00  0.00    +0.000 A 
ATOM     24  C   UNL     1      45.132   4.948  11.540  0.00  0.00    +0.000 A 
ATOM     25  C   UNL     1      45.104   6.253  11.047  0.00  0.00    +0.000 A 
ATOM     26  C   UNL     1      45.878   7.259  11.640  0.00  0.00    +0.000 A 
BRANCH  24  27
ATOM     27  O   UNL     1      44.342   4.047  10.878  0.00  0.00    +0.000 OA
BRANCH  27  28
ATOM     28  C   UNL     1      44.126   4.312   9.486  0.00  0.00    +0.000 C 
BRANCH  28  29
ATOM     29  C   UNL     1      45.168   3.594   8.659  0.00  0.00    +0.000 A 
ATOM     30  N   UNL     1      46.011   4.338   7.888  0.00  0.00    +0.000 NA
ATOM     31  C   UNL     1      46.955   3.668   7.184  0.00  0.00    +0.000 A 
ATOM     32  C   UNL     1      47.113   2.291   7.214  0.00  0.00    +0.000 A 
ATOM     33  C   UNL     1      46.254   1.549   8.016  0.00  0.00    +0.000 A 
ATOM     34  C   UNL     1      45.276   2.208   8.748  0.00  0.00    +0.000 A 
ATOM     35  F   UNL     1      44.463   1.499   9.543  0.00  0.00    +0.000 F 
ENDBRANCH  28  29
ENDBRANCH  27  28
ENDBRANCH  24  27
ENDBRANCH  20  21
ENDBRANCH   3  20
TORSDOF 6
ENDMDL
MODEL 4
REMARK VINA RESULT:    -7.902      2.384      2.790
REMARK INTER + INTRA:         -11.635
REMARK INTER:                 -10.836
REMARK INTRA:                  -0.799
REMARK UNBOUND:                -0.962
REMARK  Name = 
REMARK  6 active torsions:
REMARK  status: ('A' for Active; 'I' for Inactive)
REMARK    1  A    between atoms: C_7  and  C_8
REMARK    2  A    between atoms: N_10  and  C_11
REMARK    3  A    between atoms: C_11  and  C_12
REMARK    4  A    between atoms: C_15  and  O_16
REMARK    5  A    between atoms: O_16  and  C_17
REMARK    6  A    between atoms: C_17  and  C_18
REMARK                            x       y       z     vdW  Elec       q    Type
REMARK                         _______ _______ _______ _____ _____    ______ ____
ROOT
ATOM      1  C   UNL     1      49.366   6.300  16.511  0.00  0.00    +0.000 C 
ATOM      2  O   UNL     1      48.620   6.901  17.282  0.00  0.00    +0.000 OA
ATOM      3  N   UNL     1      49.228   6.385  15.148  0.00  0.00    +0.000 N 
ATOM      4  H   UNL     1      49.901   5.921  14.543  0.00  0.00    +0.000 HD
ENDROOT
BRANCH   1  11
ATOM      5  N   UNL     1      51.925   0.284  18.115  0.00  0.00    +0.000 N 
ATOM      6  C   UNL     1      51.544   1.554  17.811  0.00  0.00    +0.000 A 
ATOM      7  N   UNL     1      52.321   2.560  18.086  0.00  0.00    +0.000 NA
ATOM      8  C   UNL     1      51.805   3.761  17.741  0.00  0.00    +0.000 A 
ATOM      9  N   UNL     1      52.452   4.944  17.942  0.00  0.00    +0.000 N 
ATOM     10  C   UNL     1      51.651   5.968  17.506  0.00  0.00    +0.000 A 
ATOM     11  C   UNL     1      50.455   5.448  17.015  0.00  0.00    +0.000 A 
ATOM     12  C   UNL     1      50.588   4.031  17.147  0.00  0.00    +0.000 A 
ATOM     13  C   UNL     1      49.767   2.894  16.817  0.00  0.00    +0.000 A 
ATOM     14  O   UNL     1      48.695   2.976  16.226  0.00  0.00    +0.000 OA
ATOM     15  N   UNL     1      50.308   1.690  17.217  0.00  0.00    +0.000 N 
ATOM     16  H   UNL     1      52.716   0.260  18.750  0.00  0.00    +0.000 HD
ATOM     17  H   UNL     1      51.200  -0.377  18.356  0.00  0.00    +0.000 HD
ATOM     18  H   UNL     1      53.371   5.031  18.353  0.00  0.00    +0.000 HD
ATOM     19  H   UNL     1      49.773   0.869  16.982  0.00  0.00    +0.000 HD
ENDBRANCH   1  11
BRANCH   3  20
ATOM     20  C   UNL     1      48.208   7.192  14.517  0.00  0.00    +0.000 C 
BRANCH  20  21
ATOM     21  C   UNL     1      47.269   6.390  13.646  0.00  0.00    +0.000 A 
ATOM     22  C   UNL     1      46.803   6.913  12.430  0.00  0.00    +0.000 A 
ATOM     23  C   UNL     1      45.931   6.183  11.613  0.00  0.00    +0.000 A 
ATOM     24  C   UNL     1      45.530   4.901  11.988  0.00  0.00    +0.000 A 
ATOM     25  C   UNL     1      45.982   4.373  13.198  0.00  0.00    +0.000 A 
ATOM     26  C   UNL     1      46.842   5.109  14.023  0.00  0.00    +0.000 A 
BRANCH  24  27
ATOM     27  O   UNL     1      44.689   4.096  11.267  0.00  0.00    +0.000 OA
BRANCH  27  28
ATOM     28  C   UNL     1      44.409   4.528   9.929  0.00  0.00    +0.000 C 
BRANCH  28  29
ATOM     29  C   UNL     1      45.242   3.735   8.948  0.00  0.00    +0.000 A 
ATOM     30  N   UNL     1      46.027   4.415   8.065  0.00  0.00    +0.000 NA
ATOM     31  C   UNL     1      46.786   3.677   7.220  0.00  0.00    +0.000 A 
ATOM     32  C   UNL     1      46.815   2.290   7.215  0.00  0.00    +0.000 A 
ATOM     33  C   UNL     1      46.020   1.613   8.131  0.00  0.00    +0.000 A 
ATOM     34  C   UNL     1      45.230   2.343   9.008  0.00  0.00    +0.000 A 
ATOM     35  F   UNL     1      44.483   1.695   9.912  0.00  0.00    +0.000 F 
ENDBRANCH  28  29
ENDBRANCH  27  28
ENDBRANCH  24  27
ENDBRANCH  20  21
ENDBRANCH   3  20
TORSDOF 6
ENDMDL
MODEL 5
REMARK VINA RESULT:    -7.671      3.922      8.923
REMARK INTER + INTRA:         -11.324
REMARK INTER:                 -10.139
REMARK INTRA:                  -1.185
REMARK UNBOUND:                -0.962
REMARK  Name = 
REMARK  6 active torsions:
REMARK  status: ('A' for Active; 'I' for Inactive)
REMARK    1  A    between atoms: C_7  and  C_8
REMARK    2  A    between atoms: N_10  and  C_11
REMARK    3  A    between atoms: C_11  and  C_12
REMARK    4  A    between atoms: C_15  and  O_16
REMARK    5  A    between atoms: O_16  and  C_17
REMARK    6  A    between atoms: C_17  and  C_18
REMARK                            x       y       z     vdW  Elec       q    Type
REMARK                         _______ _______ _______ _____ _____    ______ ____
ROOT
ATOM      1  C   UNL     1      44.061   4.155  10.378  0.00  0.00    +0.000 C 
ATOM      2  O   UNL     1      42.966   3.935  10.891  0.00  0.00    +0.000 OA
ATOM      3  N   UNL     1      44.720   5.348  10.547  0.00  0.00    +0.000 N 
ATOM      4  H   UNL     1      45.650   5.470  10.156  0.00  0.00    +0.000 HD
ENDROOT
BRANCH   1  11
ATOM      5  N   UNL     1      48.325   2.380   5.481  0.00  0.00    +0.000 N 
ATOM      6  C   UNL     1      47.455   2.595   6.504  0.00  0.00    +0.000 A 
ATOM      7  N   UNL     1      46.799   1.604   7.032  0.00  0.00    +0.000 NA
ATOM      8  C   UNL     1      45.961   1.970   8.028  0.00  0.00    +0.000 A 
ATOM      9  N   UNL     1      45.178   1.089   8.715  0.00  0.00    +0.000 N 
ATOM     10  C   UNL     1      44.434   1.782   9.636  0.00  0.00    +0.000 A 
ATOM     11  C   UNL     1      44.730   3.141   9.548  0.00  0.00    +0.000 A 
ATOM     12  C   UNL     1      45.732   3.234   8.533  0.00  0.00    +0.000 A 
ATOM     13  C   UNL     1      46.503   4.307   7.955  0.00  0.00    +0.000 A 
ATOM     14  O   UNL     1      46.457   5.468   8.349  0.00  0.00    +0.000 OA
ATOM     15  N   UNL     1      47.318   3.902   6.919  0.00  0.00    +0.000 N 
ATOM     16  H   UNL     1      48.213   1.461   5.065  0.00  0.00    +0.000 HD
ATOM     17  H   UNL     1      48.434   3.116   4.797  0.00  0.00    +0.000 HD
ATOM     18  H   UNL     1      45.160   0.092   8.553  0.00  0.00    +0.000 HD
ATOM     19  H   UNL     1      47.890   4.620   6.505  0.00  0.00    +0.000 HD
ENDBRANCH   1  11
BRANCH   3  20
ATOM     20  C   UNL     1      44.183   6.428  11.344  0.00  0.00    +0.000 C 
BRANCH  20  21
ATOM     21  C   UNL     1      45.227   7.120  12.190  0.00  0.00    +0.000 A 
ATOM     22  C   UNL     1      46.267   6.385  12.780  0.00  0.00    +0.000 A 
ATOM     23  C   UNL     1      47.240   7.013  13.568  0.00  0.00    +0.000 A 
ATOM     24  C   UNL     1      47.205   8.394  13.756  0.00  0.00    +0.000 A 
ATOM     25  C   UNL     1      46.171   9.133  13.179  0.00  0.00    +0.000 A 
ATOM     26  C   UNL     1      45.189   8.505  12.404  0.00  0.00    +0.000 A 
BRANCH  24  27
ATOM     27  O   UNL     1      48.104   9.111  14.498  0.00  0.00    +0.000 OA
BRANCH  27  28
ATOM     28  C   UNL     1      48.818  10.134  13.792  0.00  0.00    +0.000 C 
BRANCH  28  29
ATOM     29  C   UNL     1      50.028   9.539  13.109  0.00  0.00    +0.000 A 
ATOM     30  N   UNL     1      51.150   9.321  13.852  0.00  0.00    +0.000 NA
ATOM     31  C   UNL     1      52.208   8.757  13.221  0.00  0.00    +0.000 A 
ATOM     32  C   UNL     1      52.205   8.385  11.885  0.00  0.00    +0.000 A 
ATOM     33  C   UNL     1      51.048   8.602  11.145  0.00  0.00    +0.000 A 
ATOM     34  C   UNL     1      49.949   9.180  11.766  0.00  0.00    +0.000 A 
ATOM     35  F   UNL     1      48.823   9.365  11.064  0.00  0.00    +0.000 F 
ENDBRANCH  28  29
ENDBRANCH  27  28
ENDBRANCH  24  27
ENDBRANCH  20  21
ENDBRANCH   3  20
TORSDOF 6
ENDMDL
MODEL 6
REMARK VINA RESULT:    -7.665      3.157      9.615
REMARK INTER + INTRA:         -11.315
REMARK INTER:                 -10.376
REMARK INTRA:                  -0.939
REMARK UNBOUND:                -0.962
REMARK  Name = 
REMARK  6 active torsions:
REMARK  status: ('A' for Active; 'I' for Inactive)
REMARK    1  A    between atoms: C_7  and  C_8
REMARK    2  A    between atoms: N_10  and  C_11
REMARK    3  A    between atoms: C_11  and  C_12
REMARK    4  A    between atoms: C_15  and  O_16
REMARK    5  A    between atoms: O_16  and  C_17
REMARK    6  A    between atoms: C_17  and  C_18
REMARK                            x       y       z     vdW  Elec       q    Type
REMARK                         _______ _______ _______ _____ _____    ______ ____
ROOT
ATOM      1  C   UNL     1      44.094   4.127  10.388  0.00  0.00    +0.000 C 
ATOM      2  O   UNL     1      42.997   3.908  10.899  0.00  0.00    +0.000 OA
ATOM      3  N   UNL     1      44.759   5.315  10.565  0.00  0.00    +0.000 N 
ATOM      4  H   UNL     1      45.690   5.435  10.175  0.00  0.00    +0.000 HD
ENDROOT
BRANCH   1  11
ATOM      5  N   UNL     1      48.344   2.363   5.475  0.00  0.00    +0.000 N 
ATOM      6  C   UNL     1      47.476   2.575   6.500  0.00  0.00    +0.000 A 
ATOM      7  N   UNL     1      46.819   1.583   7.025  0.00  0.00    +0.000 NA
ATOM      8  C   UNL     1      45.983   1.947   8.024  0.00  0.00    +0.000 A 
ATOM      9  N   UNL     1      45.199   1.066   8.708  0.00  0.00    +0.000 N 
ATOM     10  C   UNL     1      44.459   1.756   9.633  0.00  0.00    +0.000 A 
ATOM     11  C   UNL     1      44.758   3.115   9.551  0.00  0.00    +0.000 A 
ATOM     12  C   UNL     1      45.759   3.209   8.535  0.00  0.00    +0.000 A 
ATOM     13  C   UNL     1      46.532   4.282   7.962  0.00  0.00    +0.000 A 
ATOM     14  O   UNL     1      46.491   5.442   8.361  0.00  0.00    +0.000 OA
ATOM     15  N   UNL     1      47.344   3.881   6.922  0.00  0.00    +0.000 N 
ATOM     16  H   UNL     1      48.228   1.446   5.055  0.00  0.00    +0.000 HD
ATOM     17  H   UNL     1      48.454   3.101   4.795  0.00  0.00    +0.000 HD
ATOM     18  H   UNL     1      45.178   0.069   8.541  0.00  0.00    +0.000 HD
ATOM     19  H   UNL     1      47.918   4.599   6.511  0.00  0.00    +0.000 HD
ENDBRANCH   1  11
BRANCH   3  20
ATOM     20  C   UNL     1      44.227   6.392  11.369  0.00  0.00    +0.000 C 
BRANCH  20  21
ATOM     21  C   UNL     1      45.283   7.108  12.180  0.00  0.00    +0.000 A 
ATOM     22  C   UNL     1      46.340   6.392  12.761  0.00  0.00    +0.000 A 
ATOM     23  C   UNL     1      47.325   7.041  13.517  0.00  0.00    +0.000 A 
ATOM     24  C   UNL     1      47.282   8.424  13.682  0.00  0.00    +0.000 A 
ATOM     25  C   UNL     1      46.231   9.146  13.113  0.00  0.00    +0.000 A 
ATOM     26  C   UNL     1      45.238   8.496  12.370  0.00  0.00    +0.000 A 
BRANCH  24  27
ATOM     27  O   UNL     1      48.191   9.162  14.391  0.00  0.00    +0.000 OA
BRANCH  27  28
ATOM     28  C   UNL     1      49.124   8.410  15.179  0.00  0.00    +0.000 C 
BRANCH  28  29
ATOM     29  C   UNL     1      48.613   8.281  16.595  0.00  0.00    +0.000 A 
ATOM     30  N   UNL     1      48.174   9.404  17.232  0.00  0.00    +0.000 NA
ATOM     31  C   UNL     1      47.692   9.252  18.489  0.00  0.00    +0.000 A 
ATOM     32  C   UNL     1      47.612   8.034  19.146  0.00  0.00    +0.000 A 
ATOM     33  C   UNL     1      48.050   6.897  18.478  0.00  0.00    +0.000 A 
ATOM     34  C   UNL     1      48.551   7.023  17.189  0.00  0.00    +0.000 A 
ATOM     35  F   UNL     1      48.949   5.926  16.531  0.00  0.00    +0.000 F 
ENDBRANCH  28  29
ENDBRANCH  27  28
ENDBRANCH  24  27
ENDBRANCH  20  21
ENDBRANCH   3  20
TORSDOF 6
ENDMDL
MODEL 7
REMARK VINA RESULT:    -7.658      5.058      9.035
REMARK INTER + INTRA:         -11.306
REMARK INTER:                 -10.294
REMARK INTRA:                  -1.013
REMARK UNBOUND:                -0.962
REMARK  Name = 
REMARK  6 active torsions:
REMARK  status: ('A' for Active; 'I' for Inactive)
REMARK    1  A    between atoms: C_7  and  C_8
REMARK    2  A    between atoms: N_10  and  C_11
REMARK    3  A    between atoms: C_11  and  C_12
REMARK    4  A    between atoms: C_15  and  O_16
REMARK    5  A    between atoms: O_16  and  C_17
REMARK    6  A    between atoms: C_17  and  C_18
REMARK                            x       y       z     vdW  Elec       q    Type
REMARK                         _______ _______ _______ _____ _____    ______ ____
ROOT
ATOM      1  C   UNL     1      48.250   6.228  14.699  0.00  0.00    +0.000 C 
ATOM      2  O   UNL     1      49.356   6.696  14.436  0.00  0.00    +0.000 OA
ATOM      3  N   UNL     1      47.927   5.780  15.956  0.00  0.00    +0.000 N 
ATOM      4  H   UNL     1      46.984   5.455  16.150  0.00  0.00    +0.000 HD
ENDROOT
BRANCH   1  11
ATOM      5  N   UNL     1      44.128   2.617  10.790  0.00  0.00    +0.000 N 
ATOM      6  C   UNL     1      44.885   3.466  11.535  0.00  0.00    +0.000 A 
ATOM      7  N   UNL     1      44.842   4.748  11.323  0.00  0.00    +0.000 NA
ATOM      8  C   UNL     1      45.659   5.465  12.128  0.00  0.00    +0.000 A 
ATOM      9  N   UNL     1      45.769   6.823  12.072  0.00  0.00    +0.000 N 
ATOM     10  C   UNL     1      46.693   7.232  12.999  0.00  0.00    +0.000 A 
ATOM     11  C   UNL     1      47.204   6.122  13.671  0.00  0.00    +0.000 A 
ATOM     12  C   UNL     1      46.504   5.005  13.117  0.00  0.00    +0.000 A 
ATOM     13  C   UNL     1      46.501   3.583  13.357  0.00  0.00    +0.000 A 
ATOM     14  O   UNL     1      47.147   3.040  14.247  0.00  0.00    +0.000 OA
ATOM     15  N   UNL     1      45.685   2.882  12.493  0.00  0.00    +0.000 N 
ATOM     16  H   UNL     1      43.749   3.064   9.962  0.00  0.00    +0.000 HD
ATOM     17  H   UNL     1      44.497   1.694  10.611  0.00  0.00    +0.000 HD
ATOM     18  H   UNL     1      45.248   7.414  11.439  0.00  0.00    +0.000 HD
ATOM     19  H   UNL     1      45.639   1.887  12.645  0.00  0.00    +0.000 HD
ENDBRANCH   1  11
BRANCH   3  20
ATOM     20  C   UNL     1      48.856   5.832  17.064  0.00  0.00    +0.000 C 
BRANCH  20  21
ATOM     21  C   UNL     1      49.670   4.568  17.218  0.00  0.00    +0.000 A 
ATOM     22  C   UNL     1      49.079   3.312  17.015  0.00  0.00    +0.000 A 
ATOM     23  C   UNL     1      49.820   2.132  17.157  0.00  0.00    +0.000 A 
ATOM     24  C   UNL     1      51.176   2.191  17.480  0.00  0.00    +0.000 A 
ATOM     25  C   UNL     1      51.772   3.435  17.690  0.00  0.00    +0.000 A 
ATOM     26  C   UNL     1      51.028   4.615  17.564  0.00  0.00    +0.000 A 
BRANCH  24  27
ATOM     27  O   UNL     1      51.996   1.106  17.637  0.00  0.00    +0.000 OA
BRANCH  27  28
ATOM     28  C   UNL     1      53.339   1.396  18.045  0.00  0.00    +0.000 C 
BRANCH  28  29
ATOM     29  C   UNL     1      54.116   0.109  18.204  0.00  0.00    +0.000 A 
ATOM     30  N   UNL     1      54.330  -0.368  19.463  0.00  0.00    +0.000 NA
ATOM     31  C   UNL     1      55.001  -1.540  19.573  0.00  0.00    +0.000 A 
ATOM     32  C   UNL     1      55.464  -2.272  18.491  0.00  0.00    +0.000 A 
ATOM     33  C   UNL     1      55.226  -1.779  17.213  0.00  0.00    +0.000 A 
ATOM     34  C   UNL     1      54.541  -0.579  17.070  0.00  0.00    +0.000 A 
ATOM     35  F   UNL     1      54.285  -0.114  15.841  0.00  0.00    +0.000 F 
ENDBRANCH  28  29
ENDBRANCH  27  28
ENDBRANCH  24  27
ENDBRANCH  20  21
ENDBRANCH   3  20
TORSDOF 6
ENDMDL
MODEL 8
REMARK VINA RESULT:    -7.479      3.619      8.026
REMARK INTER + INTRA:         -11.064
REMARK INTER:                  -9.734
REMARK INTRA:                  -1.330
REMARK UNBOUND:                -0.962
REMARK  Name = 
REMARK  6 active torsions:
REMARK  status: ('A' for Active; 'I' for Inactive)
REMARK    1  A    between atoms: C_7  and  C_8
REMARK    2  A    between atoms: N_10  and  C_11
REMARK    3  A    between atoms: C_11  and  C_12
REMARK    4  A    between atoms: C_15  and  O_16
REMARK    5  A    between atoms: O_16  and  C_17
REMARK    6  A    between atoms: C_17  and  C_18
REMARK                            x       y       z     vdW  Elec       q    Type
REMARK                         _______ _______ _______ _____ _____    ______ ____
ROOT
ATOM      1  C   UNL     1      47.132   7.650  12.816  0.00  0.00    +0.000 C 
ATOM      2  O   UNL     1      48.188   7.545  12.195  0.00  0.00    +0.000 OA
ATOM      3  N   UNL     1      47.037   8.374  13.978  0.00  0.00    +0.000 N 
ATOM      4  H   UNL     1      46.134   8.486  14.431  0.00  0.00    +0.000 HD
ENDROOT
BRANCH   1  11
ATOM      5  N   UNL     1      43.318   2.189  11.846  0.00  0.00    +0.000 N 
ATOM      6  C   UNL     1      43.970   3.372  12.002  0.00  0.00    +0.000 A 
ATOM      7  N   UNL     1      43.469   4.471  11.521  0.00  0.00    +0.000 NA
ATOM      8  C   UNL     1      44.234   5.565  11.739  0.00  0.00    +0.000 A 
ATOM      9  N   UNL     1      43.896   6.817  11.317  0.00  0.00    +0.000 N 
ATOM     10  C   UNL     1      44.891   7.690  11.676  0.00  0.00    +0.000 A 
ATOM     11  C   UNL     1      45.902   6.997  12.341  0.00  0.00    +0.000 A 
ATOM     12  C   UNL     1      45.446   5.644  12.396  0.00  0.00    +0.000 A 
ATOM     13  C   UNL     1      45.957   4.417  12.954  0.00  0.00    +0.000 A 
ATOM     14  O   UNL     1      46.983   4.347  13.622  0.00  0.00    +0.000 OA
ATOM     15  N   UNL     1      45.170   3.318  12.679  0.00  0.00    +0.000 N 
ATOM     16  H   UNL     1      42.580   2.244  11.152  0.00  0.00    +0.000 HD
ATOM     17  H   UNL     1      43.879   1.353  11.765  0.00  0.00    +0.000 HD
ATOM     18  H   UNL     1      43.047   7.042  10.817  0.00  0.00    +0.000 HD
ATOM     19  H   UNL     1      45.482   2.446  13.074  0.00  0.00    +0.000 HD
ENDBRANCH   1  11
BRANCH   3  20
ATOM     20  C   UNL     1      48.164   9.074  14.554  0.00  0.00    +0.000 C 
BRANCH  20  21
ATOM     21  C   UNL     1      48.871   8.281  15.629  0.00  0.00    +0.000 A 
ATOM     22  C   UNL     1      49.916   7.406  15.297  0.00  0.00    +0.000 A 
ATOM     23  C   UNL     1      50.579   6.662  16.282  0.00  0.00    +0.000 A 
ATOM     24  C   UNL     1      50.224   6.803  17.623  0.00  0.00    +0.000 A 
ATOM     25  C   UNL     1      49.182   7.667  17.964  0.00  0.00    +0.000 A 
ATOM     26  C   UNL     1      48.508   8.399  16.978  0.00  0.00    +0.000 A 
BRANCH  24  27
ATOM     27  O   UNL     1      50.805   6.135  18.667  0.00  0.00    +0.000 OA
BRANCH  27  28
ATOM     28  C   UNL     1      49.983   5.157  19.315  0.00  0.00    +0.000 C 
BRANCH  28  29
ATOM     29  C   UNL     1      49.571   4.093  18.323  0.00  0.00    +0.000 A 
ATOM     30  N   UNL     1      50.514   3.210  17.890  0.00  0.00    +0.000 NA
ATOM     31  C   UNL     1      50.108   2.248  17.027  0.00  0.00    +0.000 A 
ATOM     32  C   UNL     1      48.803   2.111  16.577  0.00  0.00    +0.000 A 
ATOM     33  C   UNL     1      47.851   3.011  17.040  0.00  0.00    +0.000 A 
ATOM     34  C   UNL     1      48.239   4.009  17.924  0.00  0.00    +0.000 A 
ATOM     35  F   UNL     1      47.319   4.861  18.394  0.00  0.00    +0.000 F 
ENDBRANCH  28  29
ENDBRANCH  27  28
ENDBRANCH  24  27
ENDBRANCH  20  21
ENDBRANCH   3  20
TORSDOF 6
ENDMDL
MODEL 9
REMARK VINA RESULT:    -7.336      3.320      4.218
REMARK INTER + INTRA:         -10.871
REMARK INTER:                  -9.899
REMARK INTRA:                  -0.972
REMARK UNBOUND:                -0.962
REMARK  Name = 
REMARK  6 active torsions:
REMARK  status: ('A' for Active; 'I' for Inactive)
REMARK    1  A    between atoms: C_7  and  C_8
REMARK    2  A    between atoms: N_10  and  C_11
REMARK    3  A    between atoms: C_11  and  C_12
REMARK    4  A    between atoms: C_15  and  O_16
REMARK    5  A    between atoms: O_16  and  C_17
REMARK    6  A    between atoms: C_17  and  C_18
REMARK                            x       y       z     vdW  Elec       q    Type
REMARK                         _______ _______ _______ _____ _____    ______ ____
ROOT
ATOM      1  C   UNL     1      50.710   5.567  17.954  0.00  0.00    +0.000 C 
ATOM      2  O   UNL     1      50.093   6.206  18.805  0.00  0.00    +0.000 OA
ATOM      3  N   UNL     1      50.468   5.718  16.611  0.00  0.00    +0.000 N 
ATOM      4  H   UNL     1      51.039   5.216  15.936  0.00  0.00    +0.000 HD
ENDROOT
BRANCH   1  11
ATOM      5  N   UNL     1      53.213  -0.679  18.116  0.00  0.00    +0.000 N 
ATOM      6  C   UNL     1      52.839   0.628  18.136  0.00  0.00    +0.000 A 
ATOM      7  N   UNL     1      53.545   1.508  18.782  0.00  0.00    +0.000 NA
ATOM      8  C   UNL     1      53.043   2.763  18.726  0.00  0.00    +0.000 A 
ATOM      9  N   UNL     1      53.625   3.834  19.335  0.00  0.00    +0.000 N 
ATOM     10  C   UNL     1      52.858   4.947  19.105  0.00  0.00    +0.000 A 
ATOM     11  C   UNL     1      51.749   4.598  18.335  0.00  0.00    +0.000 A 
ATOM     12  C   UNL     1      51.905   3.201  18.079  0.00  0.00    +0.000 A 
ATOM     13  C   UNL     1      51.165   2.211  17.337  0.00  0.00    +0.000 A 
ATOM     14  O   UNL     1      50.176   2.466  16.658  0.00  0.00    +0.000 OA
ATOM     15  N   UNL     1      51.685   0.938  17.448  0.00  0.00    +0.000 N 
ATOM     16  H   UNL     1      53.917  -0.889  18.816  0.00  0.00    +0.000 HD
ATOM     17  H   UNL     1      52.483  -1.375  18.064  0.00  0.00    +0.000 HD
ATOM     18  H   UNL     1      54.481   3.793  19.870  0.00  0.00    +0.000 HD
ATOM     19  H   UNL     1      51.208   0.222  16.924  0.00  0.00    +0.000 HD
ENDBRANCH   1  11
BRANCH   3  20
ATOM     20  C   UNL     1      49.481   6.640  16.096  0.00  0.00    +0.000 C 
BRANCH  20  21
ATOM     21  C   UNL     1      48.370   5.959  15.331  0.00  0.00    +0.000 A 
ATOM     22  C   UNL     1      47.742   4.818  15.852  0.00  0.00    +0.000 A 
ATOM     23  C   UNL     1      46.713   4.174  15.153  0.00  0.00    +0.000 A 
ATOM     24  C   UNL     1      46.276   4.679  13.929  0.00  0.00    +0.000 A 
ATOM     25  C   UNL     1      46.898   5.810  13.398  0.00  0.00    +0.000 A 
ATOM     26  C   UNL     1      47.937   6.445  14.089  0.00  0.00    +0.000 A 
BRANCH  24  27
ATOM     27  O   UNL     1      45.278   4.137  13.165  0.00  0.00    +0.000 OA
BRANCH  27  28
ATOM     28  C   UNL     1      44.652   5.030  12.234  0.00  0.00    +0.000 C 
BRANCH  28  29
ATOM     29  C   UNL     1      44.807   4.497  10.828  0.00  0.00    +0.000 A 
ATOM     30  N   UNL     1      45.560   5.209   9.943  0.00  0.00    +0.000 NA
ATOM     31  C   UNL     1      45.707   4.690   8.701  0.00  0.00    +0.000 A 
ATOM     32  C   UNL     1      45.151   3.487   8.292  0.00  0.00    +0.000 A 
ATOM     33  C   UNL     1      44.397   2.767   9.211  0.00  0.00    +0.000 A 
ATOM     34  C   UNL     1      44.228   3.275  10.492  0.00  0.00    +0.000 A 
ATOM     35  F   UNL     1      43.525   2.571  11.389  0.00  0.00    +0.000 F 
ENDBRANCH  28  29
ENDBRANCH  27  28
ENDBRANCH  24  27
ENDBRANCH  20  21
ENDBRANCH   3  20
TORSDOF 6
ENDMDL
