MODEL 1
REMARK VINA RESULT:    -7.630      0.000      0.000
REMARK INTER + INTRA:         -11.698
REMARK INTER:                 -10.752
REMARK INTRA:                  -0.945
REMARK UNBOUND:                -0.945
REMARK  Name = 
REMARK  7 active torsions:
REMARK  status: ('A' for Active; 'I' for Inactive)
REMARK    1  A    between atoms: C_2  and  C_19
REMARK    2  A    between atoms: N_3  and  C_4
REMARK    3  A    between atoms: C_4  and  C_5
REMARK    4  A    between atoms: C_8  and  O_9
REMARK    5  A    between atoms: O_9  and  C_10
REMARK    6  A    between atoms: C_10  and  C_11
REMARK    7  A    between atoms: C_11  and  N_12
REMARK                            x       y       z     vdW  Elec       q    Type
REMARK                         _______ _______ _______ _____ _____    ______ ____
ROOT
ATOM      1  O   UNL     1      48.942   6.283  13.307  0.00  0.00    +0.000 OA
ATOM      2  C   UNL     1      48.284   6.645  14.278  0.00  0.00    +0.000 C 
ATOM      3  N   UNL     1      47.125   7.365  14.162  0.00  0.00    +0.000 N 
ATOM      4  H   UNL     1      46.725   7.803  14.982  0.00  0.00    +0.000 HD
ENDROOT
BRANCH   2   5
ATOM      5  C   UNL     1      48.667   6.268  15.645  0.00  0.00    +0.000 A 
ATOM      6  C   UNL     1      49.486   7.107  16.391  0.00  0.00    +0.000 A 
ATOM      7  S   UNL     1      49.834   6.509  17.950  0.00  0.00    +0.000 S 
ATOM      8  C   UNL     1      48.871   5.129  17.696  0.00  0.00    +0.000 A 
ATOM      9  N   UNL     1      48.705   4.201  18.677  0.00  0.00    +0.000 NA
ATOM     10  C   UNL     1      47.913   3.229  18.363  0.00  0.00    +0.000 A 
ATOM     11  N   UNL     1      47.284   3.092  17.152  0.00  0.00    +0.000 N 
ATOM     12  C   UNL     1      47.487   3.961  16.108  0.00  0.00    +0.000 A 
ATOM     13  O   UNL     1      47.028   3.727  14.990  0.00  0.00    +0.000 OA
ATOM     14  C   UNL     1      48.319   5.104  16.427  0.00  0.00    +0.000 A 
ATOM     15  H   UNL     1      46.709   2.288  16.961  0.00  0.00    +0.000 HD
ENDBRANCH   2   5
BRANCH   3  16
ATOM     16  C   UNL     1      46.602   7.809  12.894  0.00  0.00    +0.000 C 
BRANCH  16  17
ATOM     17  C   UNL     1      45.914   6.695  12.153  0.00  0.00    +0.000 A 
ATOM     18  C   UNL     1      46.217   6.480  10.808  0.00  0.00    +0.000 A 
ATOM     19  C   UNL     1      45.619   5.434  10.106  0.00  0.00    +0.000 A 
ATOM     20  C   UNL     1      44.689   4.592  10.726  0.00  0.00    +0.000 A 
ATOM     21  C   UNL     1      44.363   4.820  12.063  0.00  0.00    +0.000 A 
ATOM     22  C   UNL     1      44.966   5.868  12.772  0.00  0.00    +0.000 A 
BRANCH  20  23
ATOM     23  O   UNL     1      44.046   3.534  10.121  0.00  0.00    +0.000 OA
BRANCH  23  24
ATOM     24  C   UNL     1      44.567   3.216   8.828  0.00  0.00    +0.000 C 
BRANCH  24  25
ATOM     25  C   UNL     1      45.475   1.975   8.828  0.00  0.00    +0.000 C 
BRANCH  25  26
ATOM     26  N   UNL     1      45.900   1.662   7.454  0.00  0.00    +0.000 NA
ATOM     27  C   UNL     1      46.401   2.823   6.723  0.00  0.00    +0.000 C 
ATOM     28  C   UNL     1      47.911   2.730   6.789  0.00  0.00    +0.000 C 
ATOM     29  O   UNL     1      48.229   1.376   7.095  0.00  0.00    +0.000 OA
ATOM     30  C   UNL     1      47.004   0.709   7.378  0.00  0.00    +0.000 C 
ENDBRANCH  25  26
ENDBRANCH  24  25
ENDBRANCH  23  24
ENDBRANCH  20  23
ENDBRANCH  16  17
ENDBRANCH   3  16
TORSDOF 7
ENDMDL
MODEL 2
REMARK VINA RESULT:    -7.002      3.515      7.647
REMARK INTER + INTRA:         -10.812
REMARK INTER:                  -9.826
REMARK INTRA:                  -0.987
REMARK UNBOUND:                -0.945
REMARK  Name = 
REMARK  7 active torsions:
REMARK  status: ('A' for Active; 'I' for Inactive)
REMARK    1  A    between atoms: C_2  and  C_19
REMARK    2  A    between atoms: N_3  and  C_4
REMARK    3  A    between atoms: C_4  and  C_5
REMARK    4  A    between atoms: C_8  and  O_9
REMARK    5  A    between atoms: O_9  and  C_10
REMARK    6  A    between atoms: C_10  and  C_11
REMARK    7  A    between atoms: C_11  and  N_12
REMARK                            x       y       z     vdW  Elec       q    Type
REMARK                         _______ _______ _______ _____ _____    ______ ____
ROOT
ATOM      1  O   UNL     1      45.524   7.809  11.959  0.00  0.00    +0.000 OA
ATOM      2  C   UNL     1      46.223   6.935  11.456  0.00  0.00    +0.000 C 
ATOM      3  N   UNL     1      47.592   6.960  11.506  0.00  0.00    +0.000 N 
ATOM      4  H   UNL     1      48.124   6.330  10.919  0.00  0.00    +0.000 HD
ENDROOT
BRANCH   2   5
ATOM      5  C   UNL     1      45.630   5.754  10.817  0.00  0.00    +0.000 A 
ATOM      6  C   UNL     1      45.851   5.513   9.466  0.00  0.00    +0.000 A 
ATOM      7  S   UNL     1      45.082   4.104   8.889  0.00  0.00    +0.000 S 
ATOM      8  C   UNL     1      44.458   3.747  10.433  0.00  0.00    +0.000 A 
ATOM      9  N   UNL     1      43.719   2.625  10.646  0.00  0.00    +0.000 NA
ATOM     10  C   UNL     1      43.350   2.456  11.872  0.00  0.00    +0.000 A 
ATOM     11  N   UNL     1      43.638   3.315  12.903  0.00  0.00    +0.000 N 
ATOM     12  C   UNL     1      44.310   4.498  12.716  0.00  0.00    +0.000 A 
ATOM     13  O   UNL     1      44.420   5.315  13.630  0.00  0.00    +0.000 OA
ATOM     14  C   UNL     1      44.802   4.707  11.369  0.00  0.00    +0.000 A 
ATOM     15  H   UNL     1      43.284   3.141  13.830  0.00  0.00    +0.000 HD
ENDBRANCH   2   5
BRANCH   3  16
ATOM     16  C   UNL     1      48.335   8.041  12.105  0.00  0.00    +0.000 C 
BRANCH  16  17
ATOM     17  C   UNL     1      48.960   7.631  13.411  0.00  0.00    +0.000 A 
ATOM     18  C   UNL     1      50.261   8.047  13.704  0.00  0.00    +0.000 A 
ATOM     19  C   UNL     1      50.853   7.711  14.921  0.00  0.00    +0.000 A 
ATOM     20  C   UNL     1      50.168   6.934  15.863  0.00  0.00    +0.000 A 
ATOM     21  C   UNL     1      48.879   6.495  15.562  0.00  0.00    +0.000 A 
ATOM     22  C   UNL     1      48.279   6.836  14.342  0.00  0.00    +0.000 A 
BRANCH  20  23
ATOM     23  O   UNL     1      50.666   6.551  17.090  0.00  0.00    +0.000 OA
BRANCH  23  24
ATOM     24  C   UNL     1      50.008   5.406  17.637  0.00  0.00    +0.000 C 
BRANCH  24  25
ATOM     25  C   UNL     1      50.890   4.147  17.649  0.00  0.00    +0.000 C 
BRANCH  25  26
ATOM     26  N   UNL     1      50.061   2.952  17.875  0.00  0.00    +0.000 NA
ATOM     27  C   UNL     1      48.635   3.188  17.666  0.00  0.00    +0.000 C 
ATOM     28  C   UNL     1      48.329   2.652  16.283  0.00  0.00    +0.000 C 
ATOM     29  O   UNL     1      49.376   1.746  15.948  0.00  0.00    +0.000 OA
ATOM     30  C   UNL     1      50.360   1.844  16.972  0.00  0.00    +0.000 C 
ENDBRANCH  25  26
ENDBRANCH  24  25
ENDBRANCH  23  24
ENDBRANCH  20  23
ENDBRANCH  16  17
ENDBRANCH   3  16
TORSDOF 7
ENDMDL
MODEL 3
REMARK VINA RESULT:    -6.612      2.927      3.567
REMARK INTER + INTRA:         -10.262
REMARK INTER:                  -8.861
REMARK INTRA:                  -1.401
REMARK UNBOUND:                -0.945
REMARK  Name = 
REMARK  7 active torsions:
REMARK  status: ('A' for Active; 'I' for Inactive)
REMARK    1  A    between atoms: C_2  and  C_19
REMARK    2  A    between atoms: N_3  and  C_4
REMARK    3  A    between atoms: C_4  and  C_5
REMARK    4  A    between atoms: C_8  and  O_9
REMARK    5  A    between atoms: O_9  and  C_10
REMARK    6  A    between atoms: C_10  and  C_11
REMARK    7  A    between atoms: C_11  and  N_12
REMARK                            x       y       z     vdW  Elec       q    Type
REMARK                         _______ _______ _______ _____ _____    ______ ____
ROOT
ATOM      1  O   UNL     1      48.953   8.592  16.386  0.00  0.00    +0.000 OA
ATOM      2  C   UNL     1      49.100   7.435  16.003  0.00  0.00    +0.000 C 
ATOM      3  N   UNL     1      49.157   7.094  14.678  0.00  0.00    +0.000 N 
ATOM      4  H   UNL     1      49.084   6.121  14.410  0.00  0.00    +0.000 HD
ENDROOT
BRANCH   2   5
ATOM      5  C   UNL     1      49.292   6.333  16.954  0.00  0.00    +0.000 A 
ATOM      6  C   UNL     1      50.245   6.444  17.960  0.00  0.00    +0.000 A 
ATOM      7  S   UNL     1      50.338   5.070  18.967  0.00  0.00    +0.000 S 
ATOM      8  C   UNL     1      49.082   4.295  18.117  0.00  0.00    +0.000 A 
ATOM      9  N   UNL     1      48.633   3.069  18.498  0.00  0.00    +0.000 NA
ATOM     10  C   UNL     1      47.647   2.621  17.794  0.00  0.00    +0.000 A 
ATOM     11  N   UNL     1      47.079   3.280  16.732  0.00  0.00    +0.000 N 
ATOM     12  C   UNL     1      47.554   4.481  16.265  0.00  0.00    +0.000 A 
ATOM     13  O   UNL     1      47.121   4.970  15.222  0.00  0.00    +0.000 OA
ATOM     14  C   UNL     1      48.621   5.058  17.058  0.00  0.00    +0.000 A 
ATOM     15  H   UNL     1      46.337   2.853  16.202  0.00  0.00    +0.000 HD
ENDBRANCH   2   5
BRANCH   3  16
ATOM     16  C   UNL     1      48.996   8.054  13.614  0.00  0.00    +0.000 C 
BRANCH  16  17
ATOM     17  C   UNL     1      47.668   7.905  12.924  0.00  0.00    +0.000 A 
ATOM     18  C   UNL     1      47.417   6.758  12.169  0.00  0.00    +0.000 A 
ATOM     19  C   UNL     1      46.182   6.577  11.546  0.00  0.00    +0.000 A 
ATOM     20  C   UNL     1      45.179   7.548  11.645  0.00  0.00    +0.000 A 
ATOM     21  C   UNL     1      45.436   8.707  12.376  0.00  0.00    +0.000 A 
ATOM     22  C   UNL     1      46.674   8.889  13.008  0.00  0.00    +0.000 A 
BRANCH  20  23
ATOM     23  O   UNL     1      43.930   7.462  11.068  0.00  0.00    +0.000 OA
BRANCH  23  24
ATOM     24  C   UNL     1      43.135   6.395  11.589  0.00  0.00    +0.000 C 
BRANCH  24  25
ATOM     25  C   UNL     1      43.152   5.137  10.706  0.00  0.00    +0.000 C 
BRANCH  25  26
ATOM     26  N   UNL     1      43.149   3.930  11.548  0.00  0.00    +0.000 NA
ATOM     27  C   UNL     1      44.220   2.992  11.222  0.00  0.00    +0.000 C 
ATOM     28  C   UNL     1      45.301   3.229  12.256  0.00  0.00    +0.000 C 
ATOM     29  O   UNL     1      44.683   3.885  13.359  0.00  0.00    +0.000 OA
ATOM     30  C   UNL     1      43.350   4.198  12.970  0.00  0.00    +0.000 C 
ENDBRANCH  25  26
ENDBRANCH  24  25
ENDBRANCH  23  24
ENDBRANCH  20  23
ENDBRANCH  16  17
ENDBRANCH   3  16
TORSDOF 7
ENDMDL
MODEL 4
REMARK VINA RESULT:    -6.528      2.754      8.157
REMARK INTER + INTRA:         -10.145
REMARK INTER:                  -8.960
REMARK INTRA:                  -1.185
REMARK UNBOUND:                -0.945
REMARK  Name = 
REMARK  7 active torsions:
REMARK  status: ('A' for Active; 'I' for Inactive)
REMARK    1  A    between atoms: C_2  and  C_19
REMARK    2  A    between atoms: N_3  and  C_4
REMARK    3  A    between atoms: C_4  and  C_5
REMARK    4  A    between atoms: C_8  and  O_9
REMARK    5  A    between atoms: O_9  and  C_10
REMARK    6  A    between atoms: C_10  and  C_11
REMARK    7  A    between atoms: C_11  and  N_12
REMARK                            x       y       z     vdW  Elec       q    Type
REMARK                         _______ _______ _______ _____ _____    ______ ____
ROOT
ATOM      1  O   UNL     1      44.649   7.597  11.646  0.00  0.00    +0.000 OA
ATOM      2  C   UNL     1      45.385   6.617  11.598  0.00  0.00    +0.000 C 
ATOM      3  N   UNL     1      46.743   6.702  11.757  0.00  0.00    +0.000 N 
ATOM      4  H   UNL     1      47.324   5.908  11.520  0.00  0.00    +0.000 HD
ENDROOT
BRANCH   2   5
ATOM      5  C   UNL     1      44.846   5.261  11.430  0.00  0.00    +0.000 A 
ATOM      6  C   UNL     1      44.137   4.665  12.466  0.00  0.00    +0.000 A 
ATOM      7  S   UNL     1      43.592   3.091  12.101  0.00  0.00    +0.000 S 
ATOM      8  C   UNL     1      44.252   3.166  10.534  0.00  0.00    +0.000 A 
ATOM      9  N   UNL     1      44.105   2.132   9.663  0.00  0.00    +0.000 NA
ATOM     10  C   UNL     1      44.616   2.343   8.495  0.00  0.00    +0.000 A 
ATOM     11  N   UNL     1      45.276   3.488   8.124  0.00  0.00    +0.000 N 
ATOM     12  C   UNL     1      45.517   4.521   8.996  0.00  0.00    +0.000 A 
ATOM     13  O   UNL     1      46.240   5.464   8.676  0.00  0.00    +0.000 OA
ATOM     14  C   UNL     1      44.910   4.361  10.302  0.00  0.00    +0.000 A 
ATOM     15  H   UNL     1      45.684   3.569   7.207  0.00  0.00    +0.000 HD
ENDBRANCH   2   5
BRANCH   3  16
ATOM     16  C   UNL     1      47.434   7.954  11.941  0.00  0.00    +0.000 C 
BRANCH  16  17
ATOM     17  C   UNL     1      48.190   7.988  13.242  0.00  0.00    +0.000 A 
ATOM     18  C   UNL     1      47.667   8.708  14.317  0.00  0.00    +0.000 A 
ATOM     19  C   UNL     1      48.329   8.729  15.544  0.00  0.00    +0.000 A 
ATOM     20  C   UNL     1      49.541   8.049  15.718  0.00  0.00    +0.000 A 
ATOM     21  C   UNL     1      50.081   7.351  14.638  0.00  0.00    +0.000 A 
ATOM     22  C   UNL     1      49.414   7.324  13.405  0.00  0.00    +0.000 A 
BRANCH  20  23
ATOM     23  O   UNL     1      50.270   8.009  16.887  0.00  0.00    +0.000 OA
BRANCH  23  24
ATOM     24  C   UNL     1      49.634   7.264  17.928  0.00  0.00    +0.000 C 
BRANCH  24  25
ATOM     25  C   UNL     1      50.198   5.844  18.090  0.00  0.00    +0.000 C 
BRANCH  25  26
ATOM     26  N   UNL     1      49.098   4.877  18.238  0.00  0.00    +0.000 NA
ATOM     27  C   UNL     1      47.858   5.307  17.598  0.00  0.00    +0.000 C 
ATOM     28  C   UNL     1      47.801   4.570  16.277  0.00  0.00    +0.000 C 
ATOM     29  O   UNL     1      48.674   3.449  16.389  0.00  0.00    +0.000 OA
ATOM     30  C   UNL     1      49.365   3.577  17.627  0.00  0.00    +0.000 C 
ENDBRANCH  25  26
ENDBRANCH  24  25
ENDBRANCH  23  24
ENDBRANCH  20  23
ENDBRANCH  16  17
ENDBRANCH   3  16
TORSDOF 7
ENDMDL
MODEL 5
REMARK VINA RESULT:    -6.523      3.572      4.502
REMARK INTER + INTRA:         -10.137
REMARK INTER:                  -8.980
REMARK INTRA:                  -1.157
REMARK UNBOUND:                -0.945
REMARK  Name = 
REMARK  7 active torsions:
REMARK  status: ('A' for Active; 'I' for Inactive)
REMARK    1  A    between atoms: C_2  and  C_19
REMARK    2  A    between atoms: N_3  and  C_4
REMARK    3  A    between atoms: C_4  and  C_5
REMARK    4  A    between atoms: C_8  and  O_9
REMARK    5  A    between atoms: O_9  and  C_10
REMARK    6  A    between atoms: C_10  and  C_11
REMARK    7  A    between atoms: C_11  and  N_12
REMARK                            x       y       z     vdW  Elec       q    Type
REMARK                         _______ _______ _______ _____ _____    ______ ____
ROOT
ATOM      1  O   UNL     1      44.735   8.721  11.353  0.00  0.00    +0.000 OA
ATOM      2  C   UNL     1      45.677   8.448  12.089  0.00  0.00    +0.000 C 
ATOM      3  N   UNL     1      45.636   7.423  12.997  0.00  0.00    +0.000 N 
ATOM      4  H   UNL     1      46.352   7.358  13.709  0.00  0.00    +0.000 HD
ENDROOT
BRANCH   2   5
ATOM      5  C   UNL     1      46.953   9.170  12.000  0.00  0.00    +0.000 A 
ATOM      6  C   UNL     1      46.958  10.543  11.787  0.00  0.00    +0.000 A 
ATOM      7  S   UNL     1      48.524  11.214  11.703  0.00  0.00    +0.000 S 
ATOM      8  C   UNL     1      49.248   9.700  11.988  0.00  0.00    +0.000 A 
ATOM      9  N   UNL     1      50.600   9.577  12.077  0.00  0.00    +0.000 NA
ATOM     10  C   UNL     1      51.009   8.380  12.340  0.00  0.00    +0.000 A 
ATOM     11  N   UNL     1      50.190   7.291  12.507  0.00  0.00    +0.000 N 
ATOM     12  C   UNL     1      48.828   7.355  12.345  0.00  0.00    +0.000 A 
ATOM     13  O   UNL     1      48.140   6.335  12.352  0.00  0.00    +0.000 OA
ATOM     14  C   UNL     1      48.311   8.689  12.110  0.00  0.00    +0.000 A 
ATOM     15  H   UNL     1      50.580   6.377  12.673  0.00  0.00    +0.000 HD
ENDBRANCH   2   5
BRANCH   3  16
ATOM     16  C   UNL     1      44.465   6.609  13.206  0.00  0.00    +0.000 C 
BRANCH  16  17
ATOM     17  C   UNL     1      44.461   5.398  12.312  0.00  0.00    +0.000 A 
ATOM     18  C   UNL     1      45.207   4.277  12.679  0.00  0.00    +0.000 A 
ATOM     19  C   UNL     1      45.195   3.129  11.888  0.00  0.00    +0.000 A 
ATOM     20  C   UNL     1      44.455   3.083  10.701  0.00  0.00    +0.000 A 
ATOM     21  C   UNL     1      43.729   4.210  10.317  0.00  0.00    +0.000 A 
ATOM     22  C   UNL     1      43.736   5.364  11.114  0.00  0.00    +0.000 A 
BRANCH  20  23
ATOM     23  O   UNL     1      44.378   1.999   9.853  0.00  0.00    +0.000 OA
BRANCH  23  24
ATOM     24  C   UNL     1      44.854   2.275   8.533  0.00  0.00    +0.000 C 
BRANCH  24  25
ATOM     25  C   UNL     1      46.130   1.496   8.173  0.00  0.00    +0.000 C 
BRANCH  25  26
ATOM     26  N   UNL     1      47.165   2.422   7.688  0.00  0.00    +0.000 NA
ATOM     27  C   UNL     1      47.791   1.992   6.441  0.00  0.00    +0.000 C 
ATOM     28  C   UNL     1      47.120   2.797   5.347  0.00  0.00    +0.000 C 
ATOM     29  O   UNL     1      46.530   3.934   5.972  0.00  0.00    +0.000 OA
ATOM     30  C   UNL     1      46.667   3.760   7.377  0.00  0.00    +0.000 C 
ENDBRANCH  25  26
ENDBRANCH  24  25
ENDBRANCH  23  24
ENDBRANCH  20  23
ENDBRANCH  16  17
ENDBRANCH   3  16
TORSDOF 7
ENDMDL
MODEL 6
REMARK VINA RESULT:    -6.441      3.586      7.687
REMARK INTER + INTRA:         -10.022
REMARK INTER:                  -8.711
REMARK INTRA:                  -1.311
REMARK UNBOUND:                -0.945
REMARK  Name = 
REMARK  7 active torsions:
REMARK  status: ('A' for Active; 'I' for Inactive)
REMARK    1  A    between atoms: C_2  and  C_19
REMARK    2  A    between atoms: N_3  and  C_4
REMARK    3  A    between atoms: C_4  and  C_5
REMARK    4  A    between atoms: C_8  and  O_9
REMARK    5  A    between atoms: O_9  and  C_10
REMARK    6  A    between atoms: C_10  and  C_11
REMARK    7  A    between atoms: C_11  and  N_12
REMARK                            x       y       z     vdW  Elec       q    Type
REMARK                         _______ _______ _______ _____ _____    ______ ____
ROOT
ATOM      1  O   UNL     1      47.779   7.071  11.788  0.00  0.00    +0.000 OA
ATOM      2  C   UNL     1      46.792   7.228  12.500  0.00  0.00    +0.000 C 
ATOM      3  N   UNL     1      46.796   8.037  13.605  0.00  0.00    +0.000 N 
ATOM      4  H   UNL     1      46.030   7.985  14.264  0.00  0.00    +0.000 HD
ENDROOT
BRANCH   2   5
ATOM      5  C   UNL     1      45.505   6.601  12.173  0.00  0.00    +0.000 A 
ATOM      6  C   UNL     1      44.467   7.376  11.667  0.00  0.00    +0.000 A 
ATOM      7  S   UNL     1      43.046   6.487  11.351  0.00  0.00    +0.000 S 
ATOM      8  C   UNL     1      43.780   5.032  11.842  0.00  0.00    +0.000 A 
ATOM      9  N   UNL     1      43.105   3.853  11.783  0.00  0.00    +0.000 NA
ATOM     10  C   UNL     1      43.798   2.823  12.143  0.00  0.00    +0.000 A 
ATOM     11  N   UNL     1      45.101   2.868  12.572  0.00  0.00    +0.000 N 
ATOM     12  C   UNL     1      45.792   4.044  12.724  0.00  0.00    +0.000 A 
ATOM     13  O   UNL     1      46.903   4.062  13.253  0.00  0.00    +0.000 OA
ATOM     14  C   UNL     1      45.081   5.225  12.275  0.00  0.00    +0.000 A 
ATOM     15  H   UNL     1      45.569   2.029  12.875  0.00  0.00    +0.000 HD
ENDBRANCH   2   5
BRANCH   3  16
ATOM     16  C   UNL     1      47.973   8.734  14.062  0.00  0.00    +0.000 C 
BRANCH  16  17
ATOM     17  C   UNL     1      48.540   8.112  15.309  0.00  0.00    +0.000 A 
ATOM     18  C   UNL     1      49.401   7.019  15.196  0.00  0.00    +0.000 A 
ATOM     19  C   UNL     1      49.969   6.445  16.333  0.00  0.00    +0.000 A 
ATOM     20  C   UNL     1      49.672   6.935  17.610  0.00  0.00    +0.000 A 
ATOM     21  C   UNL     1      48.792   8.011  17.729  0.00  0.00    +0.000 A 
ATOM     22  C   UNL     1      48.224   8.593  16.587  0.00  0.00    +0.000 A 
BRANCH  20  23
ATOM     23  O   UNL     1      50.180   6.438  18.791  0.00  0.00    +0.000 OA
BRANCH  23  24
ATOM     24  C   UNL     1      50.098   5.015  18.890  0.00  0.00    +0.000 C 
BRANCH  24  25
ATOM     25  C   UNL     1      48.693   4.512  19.261  0.00  0.00    +0.000 C 
BRANCH  25  26
ATOM     26  N   UNL     1      48.426   3.226  18.597  0.00  0.00    +0.000 NA
ATOM     27  C   UNL     1      47.225   3.240  17.767  0.00  0.00    +0.000 C 
ATOM     28  C   UNL     1      47.711   3.421  16.344  0.00  0.00    +0.000 C 
ATOM     29  O   UNL     1      49.084   3.039  16.323  0.00  0.00    +0.000 OA
ATOM     30  C   UNL     1      49.476   2.807  17.671  0.00  0.00    +0.000 C 
ENDBRANCH  25  26
ENDBRANCH  24  25
ENDBRANCH  23  24
ENDBRANCH  20  23
ENDBRANCH  16  17
ENDBRANCH   3  16
TORSDOF 7
ENDMDL
MODEL 7
REMARK VINA RESULT:    -6.189      4.638      7.484
REMARK INTER + INTRA:          -9.667
REMARK INTER:                  -8.697
REMARK INTRA:                  -0.970
REMARK UNBOUND:                -0.945
REMARK  Name = 
REMARK  7 active torsions:
REMARK  status: ('A' for Active; 'I' for Inactive)
REMARK    1  A    between atoms: C_2  and  C_19
REMARK    2  A    between atoms: N_3  and  C_4
REMARK    3  A    between atoms: C_4  and  C_5
REMARK    4  A    between atoms: C_8  and  O_9
REMARK    5  A    between atoms: O_9  and  C_10
REMARK    6  A    between atoms: C_10  and  C_11
REMARK    7  A    between atoms: C_11  and  N_12
REMARK                            x       y       z     vdW  Elec       q    Type
REMARK                         _______ _______ _______ _____ _____    ______ ____
ROOT
ATOM      1  O   UNL     1      43.942   7.565  11.444  0.00  0.00    +0.000 OA
ATOM      2  C   UNL     1      44.790   6.688  11.579  0.00  0.00    +0.000 C 
ATOM      3  N   UNL     1      46.057   6.945  12.032  0.00  0.00    +0.000 N 
ATOM      4  H   UNL     1      46.772   6.234  11.945  0.00  0.00    +0.000 HD
ENDROOT
BRANCH   2   5
ATOM      5  C   UNL     1      44.479   5.275  11.324  0.00  0.00    +0.000 A 
ATOM      6  C   UNL     1      43.694   4.566  12.225  0.00  0.00    +0.000 A 
ATOM      7  S   UNL     1      43.440   2.940  11.774  0.00  0.00    +0.000 S 
ATOM      8  C   UNL     1      44.338   3.139  10.342  0.00  0.00    +0.000 A 
ATOM      9  N   UNL     1      44.483   2.115   9.459  0.00  0.00    +0.000 NA
ATOM     10  C   UNL     1      45.149   2.419   8.395  0.00  0.00    +0.000 A 
ATOM     11  N   UNL     1      45.698   3.651   8.140  0.00  0.00    +0.000 N 
ATOM     12  C   UNL     1      45.645   4.687   9.039  0.00  0.00    +0.000 A 
ATOM     13  O   UNL     1      46.275   5.727   8.845  0.00  0.00    +0.000 OA
ATOM     14  C   UNL     1      44.855   4.418  10.224  0.00  0.00    +0.000 A 
ATOM     15  H   UNL     1      46.240   3.808   7.305  0.00  0.00    +0.000 HD
ENDBRANCH   2   5
BRANCH   3  16
ATOM     16  C   UNL     1      46.524   8.274  12.339  0.00  0.00    +0.000 C 
BRANCH  16  17
ATOM     17  C   UNL     1      47.960   8.468  11.931  0.00  0.00    +0.000 A 
ATOM     18  C   UNL     1      48.439   9.762  11.717  0.00  0.00    +0.000 A 
ATOM     19  C   UNL     1      49.773   9.974  11.372  0.00  0.00    +0.000 A 
ATOM     20  C   UNL     1      50.653   8.898  11.210  0.00  0.00    +0.000 A 
ATOM     21  C   UNL     1      50.172   7.602  11.396  0.00  0.00    +0.000 A 
ATOM     22  C   UNL     1      48.832   7.386  11.749  0.00  0.00    +0.000 A 
BRANCH  20  23
ATOM     23  O   UNL     1      51.985   9.004  10.871  0.00  0.00    +0.000 OA
BRANCH  23  24
ATOM     24  C   UNL     1      52.622   7.740  10.671  0.00  0.00    +0.000 C 
BRANCH  24  25
ATOM     25  C   UNL     1      53.477   7.686   9.395  0.00  0.00    +0.000 C 
BRANCH  25  26
ATOM     26  N   UNL     1      52.622   7.850   8.208  0.00  0.00    +0.000 NA
ATOM     27  C   UNL     1      53.175   8.769   7.217  0.00  0.00    +0.000 C 
ATOM     28  C   UNL     1      53.804   7.894   6.153  0.00  0.00    +0.000 C 
ATOM     29  O   UNL     1      53.217   6.602   6.279  0.00  0.00    +0.000 OA
ATOM     30  C   UNL     1      52.412   6.618   7.453  0.00  0.00    +0.000 C 
ENDBRANCH  25  26
ENDBRANCH  24  25
ENDBRANCH  23  24
ENDBRANCH  20  23
ENDBRANCH  16  17
ENDBRANCH   3  16
TORSDOF 7
ENDMDL
MODEL 8
REMARK VINA RESULT:    -5.921      1.652      2.257
REMARK INTER + INTRA:          -9.290
REMARK INTER:                  -8.420
REMARK INTRA:                  -0.870
REMARK UNBOUND:                -0.945
REMARK  Name = 
REMARK  7 active torsions:
REMARK  status: ('A' for Active; 'I' for Inactive)
REMARK    1  A    between atoms: C_2  and  C_19
REMARK    2  A    between atoms: N_3  and  C_4
REMARK    3  A    between atoms: C_4  and  C_5
REMARK    4  A    between atoms: C_8  and  O_9
REMARK    5  A    between atoms: O_9  and  C_10
REMARK    6  A    between atoms: C_10  and  C_11
REMARK    7  A    between atoms: C_11  and  N_12
REMARK                            x       y       z     vdW  Elec       q    Type
REMARK                         _______ _______ _______ _____ _____    ______ ____
ROOT
ATOM      1  O   UNL     1      50.716   7.477  15.135  0.00  0.00    +0.000 OA
ATOM      2  C   UNL     1      49.768   7.648  15.895  0.00  0.00    +0.000 C 
ATOM      3  N   UNL     1      48.548   8.102  15.469  0.00  0.00    +0.000 N 
ATOM      4  H   UNL     1      47.864   8.408  16.149  0.00  0.00    +0.000 HD
ENDROOT
BRANCH   2   5
ATOM      5  C   UNL     1      49.860   7.310  17.321  0.00  0.00    +0.000 A 
ATOM      6  C   UNL     1      50.414   8.220  18.214  0.00  0.00    +0.000 A 
ATOM      7  S   UNL     1      50.447   7.660  19.825  0.00  0.00    +0.000 S 
ATOM      8  C   UNL     1      49.688   6.200  19.392  0.00  0.00    +0.000 A 
ATOM      9  N   UNL     1      49.383   5.264  20.331  0.00  0.00    +0.000 NA
ATOM     10  C   UNL     1      48.768   4.226  19.868  0.00  0.00    +0.000 A 
ATOM     11  N   UNL     1      48.445   4.031  18.549  0.00  0.00    +0.000 N 
ATOM     12  C   UNL     1      48.805   4.910  17.558  0.00  0.00    +0.000 A 
ATOM     13  O   UNL     1      48.634   4.633  16.372  0.00  0.00    +0.000 OA
ATOM     14  C   UNL     1      49.443   6.123  18.031  0.00  0.00    +0.000 A 
ATOM     15  H   UNL     1      47.998   3.178  18.251  0.00  0.00    +0.000 HD
ENDBRANCH   2   5
BRANCH   3  16
ATOM     16  C   UNL     1      48.284   8.470  14.100  0.00  0.00    +0.000 C 
BRANCH  16  17
ATOM     17  C   UNL     1      47.214   7.608  13.487  0.00  0.00    +0.000 A 
ATOM     18  C   UNL     1      46.078   8.212  12.945  0.00  0.00    +0.000 A 
ATOM     19  C   UNL     1      45.086   7.441  12.340  0.00  0.00    +0.000 A 
ATOM     20  C   UNL     1      45.196   6.047  12.283  0.00  0.00    +0.000 A 
ATOM     21  C   UNL     1      46.317   5.437  12.846  0.00  0.00    +0.000 A 
ATOM     22  C   UNL     1      47.317   6.211  13.450  0.00  0.00    +0.000 A 
BRANCH  20  23
ATOM     23  O   UNL     1      44.273   5.199  11.708  0.00  0.00    +0.000 OA
BRANCH  23  24
ATOM     24  C   UNL     1      44.652   4.744  10.407  0.00  0.00    +0.000 C 
BRANCH  24  25
ATOM     25  C   UNL     1      44.850   3.222  10.330  0.00  0.00    +0.000 C 
BRANCH  25  26
ATOM     26  N   UNL     1      44.633   2.754   8.952  0.00  0.00    +0.000 NA
ATOM     27  C   UNL     1      45.284   3.589   7.946  0.00  0.00    +0.000 C 
ATOM     28  C   UNL     1      46.558   2.862   7.571  0.00  0.00    +0.000 C 
ATOM     29  O   UNL     1      46.388   1.501   7.959  0.00  0.00    +0.000 OA
ATOM     30  C   UNL     1      45.168   1.421   8.687  0.00  0.00    +0.000 C 
ENDBRANCH  25  26
ENDBRANCH  24  25
ENDBRANCH  23  24
ENDBRANCH  20  23
ENDBRANCH  16  17
ENDBRANCH   3  16
TORSDOF 7
ENDMDL
MODEL 9
REMARK VINA RESULT:    -5.422      3.926      8.032
REMARK INTER + INTRA:          -8.586
REMARK INTER:                  -7.443
REMARK INTRA:                  -1.142
REMARK UNBOUND:                -0.945
REMARK  Name = 
REMARK  7 active torsions:
REMARK  status: ('A' for Active; 'I' for Inactive)
REMARK    1  A    between atoms: C_2  and  C_19
REMARK    2  A    between atoms: N_3  and  C_4
REMARK    3  A    between atoms: C_4  and  C_5
REMARK    4  A    between atoms: C_8  and  O_9
REMARK    5  A    between atoms: O_9  and  C_10
REMARK    6  A    between atoms: C_10  and  C_11
REMARK    7  A    between atoms: C_11  and  N_12
REMARK                            x       y       z     vdW  Elec       q    Type
REMARK                         _______ _______ _______ _____ _____    ______ ____
ROOT
ATOM      1  O   UNL     1      48.950   7.863  13.265  0.00  0.00    +0.000 OA
ATOM      2  C   UNL     1      47.801   7.981  13.681  0.00  0.00    +0.000 C 
ATOM      3  N   UNL     1      47.476   8.782  14.743  0.00  0.00    +0.000 N 
ATOM      4  H   UNL     1      46.562   8.700  15.168  0.00  0.00    +0.000 HD
ENDROOT
BRANCH   2   5
ATOM      5  C   UNL     1      46.674   7.313  13.017  0.00  0.00    +0.000 A 
ATOM      6  C   UNL     1      45.788   8.054  12.245  0.00  0.00    +0.000 A 
ATOM      7  S   UNL     1      44.538   7.120  11.556  0.00  0.00    +0.000 S 
ATOM      8  C   UNL     1      45.160   5.688  12.235  0.00  0.00    +0.000 A 
ATOM      9  N   UNL     1      44.567   4.487  11.999  0.00  0.00    +0.000 NA
ATOM     10  C   UNL     1      45.170   3.480  12.539  0.00  0.00    +0.000 A 
ATOM     11  N   UNL     1      46.303   3.566  13.307  0.00  0.00    +0.000 N 
ATOM     12  C   UNL     1      46.887   4.764  13.637  0.00  0.00    +0.000 A 
ATOM     13  O   UNL     1      47.810   4.817  14.450  0.00  0.00    +0.000 OA
ATOM     14  C   UNL     1      46.285   5.922  13.006  0.00  0.00    +0.000 A 
ATOM     15  H   UNL     1      46.700   2.742  13.730  0.00  0.00    +0.000 HD
ENDBRANCH   2   5
BRANCH   3  16
ATOM     16  C   UNL     1      48.459   9.516  15.501  0.00  0.00    +0.000 C 
BRANCH  16  17
ATOM     17  C   UNL     1      49.021   8.694  16.629  0.00  0.00    +0.000 A 
ATOM     18  C   UNL     1      50.383   8.387  16.635  0.00  0.00    +0.000 A 
ATOM     19  C   UNL     1      50.938   7.656  17.685  0.00  0.00    +0.000 A 
ATOM     20  C   UNL     1      50.142   7.197  18.741  0.00  0.00    +0.000 A 
ATOM     21  C   UNL     1      48.776   7.479  18.724  0.00  0.00    +0.000 A 
ATOM     22  C   UNL     1      48.216   8.218  17.673  0.00  0.00    +0.000 A 
BRANCH  20  23
ATOM     23  O   UNL     1      50.594   6.469  19.821  0.00  0.00    +0.000 OA
BRANCH  23  24
ATOM     24  C   UNL     1      51.553   5.468  19.470  0.00  0.00    +0.000 C 
BRANCH  24  25
ATOM     25  C   UNL     1      50.919   4.103  19.160  0.00  0.00    +0.000 C 
BRANCH  25  26
ATOM     26  N   UNL     1      51.261   3.687  17.791  0.00  0.00    +0.000 NA
ATOM     27  C   UNL     1      52.310   2.673  17.737  0.00  0.00    +0.000 C 
ATOM     28  C   UNL     1      51.594   1.353  17.534  0.00  0.00    +0.000 C 
ATOM     29  O   UNL     1      50.302   1.658  17.017  0.00  0.00    +0.000 OA
ATOM     30  C   UNL     1      50.153   3.073  17.063  0.00  0.00    +0.000 C 
ENDBRANCH  25  26
ENDBRANCH  24  25
ENDBRANCH  23  24
ENDBRANCH  20  23
ENDBRANCH  16  17
ENDBRANCH   3  16
TORSDOF 7
ENDMDL
