MODEL 1
REMARK VINA RESULT:    -7.185      0.000      0.000
REMARK INTER + INTRA:          -9.826
REMARK INTER:                  -9.285
REMARK INTRA:                  -0.541
REMARK UNBOUND:                -0.541
REMARK  Name = 
REMARK  5 active torsions:
REMARK  status: ('A' for Active; 'I' for Inactive)
REMARK    1  A    between atoms: C_2  and  C_3
REMARK    2  A    between atoms: C_6  and  N_7
REMARK    3  A    between atoms: N_7  and  C_8
REMARK    4  A    between atoms: C_8  and  C_9
REMARK    5  A    between atoms: C_9  and  C_10
REMARK                            x       y       z     vdW  Elec       q    Type
REMARK                         _______ _______ _______ _____ _____    ______ ____
ROOT
ATOM      1  N   UNL     1      43.741   3.948  10.325  0.00  0.00    +0.000 N 
ATOM      2  H   UNL     1      43.403   4.898  10.206  0.00  0.00    +0.000 HD
ENDROOT
BRANCH   1   6
ATOM      3  C   UNL     1      46.607   2.535   7.573  0.00  0.00    +0.000 A 
ATOM      4  C   UNL     1      45.951   1.640   8.419  0.00  0.00    +0.000 A 
ATOM      5  C   UNL     1      45.009   2.109   9.345  0.00  0.00    +0.000 A 
ATOM      6  C   UNL     1      44.675   3.464   9.425  0.00  0.00    +0.000 A 
ATOM      7  C   UNL     1      45.363   4.351   8.588  0.00  0.00    +0.000 A 
ATOM      8  C   UNL     1      46.325   3.896   7.669  0.00  0.00    +0.000 A 
BRANCH   3  10
ATOM      9  N   UNL     1      48.325   1.657   5.841  0.00  0.00    +0.000 NA
ATOM     10  C   UNL     1      47.556   2.046   6.612  0.00  0.00    +0.000 C 
ENDBRANCH   3  10
ENDBRANCH   1   6
BRANCH   1  11
ATOM     11  C   UNL     1      43.396   3.230  11.548  0.00  0.00    +0.000 C 
BRANCH  11  12
ATOM     12  C   UNL     1      43.394   4.158  12.765  0.00  0.00    +0.000 C 
BRANCH  12  13
ATOM     13  C   UNL     1      44.656   4.983  12.860  0.00  0.00    +0.000 A 
ATOM     14  C   UNL     1      45.865   4.389  13.249  0.00  0.00    +0.000 A 
ATOM     15  C   UNL     1      47.041   5.140  13.301  0.00  0.00    +0.000 A 
ATOM     16  C   UNL     1      47.021   6.493  12.969  0.00  0.00    +0.000 A 
ATOM     17  C   UNL     1      45.820   7.102  12.609  0.00  0.00    +0.000 A 
ATOM     18  C   UNL     1      44.640   6.354  12.564  0.00  0.00    +0.000 A 
ENDBRANCH  12  13
ENDBRANCH  11  12
ENDBRANCH   1  11
TORSDOF 5
ENDMDL
MODEL 2
REMARK VINA RESULT:    -7.177      0.181      1.659
REMARK INTER + INTRA:          -9.816
REMARK INTER:                  -9.248
REMARK INTRA:                  -0.568
REMARK UNBOUND:                -0.541
REMARK  Name = 
REMARK  5 active torsions:
REMARK  status: ('A' for Active; 'I' for Inactive)
REMARK    1  A    between atoms: C_2  and  C_3
REMARK    2  A    between atoms: C_6  and  N_7
REMARK    3  A    between atoms: N_7  and  C_8
REMARK    4  A    between atoms: C_8  and  C_9
REMARK    5  A    between atoms: C_9  and  C_10
REMARK                            x       y       z     vdW  Elec       q    Type
REMARK                         _______ _______ _______ _____ _____    ______ ____
ROOT
ATOM      1  N   UNL     1      43.584   3.917  10.393  0.00  0.00    +0.000 N 
ATOM      2  H   UNL     1      43.136   4.806  10.197  0.00  0.00    +0.000 HD
ENDROOT
BRANCH   1   6
ATOM      3  C   UNL     1      46.474   2.443   7.698  0.00  0.00    +0.000 A 
ATOM      4  C   UNL     1      46.243   3.816   7.792  0.00  0.00    +0.000 A 
ATOM      5  C   UNL     1      45.273   4.307   8.675  0.00  0.00    +0.000 A 
ATOM      6  C   UNL     1      44.541   3.453   9.506  0.00  0.00    +0.000 A 
ATOM      7  C   UNL     1      44.765   2.077   9.379  0.00  0.00    +0.000 A 
ATOM      8  C   UNL     1      45.722   1.570   8.482  0.00  0.00    +0.000 A 
BRANCH   3  10
ATOM      9  N   UNL     1      48.295   1.550   6.082  0.00  0.00    +0.000 NA
ATOM     10  C   UNL     1      47.484   1.947   6.806  0.00  0.00    +0.000 C 
ENDBRANCH   3  10
ENDBRANCH   1   6
BRANCH   1  11
ATOM     11  C   UNL     1      43.361   3.290  11.692  0.00  0.00    +0.000 C 
BRANCH  11  12
ATOM     12  C   UNL     1      43.366   4.322  12.823  0.00  0.00    +0.000 C 
BRANCH  12  13
ATOM     13  C   UNL     1      44.655   5.109  12.876  0.00  0.00    +0.000 A 
ATOM     14  C   UNL     1      44.684   6.452  12.477  0.00  0.00    +0.000 A 
ATOM     15  C   UNL     1      45.865   7.192  12.562  0.00  0.00    +0.000 A 
ATOM     16  C   UNL     1      47.029   6.597  13.042  0.00  0.00    +0.000 A 
ATOM     17  C   UNL     1      47.020   5.254  13.414  0.00  0.00    +0.000 A 
ATOM     18  C   UNL     1      45.842   4.509  13.322  0.00  0.00    +0.000 A 
ENDBRANCH  12  13
ENDBRANCH  11  12
ENDBRANCH   1  11
TORSDOF 5
ENDMDL
MODEL 3
REMARK VINA RESULT:    -6.933      2.097      5.962
REMARK INTER + INTRA:          -9.500
REMARK INTER:                  -8.952
REMARK INTRA:                  -0.548
REMARK UNBOUND:                -0.541
REMARK  Name = 
REMARK  5 active torsions:
REMARK  status: ('A' for Active; 'I' for Inactive)
REMARK    1  A    between atoms: C_2  and  C_3
REMARK    2  A    between atoms: C_6  and  N_7
REMARK    3  A    between atoms: N_7  and  C_8
REMARK    4  A    between atoms: C_8  and  C_9
REMARK    5  A    between atoms: C_9  and  C_10
REMARK                            x       y       z     vdW  Elec       q    Type
REMARK                         _______ _______ _______ _____ _____    ______ ____
ROOT
ATOM      1  N   UNL     1      43.829   4.372  10.908  0.00  0.00    +0.000 N 
ATOM      2  H   UNL     1      42.944   4.216  11.380  0.00  0.00    +0.000 HD
ENDROOT
BRANCH   1   6
ATOM      3  C   UNL     1      47.084   5.864  13.137  0.00  0.00    +0.000 A 
ATOM      4  C   UNL     1      46.314   4.817  13.643  0.00  0.00    +0.000 A 
ATOM      5  C   UNL     1      45.222   4.329  12.911  0.00  0.00    +0.000 A 
ATOM      6  C   UNL     1      44.897   4.845  11.653  0.00  0.00    +0.000 A 
ATOM      7  C   UNL     1      45.663   5.914  11.174  0.00  0.00    +0.000 A 
ATOM      8  C   UNL     1      46.748   6.426  11.907  0.00  0.00    +0.000 A 
BRANCH   3  10
ATOM      9  N   UNL     1      49.125   6.738  14.477  0.00  0.00    +0.000 NA
ATOM     10  C   UNL     1      48.214   6.346  13.882  0.00  0.00    +0.000 C 
ENDBRANCH   3  10
ENDBRANCH   1   6
BRANCH   1  11
ATOM     11  C   UNL     1      43.990   3.889   9.540  0.00  0.00    +0.000 C 
BRANCH  11  12
ATOM     12  C   UNL     1      44.741   2.556   9.499  0.00  0.00    +0.000 C 
BRANCH  12  13
ATOM     13  C   UNL     1      45.697   2.471   8.331  0.00  0.00    +0.000 A 
ATOM     14  C   UNL     1      46.393   1.284   8.069  0.00  0.00    +0.000 A 
ATOM     15  C   UNL     1      47.248   1.191   6.968  0.00  0.00    +0.000 A 
ATOM     16  C   UNL     1      47.419   2.284   6.122  0.00  0.00    +0.000 A 
ATOM     17  C   UNL     1      46.754   3.479   6.389  0.00  0.00    +0.000 A 
ATOM     18  C   UNL     1      45.905   3.578   7.495  0.00  0.00    +0.000 A 
ENDBRANCH  12  13
ENDBRANCH  11  12
ENDBRANCH   1  11
TORSDOF 5
ENDMDL
MODEL 4
REMARK VINA RESULT:    -6.283      2.470      5.489
REMARK INTER + INTRA:          -8.661
REMARK INTER:                  -7.903
REMARK INTRA:                  -0.758
REMARK UNBOUND:                -0.541
REMARK  Name = 
REMARK  5 active torsions:
REMARK  status: ('A' for Active; 'I' for Inactive)
REMARK    1  A    between atoms: C_2  and  C_3
REMARK    2  A    between atoms: C_6  and  N_7
REMARK    3  A    between atoms: N_7  and  C_8
REMARK    4  A    between atoms: C_8  and  C_9
REMARK    5  A    between atoms: C_9  and  C_10
REMARK                            x       y       z     vdW  Elec       q    Type
REMARK                         _______ _______ _______ _____ _____    ______ ____
ROOT
ATOM      1  N   UNL     1      43.403   5.104  12.809  0.00  0.00    +0.000 N 
ATOM      2  H   UNL     1      42.838   4.988  13.644  0.00  0.00    +0.000 HD
ENDROOT
BRANCH   1   6
ATOM      3  C   UNL     1      47.334   6.574  13.229  0.00  0.00    +0.000 A 
ATOM      4  C   UNL     1      47.015   5.295  13.684  0.00  0.00    +0.000 A 
ATOM      5  C   UNL     1      45.706   4.809  13.559  0.00  0.00    +0.000 A 
ATOM      6  C   UNL     1      44.700   5.567  12.951  0.00  0.00    +0.000 A 
ATOM      7  C   UNL     1      45.031   6.859  12.526  0.00  0.00    +0.000 A 
ATOM      8  C   UNL     1      46.335   7.366  12.664  0.00  0.00    +0.000 A 
BRANCH   3  10
ATOM      9  N   UNL     1      49.765   7.454  13.428  0.00  0.00    +0.000 NA
ATOM     10  C   UNL     1      48.681   7.058  13.340  0.00  0.00    +0.000 C 
ENDBRANCH   3  10
ENDBRANCH   1   6
BRANCH   1  11
ATOM     11  C   UNL     1      42.902   4.575  11.544  0.00  0.00    +0.000 C 
BRANCH  11  12
ATOM     12  C   UNL     1      43.523   3.215  11.217  0.00  0.00    +0.000 C 
BRANCH  12  13
ATOM     13  C   UNL     1      44.455   3.281  10.028  0.00  0.00    +0.000 A 
ATOM     14  C   UNL     1      44.855   2.107   9.375  0.00  0.00    +0.000 A 
ATOM     15  C   UNL     1      45.685   2.168   8.253  0.00  0.00    +0.000 A 
ATOM     16  C   UNL     1      46.126   3.400   7.776  0.00  0.00    +0.000 A 
ATOM     17  C   UNL     1      45.759   4.571   8.435  0.00  0.00    +0.000 A 
ATOM     18  C   UNL     1      44.935   4.514   9.563  0.00  0.00    +0.000 A 
ENDBRANCH  12  13
ENDBRANCH  11  12
ENDBRANCH   1  11
TORSDOF 5
ENDMDL
MODEL 5
REMARK VINA RESULT:    -6.016      2.254      6.172
REMARK INTER + INTRA:          -8.316
REMARK INTER:                  -7.845
REMARK INTRA:                  -0.471
REMARK UNBOUND:                -0.541
REMARK  Name = 
REMARK  5 active torsions:
REMARK  status: ('A' for Active; 'I' for Inactive)
REMARK    1  A    between atoms: C_2  and  C_3
REMARK    2  A    between atoms: C_6  and  N_7
REMARK    3  A    between atoms: N_7  and  C_8
REMARK    4  A    between atoms: C_8  and  C_9
REMARK    5  A    between atoms: C_9  and  C_10
REMARK                            x       y       z     vdW  Elec       q    Type
REMARK                         _______ _______ _______ _____ _____    ______ ____
ROOT
ATOM      1  N   UNL     1      44.349   4.533  12.133  0.00  0.00    +0.000 N 
ATOM      2  H   UNL     1      43.596   4.433  12.805  0.00  0.00    +0.000 HD
ENDROOT
BRANCH   1   6
ATOM      3  C   UNL     1      46.648   8.069  12.159  0.00  0.00    +0.000 A 
ATOM      4  C   UNL     1      45.317   8.104  11.742  0.00  0.00    +0.000 A 
ATOM      5  C   UNL     1      44.555   6.928  11.718  0.00  0.00    +0.000 A 
ATOM      6  C   UNL     1      45.086   5.705  12.139  0.00  0.00    +0.000 A 
ATOM      7  C   UNL     1      46.431   5.682  12.528  0.00  0.00    +0.000 A 
ATOM      8  C   UNL     1      47.211   6.851  12.537  0.00  0.00    +0.000 A 
BRANCH   3  10
ATOM      9  N   UNL     1      48.032  10.260  12.238  0.00  0.00    +0.000 NA
ATOM     10  C   UNL     1      47.417   9.280  12.202  0.00  0.00    +0.000 C 
ENDBRANCH   3  10
ENDBRANCH   1   6
BRANCH   1  11
ATOM     11  C   UNL     1      44.753   3.366  11.354  0.00  0.00    +0.000 C 
BRANCH  11  12
ATOM     12  C   UNL     1      44.155   3.395   9.945  0.00  0.00    +0.000 C 
BRANCH  12  13
ATOM     13  C   UNL     1      45.164   3.022   8.885  0.00  0.00    +0.000 A 
ATOM     14  C   UNL     1      45.667   3.995   8.011  0.00  0.00    +0.000 A 
ATOM     15  C   UNL     1      46.629   3.660   7.054  0.00  0.00    +0.000 A 
ATOM     16  C   UNL     1      47.094   2.351   6.959  0.00  0.00    +0.000 A 
ATOM     17  C   UNL     1      46.579   1.368   7.803  0.00  0.00    +0.000 A 
ATOM     18  C   UNL     1      45.611   1.698   8.755  0.00  0.00    +0.000 A 
ENDBRANCH  12  13
ENDBRANCH  11  12
ENDBRANCH   1  11
TORSDOF 5
ENDMDL
MODEL 6
REMARK VINA RESULT:    -5.847      1.283      2.202
REMARK INTER + INTRA:          -8.097
REMARK INTER:                  -7.514
REMARK INTRA:                  -0.583
REMARK UNBOUND:                -0.541
REMARK  Name = 
REMARK  5 active torsions:
REMARK  status: ('A' for Active; 'I' for Inactive)
REMARK    1  A    between atoms: C_2  and  C_3
REMARK    2  A    between atoms: C_6  and  N_7
REMARK    3  A    between atoms: N_7  and  C_8
REMARK    4  A    between atoms: C_8  and  C_9
REMARK    5  A    between atoms: C_9  and  C_10
REMARK                            x       y       z     vdW  Elec       q    Type
REMARK                         _______ _______ _______ _____ _____    ______ ____
ROOT
ATOM      1  N   UNL     1      43.597   4.210  11.739  0.00  0.00    +0.000 N 
ATOM      2  H   UNL     1      42.818   3.612  11.995  0.00  0.00    +0.000 HD
ENDROOT
BRANCH   1   6
ATOM      3  C   UNL     1      45.630   3.330   8.150  0.00  0.00    +0.000 A 
ATOM      4  C   UNL     1      45.657   4.625   8.668  0.00  0.00    +0.000 A 
ATOM      5  C   UNL     1      44.970   4.924   9.853  0.00  0.00    +0.000 A 
ATOM      6  C   UNL     1      44.275   3.940  10.562  0.00  0.00    +0.000 A 
ATOM      7  C   UNL     1      44.234   2.652  10.013  0.00  0.00    +0.000 A 
ATOM      8  C   UNL     1      44.903   2.345   8.815  0.00  0.00    +0.000 A 
BRANCH   3  10
ATOM      9  N   UNL     1      46.931   2.775   5.977  0.00  0.00    +0.000 NA
ATOM     10  C   UNL     1      46.353   3.025   6.948  0.00  0.00    +0.000 C 
ENDBRANCH   3  10
ENDBRANCH   1   6
BRANCH   1  11
ATOM     11  C   UNL     1      43.819   5.437  12.499  0.00  0.00    +0.000 C 
BRANCH  11  12
ATOM     12  C   UNL     1      45.145   5.394  13.261  0.00  0.00    +0.000 C 
BRANCH  12  13
ATOM     13  C   UNL     1      46.068   6.526  12.873  0.00  0.00    +0.000 A 
ATOM     14  C   UNL     1      47.400   6.268  12.524  0.00  0.00    +0.000 A 
ATOM     15  C   UNL     1      48.244   7.308  12.128  0.00  0.00    +0.000 A 
ATOM     16  C   UNL     1      47.767   8.616  12.082  0.00  0.00    +0.000 A 
ATOM     17  C   UNL     1      46.452   8.889  12.454  0.00  0.00    +0.000 A 
ATOM     18  C   UNL     1      45.608   7.851  12.859  0.00  0.00    +0.000 A 
ENDBRANCH  12  13
ENDBRANCH  11  12
ENDBRANCH   1  11
TORSDOF 5
ENDMDL
MODEL 7
REMARK VINA RESULT:    -5.699      2.676      5.899
REMARK INTER + INTRA:          -7.905
REMARK INTER:                  -7.319
REMARK INTRA:                  -0.586
REMARK UNBOUND:                -0.541
REMARK  Name = 
REMARK  5 active torsions:
REMARK  status: ('A' for Active; 'I' for Inactive)
REMARK    1  A    between atoms: C_2  and  C_3
REMARK    2  A    between atoms: C_6  and  N_7
REMARK    3  A    between atoms: N_7  and  C_8
REMARK    4  A    between atoms: C_8  and  C_9
REMARK    5  A    between atoms: C_9  and  C_10
REMARK                            x       y       z     vdW  Elec       q    Type
REMARK                         _______ _______ _______ _____ _____    ______ ____
ROOT
ATOM      1  N   UNL     1      43.898   6.502  12.158  0.00  0.00    +0.000 N 
ATOM      2  H   UNL     1      43.422   6.394  13.048  0.00  0.00    +0.000 HD
ENDROOT
BRANCH   1   6
ATOM      3  C   UNL     1      47.703   8.320  12.101  0.00  0.00    +0.000 A 
ATOM      4  C   UNL     1      46.555   9.106  12.195  0.00  0.00    +0.000 A 
ATOM      5  C   UNL     1      45.289   8.506  12.199  0.00  0.00    +0.000 A 
ATOM      6  C   UNL     1      45.139   7.117  12.146  0.00  0.00    +0.000 A 
ATOM      7  C   UNL     1      46.300   6.344  12.023  0.00  0.00    +0.000 A 
ATOM      8  C   UNL     1      47.575   6.936  11.998  0.00  0.00    +0.000 A 
BRANCH   3  10
ATOM      9  N   UNL     1      50.045   9.433  12.135  0.00  0.00    +0.000 NA
ATOM     10  C   UNL     1      48.999   8.939  12.118  0.00  0.00    +0.000 C 
ENDBRANCH   3  10
ENDBRANCH   1   6
BRANCH   1  11
ATOM     11  C   UNL     1      43.360   5.816  10.987  0.00  0.00    +0.000 C 
BRANCH  11  12
ATOM     12  C   UNL     1      43.524   4.299  11.098  0.00  0.00    +0.000 C 
BRANCH  12  13
ATOM     13  C   UNL     1      44.405   3.735  10.008  0.00  0.00    +0.000 A 
ATOM     14  C   UNL     1      44.516   2.349   9.831  0.00  0.00    +0.000 A 
ATOM     15  C   UNL     1      45.299   1.826   8.799  0.00  0.00    +0.000 A 
ATOM     16  C   UNL     1      45.982   2.681   7.938  0.00  0.00    +0.000 A 
ATOM     17  C   UNL     1      45.902   4.060   8.122  0.00  0.00    +0.000 A 
ATOM     18  C   UNL     1      45.126   4.586   9.158  0.00  0.00    +0.000 A 
ENDBRANCH  12  13
ENDBRANCH  11  12
ENDBRANCH   1  11
TORSDOF 5
ENDMDL
MODEL 8
REMARK VINA RESULT:    -5.150      2.344      3.817
REMARK INTER + INTRA:          -7.196
REMARK INTER:                  -6.581
REMARK INTRA:                  -0.615
REMARK UNBOUND:                -0.541
REMARK  Name = 
REMARK  5 active torsions:
REMARK  status: ('A' for Active; 'I' for Inactive)
REMARK    1  A    between atoms: C_2  and  C_3
REMARK    2  A    between atoms: C_6  and  N_7
REMARK    3  A    between atoms: N_7  and  C_8
REMARK    4  A    between atoms: C_8  and  C_9
REMARK    5  A    between atoms: C_9  and  C_10
REMARK                            x       y       z     vdW  Elec       q    Type
REMARK                         _______ _______ _______ _____ _____    ______ ____
ROOT
ATOM      1  N   UNL     1      43.870   6.867  11.716  0.00  0.00    +0.000 N 
ATOM      2  H   UNL     1      42.961   6.933  12.163  0.00  0.00    +0.000 HD
ENDROOT
BRANCH   1   6
ATOM      3  C   UNL     1      44.947   3.288   9.762  0.00  0.00    +0.000 A 
ATOM      4  C   UNL     1      43.936   3.281  10.724  0.00  0.00    +0.000 A 
ATOM      5  C   UNL     1      43.586   4.466  11.385  0.00  0.00    +0.000 A 
ATOM      6  C   UNL     1      44.206   5.683  11.081  0.00  0.00    +0.000 A 
ATOM      7  C   UNL     1      45.237   5.666  10.135  0.00  0.00    +0.000 A 
ATOM      8  C   UNL     1      45.611   4.480   9.479  0.00  0.00    +0.000 A 
BRANCH   3  10
ATOM      9  N   UNL     1      45.561   1.101   8.512  0.00  0.00    +0.000 NA
ATOM     10  C   UNL     1      45.287   2.075   9.073  0.00  0.00    +0.000 C 
ENDBRANCH   3  10
ENDBRANCH   1   6
BRANCH   1  11
ATOM     11  C   UNL     1      44.673   8.078  11.575  0.00  0.00    +0.000 C 
BRANCH  11  12
ATOM     12  C   UNL     1      45.628   8.260  12.757  0.00  0.00    +0.000 C 
BRANCH  12  13
ATOM     13  C   UNL     1      47.067   8.395  12.317  0.00  0.00    +0.000 A 
ATOM     14  C   UNL     1      47.606   9.655  12.026  0.00  0.00    +0.000 A 
ATOM     15  C   UNL     1      48.946   9.786  11.656  0.00  0.00    +0.000 A 
ATOM     16  C   UNL     1      49.760   8.659  11.570  0.00  0.00    +0.000 A 
ATOM     17  C   UNL     1      49.229   7.397  11.828  0.00  0.00    +0.000 A 
ATOM     18  C   UNL     1      47.885   7.262  12.190  0.00  0.00    +0.000 A 
ENDBRANCH  12  13
ENDBRANCH  11  12
ENDBRANCH   1  11
TORSDOF 5
ENDMDL
MODEL 9
REMARK VINA RESULT:    -5.045      3.587      5.993
REMARK INTER + INTRA:          -7.060
REMARK INTER:                  -6.427
REMARK INTRA:                  -0.633
REMARK UNBOUND:                -0.541
REMARK  Name = 
REMARK  5 active torsions:
REMARK  status: ('A' for Active; 'I' for Inactive)
REMARK    1  A    between atoms: C_2  and  C_3
REMARK    2  A    between atoms: C_6  and  N_7
REMARK    3  A    between atoms: N_7  and  C_8
REMARK    4  A    between atoms: C_8  and  C_9
REMARK    5  A    between atoms: C_9  and  C_10
REMARK                            x       y       z     vdW  Elec       q    Type
REMARK                         _______ _______ _______ _____ _____    ______ ____
ROOT
ATOM      1  N   UNL     1      47.370   7.107  13.942  0.00  0.00    +0.000 N 
ATOM      2  H   UNL     1      47.153   8.082  13.763  0.00  0.00    +0.000 HD
ENDROOT
BRANCH   1   6
ATOM      3  C   UNL     1      44.705   4.210  12.425  0.00  0.00    +0.000 A 
ATOM      4  C   UNL     1      45.945   3.821  12.932  0.00  0.00    +0.000 A 
ATOM      5  C   UNL     1      46.839   4.783  13.423  0.00  0.00    +0.000 A 
ATOM      6  C   UNL     1      46.506   6.141  13.453  0.00  0.00    +0.000 A 
ATOM      7  C   UNL     1      45.270   6.517  12.914  0.00  0.00    +0.000 A 
ATOM      8  C   UNL     1      44.373   5.564  12.401  0.00  0.00    +0.000 A 
BRANCH   3  10
ATOM      9  N   UNL     1      43.043   2.418  11.561  0.00  0.00    +0.000 NA
ATOM     10  C   UNL     1      43.786   3.219  11.943  0.00  0.00    +0.000 C 
ENDBRANCH   3  10
ENDBRANCH   1   6
BRANCH   1  11
ATOM     11  C   UNL     1      48.674   6.770  14.505  0.00  0.00    +0.000 C 
BRANCH  11  12
ATOM     12  C   UNL     1      48.664   6.845  16.033  0.00  0.00    +0.000 C 
BRANCH  12  13
ATOM     13  C   UNL     1      48.732   5.480  16.677  0.00  0.00    +0.000 A 
ATOM     14  C   UNL     1      47.581   4.687  16.783  0.00  0.00    +0.000 A 
ATOM     15  C   UNL     1      47.649   3.409  17.343  0.00  0.00    +0.000 A 
ATOM     16  C   UNL     1      48.865   2.912  17.804  0.00  0.00    +0.000 A 
ATOM     17  C   UNL     1      50.011   3.702  17.730  0.00  0.00    +0.000 A 
ATOM     18  C   UNL     1      49.944   4.985  17.179  0.00  0.00    +0.000 A 
ENDBRANCH  12  13
ENDBRANCH  11  12
ENDBRANCH   1  11
TORSDOF 5
ENDMDL
