MODEL 1
REMARK VINA RESULT:    -8.198      0.000      0.000
REMARK INTER + INTRA:         -12.442
REMARK INTER:                 -11.553
REMARK INTRA:                  -0.889
REMARK UNBOUND:                -0.889
REMARK  Name = 
REMARK  7 active torsions:
REMARK  status: ('A' for Active; 'I' for Inactive)
REMARK    1  A    between atoms: C_2  and  C_3
REMARK    2  A    between atoms: C_7  and  N_8
REMARK    3  A    between atoms: N_8  and  C_9
REMARK    4  A    between atoms: C_9  and  C_10
REMARK    5  A    between atoms: C_13  and  C_14
REMARK    6  A    between atoms: C_14  and  N_15
REMARK    7  A    between atoms: C_16  and  C_18
REMARK                            x       y       z     vdW  Elec       q    Type
REMARK                         _______ _______ _______ _____ _____    ______ ____
ROOT
ATOM      1  C   UNL     1      45.324   4.266  12.469  0.00  0.00    +0.000 A 
ATOM      2  C   UNL     1      46.405   3.849  13.237  0.00  0.00    +0.000 A 
ATOM      3  N   UNL     1      47.319   4.708  13.749  0.00  0.00    +0.000 NA
ATOM      4  C   UNL     1      47.118   6.023  13.475  0.00  0.00    +0.000 A 
ATOM      5  C   UNL     1      46.036   6.442  12.709  0.00  0.00    +0.000 A 
ATOM      6  N   UNL     1      45.115   5.582  12.206  0.00  0.00    +0.000 NA
ENDROOT
BRANCH   1   7
ATOM      7  C   UNL     1      44.340   3.254  11.925  0.00  0.00    +0.000 C 
BRANCH   7   8
ATOM      8  N   UNL     1      43.887   3.628  10.585  0.00  0.00    +0.000 N 
ATOM      9  H   UNL     1      43.367   4.502  10.569  0.00  0.00    +0.000 HD
BRANCH   8  14
ATOM     10  C   UNL     1      46.099   1.923   8.147  0.00  0.00    +0.000 A 
ATOM     11  C   UNL     1      46.637   3.000   7.443  0.00  0.00    +0.000 A 
ATOM     12  C   UNL     1      46.230   4.292   7.747  0.00  0.00    +0.000 A 
ATOM     13  C   UNL     1      45.289   4.515   8.761  0.00  0.00    +0.000 A 
ATOM     14  C   UNL     1      44.724   3.452   9.478  0.00  0.00    +0.000 A 
ATOM     15  C   UNL     1      45.152   2.155   9.160  0.00  0.00    +0.000 A 
BRANCH  10  17
ATOM     16  N   UNL     1      46.858  -0.499   7.612  0.00  0.00    +0.000 NA
ATOM     17  C   UNL     1      46.517   0.581   7.852  0.00  0.00    +0.000 C 
ENDBRANCH  10  17
ENDBRANCH   8  14
ENDBRANCH   7   8
ENDBRANCH   1   7
BRANCH   4  18
ATOM     18  C   UNL     1      48.123   7.013  13.996  0.00  0.00    +0.000 C 
BRANCH  18  19
ATOM     19  N   UNL     1      48.153   7.055  15.442  0.00  0.00    +0.000 N 
ATOM     20  C   UNL     1      49.297   6.793  16.149  0.00  0.00    +0.000 C 
ATOM     21  O   UNL     1      50.360   6.543  15.586  0.00  0.00    +0.000 OA
ATOM     22  H   UNL     1      47.251   7.017  15.911  0.00  0.00    +0.000 HD
BRANCH  20  23
ATOM     23  C   UNL     1      49.208   6.889  17.609  0.00  0.00    +0.000 A 
ATOM     24  C   UNL     1      49.379   8.121  18.226  0.00  0.00    +0.000 A 
ATOM     25  S   UNL     1      49.209   8.067  19.921  0.00  0.00    +0.000 S 
ATOM     26  C   UNL     1      48.947   6.386  19.896  0.00  0.00    +0.000 A 
ATOM     27  N   UNL     1      48.754   5.691  21.049  0.00  0.00    +0.000 NA
ATOM     28  C   UNL     1      48.604   4.419  20.886  0.00  0.00    +0.000 A 
ATOM     29  N   UNL     1      48.622   3.780  19.674  0.00  0.00    +0.000 N 
ATOM     30  C   UNL     1      48.761   4.448  18.479  0.00  0.00    +0.000 A 
ATOM     31  O   UNL     1      48.687   3.862  17.405  0.00  0.00    +0.000 OA
ATOM     32  C   UNL     1      48.965   5.878  18.610  0.00  0.00    +0.000 A 
ATOM     33  H   UNL     1      48.477   2.783  19.613  0.00  0.00    +0.000 HD
ENDBRANCH  20  23
ENDBRANCH  18  19
ENDBRANCH   4  18
TORSDOF 7
ENDMDL
MODEL 2
REMARK VINA RESULT:    -8.100      1.681      2.390
REMARK INTER + INTRA:         -12.304
REMARK INTER:                 -11.397
REMARK INTRA:                  -0.907
REMARK UNBOUND:                -0.889
REMARK  Name = 
REMARK  7 active torsions:
REMARK  status: ('A' for Active; 'I' for Inactive)
REMARK    1  A    between atoms: C_2  and  C_3
REMARK    2  A    between atoms: C_7  and  N_8
REMARK    3  A    between atoms: N_8  and  C_9
REMARK    4  A    between atoms: C_9  and  C_10
REMARK    5  A    between atoms: C_13  and  C_14
REMARK    6  A    between atoms: C_14  and  N_15
REMARK    7  A    between atoms: C_16  and  C_18
REMARK                            x       y       z     vdW  Elec       q    Type
REMARK                         _______ _______ _______ _____ _____    ______ ____
ROOT
ATOM      1  C   UNL     1      45.257   3.960  12.479  0.00  0.00    +0.000 A 
ATOM      2  C   UNL     1      45.310   5.339  12.308  0.00  0.00    +0.000 A 
ATOM      3  N   UNL     1      46.259   6.116  12.882  0.00  0.00    +0.000 NA
ATOM      4  C   UNL     1      47.179   5.468  13.642  0.00  0.00    +0.000 A 
ATOM      5  C   UNL     1      47.130   4.088  13.812  0.00  0.00    +0.000 A 
ATOM      6  N   UNL     1      46.185   3.309  13.228  0.00  0.00    +0.000 NA
ENDROOT
BRANCH   1   7
ATOM      7  C   UNL     1      44.168   3.150  11.811  0.00  0.00    +0.000 C 
BRANCH   7   8
ATOM      8  N   UNL     1      43.847   3.690  10.489  0.00  0.00    +0.000 N 
ATOM      9  H   UNL     1      43.454   4.628  10.526  0.00  0.00    +0.000 HD
BRANCH   8  14
ATOM     10  C   UNL     1      46.096   1.916   8.136  0.00  0.00    +0.000 A 
ATOM     11  C   UNL     1      46.677   2.975   7.438  0.00  0.00    +0.000 A 
ATOM     12  C   UNL     1      46.287   4.279   7.718  0.00  0.00    +0.000 A 
ATOM     13  C   UNL     1      45.321   4.531   8.701  0.00  0.00    +0.000 A 
ATOM     14  C   UNL     1      44.713   3.486   9.410  0.00  0.00    +0.000 A 
ATOM     15  C   UNL     1      45.124   2.178   9.118  0.00  0.00    +0.000 A 
BRANCH  10  17
ATOM     16  N   UNL     1      46.814  -0.527   7.647  0.00  0.00    +0.000 NA
ATOM     17  C   UNL     1      46.495   0.563   7.867  0.00  0.00    +0.000 C 
ENDBRANCH  10  17
ENDBRANCH   8  14
ENDBRANCH   7   8
ENDBRANCH   1   7
BRANCH   4  18
ATOM     18  C   UNL     1      48.236   6.291  14.326  0.00  0.00    +0.000 C 
BRANCH  18  19
ATOM     19  N   UNL     1      47.970   6.460  15.738  0.00  0.00    +0.000 N 
ATOM     20  C   UNL     1      48.790   5.924  16.696  0.00  0.00    +0.000 C 
ATOM     21  O   UNL     1      49.809   5.303  16.400  0.00  0.00    +0.000 OA
ATOM     22  H   UNL     1      47.028   6.750  15.986  0.00  0.00    +0.000 HD
BRANCH  20  23
ATOM     23  C   UNL     1      48.430   6.183  18.093  0.00  0.00    +0.000 A 
ATOM     24  C   UNL     1      48.466   5.144  19.014  0.00  0.00    +0.000 A 
ATOM     25  S   UNL     1      48.056   5.619  20.598  0.00  0.00    +0.000 S 
ATOM     26  C   UNL     1      47.770   7.221  20.103  0.00  0.00    +0.000 A 
ATOM     27  N   UNL     1      47.353   8.163  20.991  0.00  0.00    +0.000 NA
ATOM     28  C   UNL     1      47.140   9.327  20.472  0.00  0.00    +0.000 A 
ATOM     29  N   UNL     1      47.313   9.634  19.147  0.00  0.00    +0.000 N 
ATOM     30  C   UNL     1      47.782   8.728  18.225  0.00  0.00    +0.000 A 
ATOM     31  O   UNL     1      48.010   9.054  17.066  0.00  0.00    +0.000 OA
ATOM     32  C   UNL     1      48.007   7.396  18.752  0.00  0.00    +0.000 A 
ATOM     33  H   UNL     1      47.149  10.571  18.809  0.00  0.00    +0.000 HD
ENDBRANCH  20  23
ENDBRANCH  18  19
ENDBRANCH   4  18
TORSDOF 7
ENDMDL
MODEL 3
REMARK VINA RESULT:    -7.700      1.677      2.133
REMARK INTER + INTRA:         -11.740
REMARK INTER:                 -10.876
REMARK INTRA:                  -0.864
REMARK UNBOUND:                -0.889
REMARK  Name = 
REMARK  7 active torsions:
REMARK  status: ('A' for Active; 'I' for Inactive)
REMARK    1  A    between atoms: C_2  and  C_3
REMARK    2  A    between atoms: C_7  and  N_8
REMARK    3  A    between atoms: N_8  and  C_9
REMARK    4  A    between atoms: C_9  and  C_10
REMARK    5  A    between atoms: C_13  and  C_14
REMARK    6  A    between atoms: C_14  and  N_15
REMARK    7  A    between atoms: C_16  and  C_18
REMARK                            x       y       z     vdW  Elec       q    Type
REMARK                         _______ _______ _______ _____ _____    ______ ____
ROOT
ATOM      1  C   UNL     1      44.792   5.928  11.121  0.00  0.00    +0.000 A 
ATOM      2  C   UNL     1      45.979   5.395  11.612  0.00  0.00    +0.000 A 
ATOM      3  N   UNL     1      46.839   6.100  12.384  0.00  0.00    +0.000 NA
ATOM      4  C   UNL     1      46.474   7.378  12.666  0.00  0.00    +0.000 A 
ATOM      5  C   UNL     1      45.285   7.912  12.178  0.00  0.00    +0.000 A 
ATOM      6  N   UNL     1      44.420   7.201  11.414  0.00  0.00    +0.000 NA
ENDROOT
BRANCH   1   7
ATOM      7  C   UNL     1      43.876   5.085  10.262  0.00  0.00    +0.000 C 
BRANCH   7   8
ATOM      8  N   UNL     1      44.493   4.789   8.968  0.00  0.00    +0.000 N 
ATOM      9  H   UNL     1      45.033   5.568   8.596  0.00  0.00    +0.000 HD
BRANCH   8  14
ATOM     10  C   UNL     1      46.621   2.201   7.383  0.00  0.00    +0.000 A 
ATOM     11  C   UNL     1      46.118   1.029   7.947  0.00  0.00    +0.000 A 
ATOM     12  C   UNL     1      45.102   1.101   8.890  0.00  0.00    +0.000 A 
ATOM     13  C   UNL     1      44.577   2.344   9.269  0.00  0.00    +0.000 A 
ATOM     14  C   UNL     1      45.070   3.538   8.727  0.00  0.00    +0.000 A 
ATOM     15  C   UNL     1      46.091   3.445   7.771  0.00  0.00    +0.000 A 
BRANCH  10  17
ATOM     16  N   UNL     1      48.508   2.097   5.607  0.00  0.00    +0.000 NA
ATOM     17  C   UNL     1      47.664   2.144   6.397  0.00  0.00    +0.000 C 
ENDBRANCH  10  17
ENDBRANCH   8  14
ENDBRANCH   7   8
ENDBRANCH   1   7
BRANCH   4  18
ATOM     18  C   UNL     1      47.411   8.213  13.495  0.00  0.00    +0.000 C 
BRANCH  18  19
ATOM     19  N   UNL     1      47.684   7.614  14.784  0.00  0.00    +0.000 N 
ATOM     20  C   UNL     1      48.900   7.058  15.079  0.00  0.00    +0.000 C 
ATOM     21  O   UNL     1      49.828   7.072  14.273  0.00  0.00    +0.000 OA
ATOM     22  H   UNL     1      46.872   7.383  15.352  0.00  0.00    +0.000 HD
BRANCH  20  23
ATOM     23  C   UNL     1      49.064   6.503  16.426  0.00  0.00    +0.000 A 
ATOM     24  C   UNL     1      49.720   7.248  17.398  0.00  0.00    +0.000 A 
ATOM     25  S   UNL     1      49.793   6.476  18.916  0.00  0.00    +0.000 S 
ATOM     26  C   UNL     1      48.993   5.100  18.317  0.00  0.00    +0.000 A 
ATOM     27  N   UNL     1      48.755   4.026  19.117  0.00  0.00    +0.000 NA
ATOM     28  C   UNL     1      48.173   3.037  18.522  0.00  0.00    +0.000 A 
ATOM     29  N   UNL     1      47.801   3.029  17.203  0.00  0.00    +0.000 N 
ATOM     30  C   UNL     1      47.975   4.111  16.371  0.00  0.00    +0.000 A 
ATOM     31  O   UNL     1      47.555   4.107  15.220  0.00  0.00    +0.000 OA
ATOM     32  C   UNL     1      48.653   5.237  16.983  0.00  0.00    +0.000 A 
ATOM     33  H   UNL     1      47.330   2.231  16.805  0.00  0.00    +0.000 HD
ENDBRANCH  20  23
ENDBRANCH  18  19
ENDBRANCH   4  18
TORSDOF 7
ENDMDL
MODEL 4
REMARK VINA RESULT:    -7.585      1.626      2.141
REMARK INTER + INTRA:         -11.578
REMARK INTER:                 -10.573
REMARK INTRA:                  -1.005
REMARK UNBOUND:                -0.889
REMARK  Name = 
REMARK  7 active torsions:
REMARK  status: ('A' for Active; 'I' for Inactive)
REMARK    1  A    between atoms: C_2  and  C_3
REMARK    2  A    between atoms: C_7  and  N_8
REMARK    3  A    between atoms: N_8  and  C_9
REMARK    4  A    between atoms: C_9  and  C_10
REMARK    5  A    between atoms: C_13  and  C_14
REMARK    6  A    between atoms: C_14  and  N_15
REMARK    7  A    between atoms: C_16  and  C_18
REMARK                            x       y       z     vdW  Elec       q    Type
REMARK                         _______ _______ _______ _____ _____    ______ ____
ROOT
ATOM      1  C   UNL     1      44.908   5.043  11.784  0.00  0.00    +0.000 A 
ATOM      2  C   UNL     1      44.308   6.269  11.518  0.00  0.00    +0.000 A 
ATOM      3  N   UNL     1      44.840   7.450  11.912  0.00  0.00    +0.000 NA
ATOM      4  C   UNL     1      46.016   7.377  12.588  0.00  0.00    +0.000 A 
ATOM      5  C   UNL     1      46.620   6.152  12.852  0.00  0.00    +0.000 A 
ATOM      6  N   UNL     1      46.091   4.970  12.447  0.00  0.00    +0.000 NA
ENDROOT
BRANCH   1   7
ATOM      7  C   UNL     1      44.259   3.759  11.317  0.00  0.00    +0.000 C 
BRANCH   7   8
ATOM      8  N   UNL     1      43.932   3.824   9.892  0.00  0.00    +0.000 N 
ATOM      9  H   UNL     1      43.368   4.635   9.648  0.00  0.00    +0.000 HD
BRANCH   8  14
ATOM     10  C   UNL     1      46.277   1.761   7.895  0.00  0.00    +0.000 A 
ATOM     11  C   UNL     1      47.011   2.733   7.217  0.00  0.00    +0.000 A 
ATOM     12  C   UNL     1      46.697   4.075   7.387  0.00  0.00    +0.000 A 
ATOM     13  C   UNL     1      45.652   4.452   8.242  0.00  0.00    +0.000 A 
ATOM     14  C   UNL     1      44.892   3.496   8.928  0.00  0.00    +0.000 A 
ATOM     15  C   UNL     1      45.228   2.148   8.749  0.00  0.00    +0.000 A 
BRANCH  10  17
ATOM     16  N   UNL     1      46.855  -0.752   7.618  0.00  0.00    +0.000 NA
ATOM     17  C   UNL     1      46.597   0.369   7.739  0.00  0.00    +0.000 C 
ENDBRANCH  10  17
ENDBRANCH   8  14
ENDBRANCH   7   8
ENDBRANCH   1   7
BRANCH   4  18
ATOM     18  C   UNL     1      46.632   8.660  13.073  0.00  0.00    +0.000 C 
BRANCH  18  19
ATOM     19  N   UNL     1      47.052   8.578  14.455  0.00  0.00    +0.000 N 
ATOM     20  C   UNL     1      48.218   9.151  14.892  0.00  0.00    +0.000 C 
ATOM     21  O   UNL     1      48.945   9.790  14.135  0.00  0.00    +0.000 OA
ATOM     22  H   UNL     1      46.599   7.864  15.021  0.00  0.00    +0.000 HD
BRANCH  20  23
ATOM     23  C   UNL     1      48.524   9.020  16.319  0.00  0.00    +0.000 A 
ATOM     24  C   UNL     1      48.530  10.151  17.124  0.00  0.00    +0.000 A 
ATOM     25  S   UNL     1      48.869   9.823  18.763  0.00  0.00    +0.000 S 
ATOM     26  C   UNL     1      49.066   8.163  18.446  0.00  0.00    +0.000 A 
ATOM     27  N   UNL     1      49.399   7.297  19.440  0.00  0.00    +0.000 NA
ATOM     28  C   UNL     1      49.552   6.074  19.052  0.00  0.00    +0.000 A 
ATOM     29  N   UNL     1      49.394   5.640  17.762  0.00  0.00    +0.000 N 
ATOM     30  C   UNL     1      49.007   6.469  16.736  0.00  0.00    +0.000 A 
ATOM     31  O   UNL     1      48.790   6.037  15.610  0.00  0.00    +0.000 OA
ATOM     32  C   UNL     1      48.853   7.861  17.113  0.00  0.00    +0.000 A 
ATOM     33  H   UNL     1      49.509   4.664  17.529  0.00  0.00    +0.000 HD
ENDBRANCH  20  23
ENDBRANCH  18  19
ENDBRANCH   4  18
TORSDOF 7
ENDMDL
MODEL 5
REMARK VINA RESULT:    -7.501      3.634      5.150
REMARK INTER + INTRA:         -11.460
REMARK INTER:                 -10.825
REMARK INTRA:                  -0.635
REMARK UNBOUND:                -0.889
REMARK  Name = 
REMARK  7 active torsions:
REMARK  status: ('A' for Active; 'I' for Inactive)
REMARK    1  A    between atoms: C_2  and  C_3
REMARK    2  A    between atoms: C_7  and  N_8
REMARK    3  A    between atoms: N_8  and  C_9
REMARK    4  A    between atoms: C_9  and  C_10
REMARK    5  A    between atoms: C_13  and  C_14
REMARK    6  A    between atoms: C_14  and  N_15
REMARK    7  A    between atoms: C_16  and  C_18
REMARK                            x       y       z     vdW  Elec       q    Type
REMARK                         _______ _______ _______ _____ _____    ______ ____
ROOT
ATOM      1  C   UNL     1      47.609   5.613  14.566  0.00  0.00    +0.000 A 
ATOM      2  C   UNL     1      46.967   4.382  14.651  0.00  0.00    +0.000 A 
ATOM      3  N   UNL     1      47.128   3.539  15.699  0.00  0.00    +0.000 NA
ATOM      4  C   UNL     1      47.959   3.967  16.684  0.00  0.00    +0.000 A 
ATOM      5  C   UNL     1      48.600   5.199  16.602  0.00  0.00    +0.000 A 
ATOM      6  N   UNL     1      48.429   6.047  15.557  0.00  0.00    +0.000 NA
ENDROOT
BRANCH   1   7
ATOM      7  C   UNL     1      47.387   6.507  13.366  0.00  0.00    +0.000 C 
BRANCH   7   8
ATOM      8  N   UNL     1      45.965   6.799  13.184  0.00  0.00    +0.000 N 
ATOM      9  H   UNL     1      45.771   7.793  13.079  0.00  0.00    +0.000 HD
BRANCH   8  14
ATOM     10  C   UNL     1      44.864   4.905  10.194  0.00  0.00    +0.000 A 
ATOM     11  C   UNL     1      43.551   4.576  10.527  0.00  0.00    +0.000 A 
ATOM     12  C   UNL     1      43.044   4.944  11.767  0.00  0.00    +0.000 A 
ATOM     13  C   UNL     1      43.844   5.649  12.676  0.00  0.00    +0.000 A 
ATOM     14  C   UNL     1      45.170   5.983  12.371  0.00  0.00    +0.000 A 
ATOM     15  C   UNL     1      45.662   5.609  11.113  0.00  0.00    +0.000 A 
BRANCH  10  17
ATOM     16  N   UNL     1      45.828   4.247   7.877  0.00  0.00    +0.000 NA
ATOM     17  C   UNL     1      45.400   4.542   8.912  0.00  0.00    +0.000 C 
ENDBRANCH  10  17
ENDBRANCH   8  14
ENDBRANCH   7   8
ENDBRANCH   1   7
BRANCH   4  18
ATOM     18  C   UNL     1      48.194   3.053  17.855  0.00  0.00    +0.000 C 
BRANCH  18  19
ATOM     19  N   UNL     1      49.602   2.815  18.090  0.00  0.00    +0.000 N 
ATOM     20  C   UNL     1      50.366   2.083  17.219  0.00  0.00    +0.000 C 
ATOM     21  O   UNL     1      49.897   1.622  16.180  0.00  0.00    +0.000 OA
ATOM     22  H   UNL     1      49.933   2.975  19.038  0.00  0.00    +0.000 HD
BRANCH  20  23
ATOM     23  C   UNL     1      51.785   1.930  17.553  0.00  0.00    +0.000 A 
ATOM     24  C   UNL     1      52.320   0.657  17.702  0.00  0.00    +0.000 A 
ATOM     25  S   UNL     1      53.988   0.653  18.053  0.00  0.00    +0.000 S 
ATOM     26  C   UNL     1      54.046   2.353  18.065  0.00  0.00    +0.000 A 
ATOM     27  N   UNL     1      55.205   3.012  18.334  0.00  0.00    +0.000 NA
ATOM     28  C   UNL     1      55.096   4.299  18.346  0.00  0.00    +0.000 A 
ATOM     29  N   UNL     1      53.935   4.986  18.104  0.00  0.00    +0.000 N 
ATOM     30  C   UNL     1      52.752   4.365  17.776  0.00  0.00    +0.000 A 
ATOM     31  O   UNL     1      51.751   5.007  17.481  0.00  0.00    +0.000 OA
ATOM     32  C   UNL     1      52.814   2.916  17.781  0.00  0.00    +0.000 A 
ATOM     33  H   UNL     1      53.922   5.995  18.108  0.00  0.00    +0.000 HD
ENDBRANCH  20  23
ENDBRANCH  18  19
ENDBRANCH   4  18
TORSDOF 7
ENDMDL
MODEL 6
REMARK VINA RESULT:    -7.303      3.300      8.790
REMARK INTER + INTRA:         -11.181
REMARK INTER:                 -10.107
REMARK INTRA:                  -1.074
REMARK UNBOUND:                -0.889
REMARK  Name = 
REMARK  7 active torsions:
REMARK  status: ('A' for Active; 'I' for Inactive)
REMARK    1  A    between atoms: C_2  and  C_3
REMARK    2  A    between atoms: C_7  and  N_8
REMARK    3  A    between atoms: N_8  and  C_9
REMARK    4  A    between atoms: C_9  and  C_10
REMARK    5  A    between atoms: C_13  and  C_14
REMARK    6  A    between atoms: C_14  and  N_15
REMARK    7  A    between atoms: C_16  and  C_18
REMARK                            x       y       z     vdW  Elec       q    Type
REMARK                         _______ _______ _______ _____ _____    ______ ____
ROOT
ATOM      1  C   UNL     1      49.416   7.559  15.875  0.00  0.00    +0.000 A 
ATOM      2  C   UNL     1      48.484   8.567  15.652  0.00  0.00    +0.000 A 
ATOM      3  N   UNL     1      47.797   8.690  14.492  0.00  0.00    +0.000 NA
ATOM      4  C   UNL     1      48.063   7.758  13.541  0.00  0.00    +0.000 A 
ATOM      5  C   UNL     1      48.992   6.746  13.763  0.00  0.00    +0.000 A 
ATOM      6  N   UNL     1      49.672   6.618  14.930  0.00  0.00    +0.000 NA
ENDROOT
BRANCH   1   7
ATOM      7  C   UNL     1      50.152   7.479  17.195  0.00  0.00    +0.000 C 
BRANCH   7   8
ATOM      8  N   UNL     1      49.348   6.789  18.204  0.00  0.00    +0.000 N 
ATOM      9  H   UNL     1      48.664   7.395  18.653  0.00  0.00    +0.000 HD
BRANCH   8  14
ATOM     10  C   UNL     1      49.427   3.165  17.431  0.00  0.00    +0.000 A 
ATOM     11  C   UNL     1      48.077   2.884  17.227  0.00  0.00    +0.000 A 
ATOM     12  C   UNL     1      47.133   3.889  17.392  0.00  0.00    +0.000 A 
ATOM     13  C   UNL     1      47.534   5.182  17.754  0.00  0.00    +0.000 A 
ATOM     14  C   UNL     1      48.883   5.490  17.975  0.00  0.00    +0.000 A 
ATOM     15  C   UNL     1      49.821   4.464  17.798  0.00  0.00    +0.000 A 
BRANCH  10  17
ATOM     16  N   UNL     1      51.217   1.316  17.109  0.00  0.00    +0.000 NA
ATOM     17  C   UNL     1      50.417   2.139  17.255  0.00  0.00    +0.000 C 
ENDBRANCH  10  17
ENDBRANCH   8  14
ENDBRANCH   7   8
ENDBRANCH   1   7
BRANCH   4  18
ATOM     18  C   UNL     1      47.347   7.870  12.223  0.00  0.00    +0.000 C 
BRANCH  18  19
ATOM     19  N   UNL     1      46.696   6.634  11.847  0.00  0.00    +0.000 N 
ATOM     20  C   UNL     1      45.381   6.390  12.145  0.00  0.00    +0.000 C 
ATOM     21  O   UNL     1      44.684   7.225  12.718  0.00  0.00    +0.000 OA
ATOM     22  H   UNL     1      47.308   5.860  11.601  0.00  0.00    +0.000 HD
BRANCH  20  23
ATOM     23  C   UNL     1      44.826   5.112  11.691  0.00  0.00    +0.000 A 
ATOM     24  C   UNL     1      44.069   4.344  12.566  0.00  0.00    +0.000 A 
ATOM     25  S   UNL     1      43.469   2.908  11.872  0.00  0.00    +0.000 S 
ATOM     26  C   UNL     1      44.239   3.236  10.392  0.00  0.00    +0.000 A 
ATOM     27  N   UNL     1      44.148   2.368   9.349  0.00  0.00    +0.000 NA
ATOM     28  C   UNL     1      44.811   2.725   8.299  0.00  0.00    +0.000 A 
ATOM     29  N   UNL     1      45.549   3.875   8.196  0.00  0.00    +0.000 N 
ATOM     30  C   UNL     1      45.626   4.807   9.205  0.00  0.00    +0.000 A 
ATOM     31  O   UNL     1      46.223   5.866   9.054  0.00  0.00    +0.000 OA
ATOM     32  C   UNL     1      44.924   4.437  10.419  0.00  0.00    +0.000 A 
ATOM     33  H   UNL     1      46.027   4.106   7.338  0.00  0.00    +0.000 HD
ENDBRANCH  20  23
ENDBRANCH  18  19
ENDBRANCH   4  18
TORSDOF 7
ENDMDL
MODEL 7
REMARK VINA RESULT:    -7.276      1.803      2.457
REMARK INTER + INTRA:         -11.143
REMARK INTER:                 -10.204
REMARK INTRA:                  -0.939
REMARK UNBOUND:                -0.889
REMARK  Name = 
REMARK  7 active torsions:
REMARK  status: ('A' for Active; 'I' for Inactive)
REMARK    1  A    between atoms: C_2  and  C_3
REMARK    2  A    between atoms: C_7  and  N_8
REMARK    3  A    between atoms: N_8  and  C_9
REMARK    4  A    between atoms: C_9  and  C_10
REMARK    5  A    between atoms: C_13  and  C_14
REMARK    6  A    between atoms: C_14  and  N_15
REMARK    7  A    between atoms: C_16  and  C_18
REMARK                            x       y       z     vdW  Elec       q    Type
REMARK                         _______ _______ _______ _____ _____    ______ ____
ROOT
ATOM      1  C   UNL     1      44.947   5.606  11.174  0.00  0.00    +0.000 A 
ATOM      2  C   UNL     1      45.665   4.849  12.094  0.00  0.00    +0.000 A 
ATOM      3  N   UNL     1      46.588   5.385  12.927  0.00  0.00    +0.000 NA
ATOM      4  C   UNL     1      46.778   6.726  12.822  0.00  0.00    +0.000 A 
ATOM      5  C   UNL     1      46.059   7.485  11.904  0.00  0.00    +0.000 A 
ATOM      6  N   UNL     1      45.126   6.949  11.077  0.00  0.00    +0.000 NA
ENDROOT
BRANCH   1   7
ATOM      7  C   UNL     1      43.931   4.944  10.270  0.00  0.00    +0.000 C 
BRANCH   7   8
ATOM      8  N   UNL     1      44.474   4.741   8.927  0.00  0.00    +0.000 N 
ATOM      9  H   UNL     1      44.899   5.580   8.537  0.00  0.00    +0.000 HD
BRANCH   8  14
ATOM     10  C   UNL     1      46.650   2.393   7.057  0.00  0.00    +0.000 A 
ATOM     11  C   UNL     1      46.386   1.183   7.698  0.00  0.00    +0.000 A 
ATOM     12  C   UNL     1      45.520   1.154   8.783  0.00  0.00    +0.000 A 
ATOM     13  C   UNL     1      44.907   2.332   9.228  0.00  0.00    +0.000 A 
ATOM     14  C   UNL     1      45.161   3.564   8.609  0.00  0.00    +0.000 A 
ATOM     15  C   UNL     1      46.033   3.572   7.512  0.00  0.00    +0.000 A 
BRANCH  10  17
ATOM     16  N   UNL     1      48.250   2.478   5.018  0.00  0.00    +0.000 NA
ATOM     17  C   UNL     1      47.534   2.439   5.926  0.00  0.00    +0.000 C 
ENDBRANCH  10  17
ENDBRANCH   8  14
ENDBRANCH   7   8
ENDBRANCH   1   7
BRANCH   4  18
ATOM     18  C   UNL     1      47.815   7.363  13.705  0.00  0.00    +0.000 C 
BRANCH  18  19
ATOM     19  N   UNL     1      47.799   6.822  15.047  0.00  0.00    +0.000 N 
ATOM     20  C   UNL     1      48.954   6.488  15.704  0.00  0.00    +0.000 C 
ATOM     21  O   UNL     1      50.059   6.664  15.197  0.00  0.00    +0.000 OA
ATOM     22  H   UNL     1      46.909   6.452  15.372  0.00  0.00    +0.000 HD
BRANCH  20  23
ATOM     23  C   UNL     1      48.811   5.972  17.069  0.00  0.00    +0.000 A 
ATOM     24  C   UNL     1      49.116   4.643  17.333  0.00  0.00    +0.000 A 
ATOM     25  S   UNL     1      48.933   4.212  18.972  0.00  0.00    +0.000 S 
ATOM     26  C   UNL     1      48.393   5.773  19.379  0.00  0.00    +0.000 A 
ATOM     27  N   UNL     1      48.033   6.078  20.655  0.00  0.00    +0.000 NA
ATOM     28  C   UNL     1      47.608   7.288  20.814  0.00  0.00    +0.000 A 
ATOM     29  N   UNL     1      47.518   8.221  19.814  0.00  0.00    +0.000 N 
ATOM     30  C   UNL     1      47.920   7.974  18.522  0.00  0.00    +0.000 A 
ATOM     31  O   UNL     1      47.909   8.853  17.668  0.00  0.00    +0.000 OA
ATOM     32  C   UNL     1      48.376   6.618  18.284  0.00  0.00    +0.000 A 
ATOM     33  H   UNL     1      47.197   9.158  20.010  0.00  0.00    +0.000 HD
ENDBRANCH  20  23
ENDBRANCH  18  19
ENDBRANCH   4  18
TORSDOF 7
ENDMDL
MODEL 8
REMARK VINA RESULT:    -7.150      3.580      8.278
REMARK INTER + INTRA:         -10.965
REMARK INTER:                  -9.729
REMARK INTRA:                  -1.236
REMARK UNBOUND:                -0.889
REMARK  Name = 
REMARK  7 active torsions:
REMARK  status: ('A' for Active; 'I' for Inactive)
REMARK    1  A    between atoms: C_2  and  C_3
REMARK    2  A    between atoms: C_7  and  N_8
REMARK    3  A    between atoms: N_8  and  C_9
REMARK    4  A    between atoms: C_9  and  C_10
REMARK    5  A    between atoms: C_13  and  C_14
REMARK    6  A    between atoms: C_14  and  N_15
REMARK    7  A    between atoms: C_16  and  C_18
REMARK                            x       y       z     vdW  Elec       q    Type
REMARK                         _______ _______ _______ _____ _____    ______ ____
ROOT
ATOM      1  C   UNL     1      49.390   7.509  16.097  0.00  0.00    +0.000 A 
ATOM      2  C   UNL     1      50.116   7.005  15.023  0.00  0.00    +0.000 A 
ATOM      3  N   UNL     1      49.765   7.218  13.733  0.00  0.00    +0.000 NA
ATOM      4  C   UNL     1      48.650   7.968  13.536  0.00  0.00    +0.000 A 
ATOM      5  C   UNL     1      47.924   8.475  14.609  0.00  0.00    +0.000 A 
ATOM      6  N   UNL     1      48.283   8.271  15.901  0.00  0.00    +0.000 NA
ENDROOT
BRANCH   1   7
ATOM      7  C   UNL     1      49.837   7.233  17.516  0.00  0.00    +0.000 C 
BRANCH   7   8
ATOM      8  N   UNL     1      48.834   6.451  18.240  0.00  0.00    +0.000 N 
ATOM      9  H   UNL     1      48.004   6.989  18.479  0.00  0.00    +0.000 HD
BRANCH   8  14
ATOM     10  C   UNL     1      49.439   2.916  17.301  0.00  0.00    +0.000 A 
ATOM     11  C   UNL     1      48.179   2.515  16.860  0.00  0.00    +0.000 A 
ATOM     12  C   UNL     1      47.114   3.406  16.918  0.00  0.00    +0.000 A 
ATOM     13  C   UNL     1      47.306   4.703  17.409  0.00  0.00    +0.000 A 
ATOM     14  C   UNL     1      48.560   5.130  17.868  0.00  0.00    +0.000 A 
ATOM     15  C   UNL     1      49.623   4.219  17.796  0.00  0.00    +0.000 A 
BRANCH  10  17
ATOM     16  N   UNL     1      51.451   1.283  17.183  0.00  0.00    +0.000 NA
ATOM     17  C   UNL     1      50.553   2.011  17.238  0.00  0.00    +0.000 C 
ENDBRANCH  10  17
ENDBRANCH   8  14
ENDBRANCH   7   8
ENDBRANCH   1   7
BRANCH   4  18
ATOM     18  C   UNL     1      48.201   8.206  12.120  0.00  0.00    +0.000 C 
BRANCH  18  19
ATOM     19  N   UNL     1      47.535   7.053  11.555  0.00  0.00    +0.000 N 
ATOM     20  C   UNL     1      46.172   6.994  11.434  0.00  0.00    +0.000 C 
ATOM     21  O   UNL     1      45.453   7.932  11.770  0.00  0.00    +0.000 OA
ATOM     22  H   UNL     1      48.083   6.198  11.504  0.00  0.00    +0.000 HD
BRANCH  20  23
ATOM     23  C   UNL     1      45.614   5.783  10.825  0.00  0.00    +0.000 A 
ATOM     24  C   UNL     1      45.814   5.543   9.471  0.00  0.00    +0.000 A 
ATOM     25  S   UNL     1      45.134   4.077   8.929  0.00  0.00    +0.000 S 
ATOM     26  C   UNL     1      44.507   3.733  10.472  0.00  0.00    +0.000 A 
ATOM     27  N   UNL     1      43.777   2.608  10.695  0.00  0.00    +0.000 NA
ATOM     28  C   UNL     1      43.332   2.491  11.902  0.00  0.00    +0.000 A 
ATOM     29  N   UNL     1      43.560   3.394  12.908  0.00  0.00    +0.000 N 
ATOM     30  C   UNL     1      44.336   4.517  12.743  0.00  0.00    +0.000 A 
ATOM     31  O   UNL     1      44.594   5.261  13.681  0.00  0.00    +0.000 OA
ATOM     32  C   UNL     1      44.833   4.711  11.394  0.00  0.00    +0.000 A 
ATOM     33  H   UNL     1      43.201   3.232  13.837  0.00  0.00    +0.000 HD
ENDBRANCH  20  23
ENDBRANCH  18  19
ENDBRANCH   4  18
TORSDOF 7
ENDMDL
MODEL 9
REMARK VINA RESULT:    -7.129      2.417      3.126
REMARK INTER + INTRA:         -10.935
REMARK INTER:                 -10.239
REMARK INTRA:                  -0.695
REMARK UNBOUND:                -0.889
REMARK  Name = 
REMARK  7 active torsions:
REMARK  status: ('A' for Active; 'I' for Inactive)
REMARK    1  A    between atoms: C_2  and  C_3
REMARK    2  A    between atoms: C_7  and  N_8
REMARK    3  A    between atoms: N_8  and  C_9
REMARK    4  A    between atoms: C_9  and  C_10
REMARK    5  A    between atoms: C_13  and  C_14
REMARK    6  A    between atoms: C_14  and  N_15
REMARK    7  A    between atoms: C_16  and  C_18
REMARK                            x       y       z     vdW  Elec       q    Type
REMARK                         _______ _______ _______ _____ _____    ______ ____
ROOT
ATOM      1  C   UNL     1      45.192   4.224  12.255  0.00  0.00    +0.000 A 
ATOM      2  C   UNL     1      45.277   5.557  11.867  0.00  0.00    +0.000 A 
ATOM      3  N   UNL     1      46.103   6.447  12.465  0.00  0.00    +0.000 NA
ATOM      4  C   UNL     1      46.866   5.962  13.479  0.00  0.00    +0.000 A 
ATOM      5  C   UNL     1      46.785   4.628  13.867  0.00  0.00    +0.000 A 
ATOM      6  N   UNL     1      45.964   3.735  13.259  0.00  0.00    +0.000 NA
ENDROOT
BRANCH   1   7
ATOM      7  C   UNL     1      44.246   3.282  11.545  0.00  0.00    +0.000 C 
BRANCH   7   8
ATOM      8  N   UNL     1      43.973   3.739  10.182  0.00  0.00    +0.000 N 
ATOM      9  H   UNL     1      43.599   4.685  10.145  0.00  0.00    +0.000 HD
BRANCH   8  14
ATOM     10  C   UNL     1      46.211   1.757   7.989  0.00  0.00    +0.000 A 
ATOM     11  C   UNL     1      46.863   2.755   7.266  0.00  0.00    +0.000 A 
ATOM     12  C   UNL     1      46.527   4.087   7.473  0.00  0.00    +0.000 A 
ATOM     13  C   UNL     1      45.542   4.428   8.409  0.00  0.00    +0.000 A 
ATOM     14  C   UNL     1      44.863   3.446   9.143  0.00  0.00    +0.000 A 
ATOM     15  C   UNL     1      45.221   2.109   8.925  0.00  0.00    +0.000 A 
BRANCH  10  17
ATOM     16  N   UNL     1      46.834  -0.736   7.643  0.00  0.00    +0.000 NA
ATOM     17  C   UNL     1      46.555   0.377   7.795  0.00  0.00    +0.000 C 
ENDBRANCH  10  17
ENDBRANCH   8  14
ENDBRANCH   7   8
ENDBRANCH   1   7
BRANCH   4  18
ATOM     18  C   UNL     1      47.778   6.919  14.196  0.00  0.00    +0.000 C 
BRANCH  18  19
ATOM     19  N   UNL     1      48.790   6.235  14.971  0.00  0.00    +0.000 N 
ATOM     20  C   UNL     1      49.386   6.820  16.057  0.00  0.00    +0.000 C 
ATOM     21  O   UNL     1      49.064   7.942  16.443  0.00  0.00    +0.000 OA
ATOM     22  H   UNL     1      49.228   5.431  14.528  0.00  0.00    +0.000 HD
BRANCH  20  23
ATOM     23  C   UNL     1      50.381   6.019  16.777  0.00  0.00    +0.000 A 
ATOM     24  C   UNL     1      49.958   5.069  17.697  0.00  0.00    +0.000 A 
ATOM     25  S   UNL     1      51.235   4.199  18.418  0.00  0.00    +0.000 S 
ATOM     26  C   UNL     1      52.401   5.094  17.561  0.00  0.00    +0.000 A 
ATOM     27  N   UNL     1      53.729   4.864  17.740  0.00  0.00    +0.000 NA
ATOM     28  C   UNL     1      54.502   5.640  17.054  0.00  0.00    +0.000 A 
ATOM     29  N   UNL     1      54.065   6.619  16.200  0.00  0.00    +0.000 N 
ATOM     30  C   UNL     1      52.733   6.851  15.948  0.00  0.00    +0.000 A 
ATOM     31  O   UNL     1      52.373   7.674  15.114  0.00  0.00    +0.000 OA
ATOM     32  C   UNL     1      51.823   6.027  16.719  0.00  0.00    +0.000 A 
ATOM     33  H   UNL     1      54.722   7.178  15.676  0.00  0.00    +0.000 HD
ENDBRANCH  20  23
ENDBRANCH  18  19
ENDBRANCH   4  18
TORSDOF 7
ENDMDL
