MODEL 1
REMARK VINA RESULT:    -8.326      0.000      0.000
REMARK INTER + INTRA:         -13.501
REMARK INTER:                 -12.221
REMARK INTRA:                  -1.281
REMARK UNBOUND:                -1.281
REMARK  Name = 
REMARK  9 active torsions:
REMARK  status: ('A' for Active; 'I' for Inactive)
REMARK    1  A    between atoms: C_1  and  O_2
REMARK    2  A    between atoms: O_2  and  C_3
REMARK    3  A    between atoms: C_10  and  C_11
REMARK    4  A    between atoms: N_13  and  C_14
REMARK    5  A    between atoms: C_14  and  C_15
REMARK    6  A    between atoms: C_18  and  O_19
REMARK    7  A    between atoms: O_19  and  C_20
REMARK    8  A    between atoms: C_20  and  C_21
REMARK    9  A    between atoms: C_21  and  C_24
REMARK                            x       y       z     vdW  Elec       q    Type
REMARK                         _______ _______ _______ _____ _____    ______ ____
ROOT
ATOM      1  C   UNL     1      46.434   7.402  12.422  0.00  0.00    +0.000 A 
ATOM      2  C   UNL     1      46.834   6.772  11.236  0.00  0.00    +0.000 A 
ATOM      3  C   UNL     1      45.988   5.869  10.582  0.00  0.00    +0.000 A 
ATOM      4  C   UNL     1      44.723   5.588  11.098  0.00  0.00    +0.000 A 
ATOM      5  C   UNL     1      44.308   6.239  12.263  0.00  0.00    +0.000 A 
ATOM      6  C   UNL     1      45.152   7.143  12.919  0.00  0.00    +0.000 A 
ENDROOT
BRANCH   1   7
ATOM      7  C   UNL     1      47.368   8.356  13.122  0.00  0.00    +0.000 C 
BRANCH   7  10
ATOM      8  C   UNL     1      48.766   7.165  14.766  0.00  0.00    +0.000 C 
ATOM      9  O   UNL     1      49.610   6.894  13.913  0.00  0.00    +0.000 OA
ATOM     10  N   UNL     1      47.656   7.903  14.461  0.00  0.00    +0.000 N 
ATOM     11  H   UNL     1      46.910   7.980  15.139  0.00  0.00    +0.000 HD
BRANCH   8  19
ATOM     12  C   UNL     1      48.118   4.205  16.403  0.00  0.00    +0.000 A 
ATOM     13  N   UNL     1      47.919   3.205  17.285  0.00  0.00    +0.000 NA
ATOM     14  C   UNL     1      48.211   3.432  18.569  0.00  0.00    +0.000 A 
ATOM     15  N   UNL     1      48.697   4.555  19.094  0.00  0.00    +0.000 NA
ATOM     16  C   UNL     1      48.881   5.523  18.182  0.00  0.00    +0.000 A 
ATOM     17  S   UNL     1      49.509   7.022  18.673  0.00  0.00    +0.000 S 
ATOM     18  C   UNL     1      49.428   7.630  17.089  0.00  0.00    +0.000 A 
ATOM     19  C   UNL     1      48.924   6.723  16.162  0.00  0.00    +0.000 A 
ATOM     20  C   UNL     1      48.618   5.453  16.818  0.00  0.00    +0.000 A 
BRANCH  12  22
ATOM     21  C   UNL     1      46.578   4.310  14.643  0.00  0.00    +0.000 C 
ATOM     22  O   UNL     1      47.890   3.946  15.068  0.00  0.00    +0.000 OA
ENDBRANCH  12  22
ENDBRANCH   8  19
ENDBRANCH   7  10
ENDBRANCH   1   7
BRANCH   4  23
ATOM     23  O   UNL     1      43.814   4.716  10.565  0.00  0.00    +0.000 OA
BRANCH  23  24
ATOM     24  C   UNL     1      44.148   4.125   9.299  0.00  0.00    +0.000 C 
BRANCH  24  25
ATOM     25  C   UNL     1      44.808   2.751   9.480  0.00  0.00    +0.000 C 
ATOM     26  F   UNL     1      45.425   2.731  10.706  0.00  0.00    +0.000 F 
ATOM     27  F   UNL     1      43.802   1.825   9.596  0.00  0.00    +0.000 F 
BRANCH  25  28
ATOM     28  C   UNL     1      45.749   2.418   8.333  0.00  0.00    +0.000 A 
ATOM     29  C   UNL     1      46.121   3.410   7.426  0.00  0.00    +0.000 A 
ATOM     30  C   UNL     1      46.984   3.086   6.382  0.00  0.00    +0.000 A 
ATOM     31  C   UNL     1      47.461   1.786   6.270  0.00  0.00    +0.000 A 
ATOM     32  C   UNL     1      47.057   0.858   7.213  0.00  0.00    +0.000 A 
ATOM     33  N   UNL     1      46.222   1.142   8.236  0.00  0.00    +0.000 NA
ENDBRANCH  25  28
ENDBRANCH  24  25
ENDBRANCH  23  24
ENDBRANCH   4  23
TORSDOF 8
ENDMDL
MODEL 2
REMARK VINA RESULT:    -7.958      1.998      2.876
REMARK INTER + INTRA:         -12.960
REMARK INTER:                 -11.741
REMARK INTRA:                  -1.219
REMARK UNBOUND:                -1.281
REMARK  Name = 
REMARK  9 active torsions:
REMARK  status: ('A' for Active; 'I' for Inactive)
REMARK    1  A    between atoms: C_1  and  O_2
REMARK    2  A    between atoms: O_2  and  C_3
REMARK    3  A    between atoms: C_10  and  C_11
REMARK    4  A    between atoms: N_13  and  C_14
REMARK    5  A    between atoms: C_14  and  C_15
REMARK    6  A    between atoms: C_18  and  O_19
REMARK    7  A    between atoms: O_19  and  C_20
REMARK    8  A    between atoms: C_20  and  C_21
REMARK    9  A    between atoms: C_21  and  C_24
REMARK                            x       y       z     vdW  Elec       q    Type
REMARK                         _______ _______ _______ _____ _____    ______ ____
ROOT
ATOM      1  C   UNL     1      47.318   6.378  13.061  0.00  0.00    +0.000 A 
ATOM      2  C   UNL     1      47.033   6.824  11.764  0.00  0.00    +0.000 A 
ATOM      3  C   UNL     1      45.973   6.274  11.033  0.00  0.00    +0.000 A 
ATOM      4  C   UNL     1      45.174   5.277  11.592  0.00  0.00    +0.000 A 
ATOM      5  C   UNL     1      45.436   4.853  12.898  0.00  0.00    +0.000 A 
ATOM      6  C   UNL     1      46.495   5.401  13.631  0.00  0.00    +0.000 A 
ENDROOT
BRANCH   1   7
ATOM      7  C   UNL     1      48.477   6.968  13.824  0.00  0.00    +0.000 C 
BRANCH   7  10
ATOM      8  C   UNL     1      49.072   6.556  16.179  0.00  0.00    +0.000 C 
ATOM      9  O   UNL     1      50.183   6.131  15.867  0.00  0.00    +0.000 OA
ATOM     10  N   UNL     1      48.193   7.012  15.237  0.00  0.00    +0.000 N 
ATOM     11  H   UNL     1      47.239   7.212  15.505  0.00  0.00    +0.000 HD
BRANCH   8  19
ATOM     12  C   UNL     1      47.777   9.053  18.168  0.00  0.00    +0.000 A 
ATOM     13  N   UNL     1      47.315   9.837  19.162  0.00  0.00    +0.000 NA
ATOM     14  C   UNL     1      47.186   9.298  20.379  0.00  0.00    +0.000 A 
ATOM     15  N   UNL     1      47.457   8.045  20.733  0.00  0.00    +0.000 NA
ATOM     16  C   UNL     1      47.912   7.298  19.713  0.00  0.00    +0.000 A 
ATOM     17  S   UNL     1      48.296   5.666  19.980  0.00  0.00    +0.000 S 
ATOM     18  C   UNL     1      48.764   5.461  18.360  0.00  0.00    +0.000 A 
ATOM     19  C   UNL     1      48.646   6.612  17.589  0.00  0.00    +0.000 A 
ATOM     20  C   UNL     1      48.114   7.707  18.398  0.00  0.00    +0.000 A 
BRANCH  12  22
ATOM     21  C   UNL     1      49.049  10.293  16.644  0.00  0.00    +0.000 C 
ATOM     22  O   UNL     1      47.837   9.587  16.897  0.00  0.00    +0.000 OA
ENDBRANCH  12  22
ENDBRANCH   8  19
ENDBRANCH   7  10
ENDBRANCH   1   7
BRANCH   4  23
ATOM     23  O   UNL     1      44.125   4.650  10.977  0.00  0.00    +0.000 OA
BRANCH  23  24
ATOM     24  C   UNL     1      44.341   4.192   9.633  0.00  0.00    +0.000 C 
BRANCH  24  25
ATOM     25  C   UNL     1      44.866   2.750   9.611  0.00  0.00    +0.000 C 
ATOM     26  F   UNL     1      45.501   2.508  10.803  0.00  0.00    +0.000 F 
ATOM     27  F   UNL     1      43.777   1.916   9.635  0.00  0.00    +0.000 F 
BRANCH  25  28
ATOM     28  C   UNL     1      45.749   2.487   8.401  0.00  0.00    +0.000 A 
ATOM     29  C   UNL     1      45.937   3.484   7.444  0.00  0.00    +0.000 A 
ATOM     30  C   UNL     1      46.749   3.223   6.343  0.00  0.00    +0.000 A 
ATOM     31  C   UNL     1      47.359   1.981   6.224  0.00  0.00    +0.000 A 
ATOM     32  C   UNL     1      47.135   1.045   7.218  0.00  0.00    +0.000 A 
ATOM     33  N   UNL     1      46.353   1.268   8.297  0.00  0.00    +0.000 NA
ENDBRANCH  25  28
ENDBRANCH  24  25
ENDBRANCH  23  24
ENDBRANCH   4  23
TORSDOF 8
ENDMDL
MODEL 3
REMARK VINA RESULT:    -7.332      2.035      2.463
REMARK INTER + INTRA:         -12.042
REMARK INTER:                 -10.684
REMARK INTRA:                  -1.358
REMARK UNBOUND:                -1.281
REMARK  Name = 
REMARK  9 active torsions:
REMARK  status: ('A' for Active; 'I' for Inactive)
REMARK    1  A    between atoms: C_1  and  O_2
REMARK    2  A    between atoms: O_2  and  C_3
REMARK    3  A    between atoms: C_10  and  C_11
REMARK    4  A    between atoms: N_13  and  C_14
REMARK    5  A    between atoms: C_14  and  C_15
REMARK    6  A    between atoms: C_18  and  O_19
REMARK    7  A    between atoms: O_19  and  C_20
REMARK    8  A    between atoms: C_20  and  C_21
REMARK    9  A    between atoms: C_21  and  C_24
REMARK                            x       y       z     vdW  Elec       q    Type
REMARK                         _______ _______ _______ _____ _____    ______ ____
ROOT
ATOM      1  C   UNL     1      47.505   7.029  12.693  0.00  0.00    +0.000 A 
ATOM      2  C   UNL     1      46.363   7.658  12.183  0.00  0.00    +0.000 A 
ATOM      3  C   UNL     1      45.108   7.042  12.262  0.00  0.00    +0.000 A 
ATOM      4  C   UNL     1      44.974   5.791  12.862  0.00  0.00    +0.000 A 
ATOM      5  C   UNL     1      46.107   5.174  13.401  0.00  0.00    +0.000 A 
ATOM      6  C   UNL     1      47.362   5.787  13.323  0.00  0.00    +0.000 A 
ENDROOT
BRANCH   1   7
ATOM      7  C   UNL     1      48.851   7.699  12.579  0.00  0.00    +0.000 C 
BRANCH   7  10
ATOM      8  C   UNL     1      49.913   7.706  14.803  0.00  0.00    +0.000 C 
ATOM      9  O   UNL     1      49.213   8.645  15.179  0.00  0.00    +0.000 OA
ATOM     10  N   UNL     1      49.773   7.170  13.553  0.00  0.00    +0.000 N 
ATOM     11  H   UNL     1      50.459   6.506  13.219  0.00  0.00    +0.000 HD
BRANCH   8  19
ATOM     12  C   UNL     1      49.786   5.253  17.217  0.00  0.00    +0.000 A 
ATOM     13  N   UNL     1      50.010   4.381  18.220  0.00  0.00    +0.000 NA
ATOM     14  C   UNL     1      51.243   4.315  18.731  0.00  0.00    +0.000 A 
ATOM     15  N   UNL     1      52.307   5.018  18.351  0.00  0.00    +0.000 NA
ATOM     16  C   UNL     1      52.041   5.871  17.349  0.00  0.00    +0.000 A 
ATOM     17  S   UNL     1      53.288   6.841  16.726  0.00  0.00    +0.000 S 
ATOM     18  C   UNL     1      52.230   7.570  15.614  0.00  0.00    +0.000 A 
ATOM     19  C   UNL     1      50.922   7.104  15.691  0.00  0.00    +0.000 A 
ATOM     20  C   UNL     1      50.817   6.070  16.718  0.00  0.00    +0.000 A 
BRANCH  12  22
ATOM     21  C   UNL     1      47.929   3.976  16.584  0.00  0.00    +0.000 C 
ATOM     22  O   UNL     1      48.534   5.266  16.638  0.00  0.00    +0.000 OA
ENDBRANCH  12  22
ENDBRANCH   8  19
ENDBRANCH   7  10
ENDBRANCH   1   7
BRANCH   4  23
ATOM     23  O   UNL     1      43.812   5.079  12.986  0.00  0.00    +0.000 OA
BRANCH  23  24
ATOM     24  C   UNL     1      43.245   4.550  11.777  0.00  0.00    +0.000 C 
BRANCH  24  25
ATOM     25  C   UNL     1      43.844   3.180  11.431  0.00  0.00    +0.000 C 
ATOM     26  F   UNL     1      44.607   2.767  12.494  0.00  0.00    +0.000 F 
ATOM     27  F   UNL     1      42.810   2.279  11.389  0.00  0.00    +0.000 F 
BRANCH  25  28
ATOM     28  C   UNL     1      44.614   3.213  10.120  0.00  0.00    +0.000 A 
ATOM     29  C   UNL     1      44.957   4.436   9.542  0.00  0.00    +0.000 A 
ATOM     30  C   UNL     1      45.662   4.445   8.342  0.00  0.00    +0.000 A 
ATOM     31  C   UNL     1      46.015   3.240   7.748  0.00  0.00    +0.000 A 
ATOM     32  C   UNL     1      45.650   2.067   8.385  0.00  0.00    +0.000 A 
ATOM     33  N   UNL     1      44.966   2.025   9.549  0.00  0.00    +0.000 NA
ENDBRANCH  25  28
ENDBRANCH  24  25
ENDBRANCH  23  24
ENDBRANCH   4  23
TORSDOF 8
ENDMDL
MODEL 4
REMARK VINA RESULT:    -7.034      1.518      1.980
REMARK INTER + INTRA:         -11.605
REMARK INTER:                 -10.445
REMARK INTRA:                  -1.160
REMARK UNBOUND:                -1.281
REMARK  Name = 
REMARK  9 active torsions:
REMARK  status: ('A' for Active; 'I' for Inactive)
REMARK    1  A    between atoms: C_1  and  O_2
REMARK    2  A    between atoms: O_2  and  C_3
REMARK    3  A    between atoms: C_10  and  C_11
REMARK    4  A    between atoms: N_13  and  C_14
REMARK    5  A    between atoms: C_14  and  C_15
REMARK    6  A    between atoms: C_18  and  O_19
REMARK    7  A    between atoms: O_19  and  C_20
REMARK    8  A    between atoms: C_20  and  C_21
REMARK    9  A    between atoms: C_21  and  C_24
REMARK                            x       y       z     vdW  Elec       q    Type
REMARK                         _______ _______ _______ _____ _____    ______ ____
ROOT
ATOM      1  C   UNL     1      47.854   6.820  13.207  0.00  0.00    +0.000 A 
ATOM      2  C   UNL     1      47.639   5.625  13.904  0.00  0.00    +0.000 A 
ATOM      3  C   UNL     1      46.652   4.721  13.493  0.00  0.00    +0.000 A 
ATOM      4  C   UNL     1      45.870   4.995  12.371  0.00  0.00    +0.000 A 
ATOM      5  C   UNL     1      46.103   6.172  11.654  0.00  0.00    +0.000 A 
ATOM      6  C   UNL     1      47.089   7.077  12.063  0.00  0.00    +0.000 A 
ENDROOT
BRANCH   1   7
ATOM      7  C   UNL     1      48.908   7.790  13.678  0.00  0.00    +0.000 C 
BRANCH   7  10
ATOM      8  C   UNL     1      48.979   8.052  16.127  0.00  0.00    +0.000 C 
ATOM      9  O   UNL     1      48.122   8.932  16.099  0.00  0.00    +0.000 OA
ATOM     10  N   UNL     1      49.394   7.425  14.986  0.00  0.00    +0.000 N 
ATOM     11  H   UNL     1      50.203   6.818  15.019  0.00  0.00    +0.000 HD
BRANCH   8  19
ATOM     12  C   UNL     1      48.404   5.397  18.246  0.00  0.00    +0.000 A 
ATOM     13  N   UNL     1      48.361   4.503  19.254  0.00  0.00    +0.000 NA
ATOM     14  C   UNL     1      49.190   4.681  20.287  0.00  0.00    +0.000 A 
ATOM     15  N   UNL     1      50.084   5.655  20.439  0.00  0.00    +0.000 NA
ATOM     16  C   UNL     1      50.096   6.521  19.412  0.00  0.00    +0.000 A 
ATOM     17  S   UNL     1      51.187   7.822  19.431  0.00  0.00    +0.000 S 
ATOM     18  C   UNL     1      50.609   8.390  17.938  0.00  0.00    +0.000 A 
ATOM     19  C   UNL     1      49.585   7.619  17.398  0.00  0.00    +0.000 A 
ATOM     20  C   UNL     1      49.295   6.486  18.275  0.00  0.00    +0.000 A 
BRANCH  12  22
ATOM     21  C   UNL     1      47.067   3.851  17.105  0.00  0.00    +0.000 C 
ATOM     22  O   UNL     1      47.604   5.171  17.145  0.00  0.00    +0.000 OA
ENDBRANCH  12  22
ENDBRANCH   8  19
ENDBRANCH   7  10
ENDBRANCH   1   7
BRANCH   4  23
ATOM     23  O   UNL     1      44.865   4.205  11.880  0.00  0.00    +0.000 OA
BRANCH  23  24
ATOM     24  C   UNL     1      45.262   3.036  11.146  0.00  0.00    +0.000 C 
BRANCH  24  25
ATOM     25  C   UNL     1      44.511   2.932   9.811  0.00  0.00    +0.000 C 
ATOM     26  F   UNL     1      43.548   1.962   9.937  0.00  0.00    +0.000 F 
ATOM     27  F   UNL     1      43.799   4.094   9.650  0.00  0.00    +0.000 F 
BRANCH  25  28
ATOM     28  C   UNL     1      45.457   2.686   8.646  0.00  0.00    +0.000 A 
ATOM     29  C   UNL     1      45.757   3.721   7.760  0.00  0.00    +0.000 A 
ATOM     30  C   UNL     1      46.626   3.476   6.700  0.00  0.00    +0.000 A 
ATOM     31  C   UNL     1      47.180   2.211   6.550  0.00  0.00    +0.000 A 
ATOM     32  C   UNL     1      46.845   1.237   7.474  0.00  0.00    +0.000 A 
ATOM     33  N   UNL     1      46.005   1.445   8.512  0.00  0.00    +0.000 NA
ENDBRANCH  25  28
ENDBRANCH  24  25
ENDBRANCH  23  24
ENDBRANCH   4  23
TORSDOF 8
ENDMDL
MODEL 5
REMARK VINA RESULT:    -6.935      3.725      5.775
REMARK INTER + INTRA:         -11.459
REMARK INTER:                 -10.077
REMARK INTRA:                  -1.381
REMARK UNBOUND:                -1.281
REMARK  Name = 
REMARK  9 active torsions:
REMARK  status: ('A' for Active; 'I' for Inactive)
REMARK    1  A    between atoms: C_1  and  O_2
REMARK    2  A    between atoms: O_2  and  C_3
REMARK    3  A    between atoms: C_10  and  C_11
REMARK    4  A    between atoms: N_13  and  C_14
REMARK    5  A    between atoms: C_14  and  C_15
REMARK    6  A    between atoms: C_18  and  O_19
REMARK    7  A    between atoms: O_19  and  C_20
REMARK    8  A    between atoms: C_20  and  C_21
REMARK    9  A    between atoms: C_21  and  C_24
REMARK                            x       y       z     vdW  Elec       q    Type
REMARK                         _______ _______ _______ _____ _____    ______ ____
ROOT
ATOM      1  C   UNL     1      48.021   4.328  16.629  0.00  0.00    +0.000 A 
ATOM      2  C   UNL     1      48.647   5.577  16.527  0.00  0.00    +0.000 A 
ATOM      3  C   UNL     1      48.486   6.371  15.386  0.00  0.00    +0.000 A 
ATOM      4  C   UNL     1      47.687   5.932  14.330  0.00  0.00    +0.000 A 
ATOM      5  C   UNL     1      47.035   4.701  14.441  0.00  0.00    +0.000 A 
ATOM      6  C   UNL     1      47.195   3.905  15.581  0.00  0.00    +0.000 A 
ENDROOT
BRANCH   1   7
ATOM      7  C   UNL     1      48.224   3.480  17.858  0.00  0.00    +0.000 C 
BRANCH   7  10
ATOM      8  C   UNL     1      50.308   2.308  17.259  0.00  0.00    +0.000 C 
ATOM      9  O   UNL     1      49.772   1.763  16.296  0.00  0.00    +0.000 OA
ATOM     10  N   UNL     1      49.622   3.184  18.053  0.00  0.00    +0.000 N 
ATOM     11  H   UNL     1      50.038   3.497  18.920  0.00  0.00    +0.000 HD
BRANCH   8  19
ATOM     12  C   UNL     1      53.008   4.361  17.856  0.00  0.00    +0.000 A 
ATOM     13  N   UNL     1      54.217   4.914  18.079  0.00  0.00    +0.000 NA
ATOM     14  C   UNL     1      55.257   4.096  18.264  0.00  0.00    +0.000 A 
ATOM     15  N   UNL     1      55.241   2.766  18.264  0.00  0.00    +0.000 NA
ATOM     16  C   UNL     1      54.018   2.256  18.041  0.00  0.00    +0.000 A 
ATOM     17  S   UNL     1      53.807   0.572  18.021  0.00  0.00    +0.000 S 
ATOM     18  C   UNL     1      52.148   0.735  17.694  0.00  0.00    +0.000 A 
ATOM     19  C   UNL     1      51.721   2.055  17.589  0.00  0.00    +0.000 A 
ATOM     20  C   UNL     1      52.841   2.965  17.819  0.00  0.00    +0.000 A 
BRANCH  12  22
ATOM     21  C   UNL     1      52.269   6.506  17.276  0.00  0.00    +0.000 C 
ATOM     22  O   UNL     1      51.921   5.204  17.743  0.00  0.00    +0.000 OA
ENDBRANCH  12  22
ENDBRANCH   8  19
ENDBRANCH   7  10
ENDBRANCH   1   7
BRANCH   4  23
ATOM     23  O   UNL     1      47.465   6.603  13.158  0.00  0.00    +0.000 OA
BRANCH  23  24
ATOM     24  C   UNL     1      46.115   7.019  12.897  0.00  0.00    +0.000 C 
BRANCH  24  25
ATOM     25  C   UNL     1      45.633   6.526  11.525  0.00  0.00    +0.000 C 
ATOM     26  F   UNL     1      44.933   7.544  10.927  0.00  0.00    +0.000 F 
ATOM     27  F   UNL     1      46.743   6.370  10.733  0.00  0.00    +0.000 F 
BRANCH  25  28
ATOM     28  C   UNL     1      44.835   5.236  11.634  0.00  0.00    +0.000 A 
ATOM     29  C   UNL     1      44.896   4.289  10.612  0.00  0.00    +0.000 A 
ATOM     30  C   UNL     1      44.158   3.114  10.732  0.00  0.00    +0.000 A 
ATOM     31  C   UNL     1      43.383   2.907  11.866  0.00  0.00    +0.000 A 
ATOM     32  C   UNL     1      43.381   3.886  12.843  0.00  0.00    +0.000 A 
ATOM     33  N   UNL     1      44.086   5.035  12.756  0.00  0.00    +0.000 NA
ENDBRANCH  25  28
ENDBRANCH  24  25
ENDBRANCH  23  24
ENDBRANCH   4  23
TORSDOF 8
ENDMDL
MODEL 6
REMARK VINA RESULT:    -6.584      3.683      4.804
REMARK INTER + INTRA:         -10.945
REMARK INTER:                  -9.820
REMARK INTRA:                  -1.125
REMARK UNBOUND:                -1.281
REMARK  Name = 
REMARK  9 active torsions:
REMARK  status: ('A' for Active; 'I' for Inactive)
REMARK    1  A    between atoms: C_1  and  O_2
REMARK    2  A    between atoms: O_2  and  C_3
REMARK    3  A    between atoms: C_10  and  C_11
REMARK    4  A    between atoms: N_13  and  C_14
REMARK    5  A    between atoms: C_14  and  C_15
REMARK    6  A    between atoms: C_18  and  O_19
REMARK    7  A    between atoms: O_19  and  C_20
REMARK    8  A    between atoms: C_20  and  C_21
REMARK    9  A    between atoms: C_21  and  C_24
REMARK                            x       y       z     vdW  Elec       q    Type
REMARK                         _______ _______ _______ _____ _____    ______ ____
ROOT
ATOM      1  C   UNL     1      47.807   6.449  13.911  0.00  0.00    +0.000 A 
ATOM      2  C   UNL     1      47.190   5.258  14.313  0.00  0.00    +0.000 A 
ATOM      3  C   UNL     1      46.278   4.604  13.475  0.00  0.00    +0.000 A 
ATOM      4  C   UNL     1      45.975   5.127  12.218  0.00  0.00    +0.000 A 
ATOM      5  C   UNL     1      46.614   6.298  11.801  0.00  0.00    +0.000 A 
ATOM      6  C   UNL     1      47.527   6.953  12.636  0.00  0.00    +0.000 A 
ENDROOT
BRANCH   1   7
ATOM      7  C   UNL     1      48.771   7.149  14.835  0.00  0.00    +0.000 C 
BRANCH   7  10
ATOM      8  C   UNL     1      50.460   8.589  13.765  0.00  0.00    +0.000 C 
ATOM      9  O   UNL     1      49.786   9.598  13.965  0.00  0.00    +0.000 OA
ATOM     10  N   UNL     1      50.043   7.358  14.189  0.00  0.00    +0.000 N 
ATOM     11  H   UNL     1      50.539   6.533  13.879  0.00  0.00    +0.000 HD
BRANCH   8  19
ATOM     12  C   UNL     1      53.668   7.692  14.645  0.00  0.00    +0.000 A 
ATOM     13  N   UNL     1      54.996   7.485  14.744  0.00  0.00    +0.000 NA
ATOM     14  C   UNL     1      55.768   7.860  13.720  0.00  0.00    +0.000 A 
ATOM     15  N   UNL     1      55.372   8.419  12.580  0.00  0.00    +0.000 NA
ATOM     16  C   UNL     1      54.043   8.605  12.521  0.00  0.00    +0.000 A 
ATOM     17  S   UNL     1      53.357   9.296  11.130  0.00  0.00    +0.000 S 
ATOM     18  C   UNL     1      51.797   9.209  11.796  0.00  0.00    +0.000 A 
ATOM     19  C   UNL     1      51.760   8.665  13.076  0.00  0.00    +0.000 A 
ATOM     20  C   UNL     1      53.106   8.285  13.499  0.00  0.00    +0.000 A 
BRANCH  12  22
ATOM     21  C   UNL     1      53.463   6.186  16.425  0.00  0.00    +0.000 C 
ATOM     22  O   UNL     1      52.863   7.235  15.668  0.00  0.00    +0.000 OA
ENDBRANCH  12  22
ENDBRANCH   8  19
ENDBRANCH   7  10
ENDBRANCH   1   7
BRANCH   4  23
ATOM     23  O   UNL     1      45.092   4.596  11.318  0.00  0.00    +0.000 OA
BRANCH  23  24
ATOM     24  C   UNL     1      45.296   3.223  10.945  0.00  0.00    +0.000 C 
BRANCH  24  25
ATOM     25  C   UNL     1      44.574   2.888   9.632  0.00  0.00    +0.000 C 
ATOM     26  F   UNL     1      43.666   1.891   9.887  0.00  0.00    +0.000 F 
ATOM     27  F   UNL     1      43.800   3.972   9.302  0.00  0.00    +0.000 F 
BRANCH  25  28
ATOM     28  C   UNL     1      45.552   2.536   8.522  0.00  0.00    +0.000 A 
ATOM     29  C   UNL     1      45.924   3.502   7.588  0.00  0.00    +0.000 A 
ATOM     30  C   UNL     1      46.821   3.160   6.579  0.00  0.00    +0.000 A 
ATOM     31  C   UNL     1      47.330   1.869   6.527  0.00  0.00    +0.000 A 
ATOM     32  C   UNL     1      46.923   0.967   7.494  0.00  0.00    +0.000 A 
ATOM     33  N   UNL     1      46.055   1.269   8.484  0.00  0.00    +0.000 NA
ENDBRANCH  25  28
ENDBRANCH  24  25
ENDBRANCH  23  24
ENDBRANCH   4  23
TORSDOF 8
ENDMDL
MODEL 7
REMARK VINA RESULT:    -6.320      3.429      4.895
REMARK INTER + INTRA:         -10.556
REMARK INTER:                  -9.104
REMARK INTRA:                  -1.452
REMARK UNBOUND:                -1.281
REMARK  Name = 
REMARK  9 active torsions:
REMARK  status: ('A' for Active; 'I' for Inactive)
REMARK    1  A    between atoms: C_1  and  O_2
REMARK    2  A    between atoms: O_2  and  C_3
REMARK    3  A    between atoms: C_10  and  C_11
REMARK    4  A    between atoms: N_13  and  C_14
REMARK    5  A    between atoms: C_14  and  C_15
REMARK    6  A    between atoms: C_18  and  O_19
REMARK    7  A    between atoms: O_19  and  C_20
REMARK    8  A    between atoms: C_20  and  C_21
REMARK    9  A    between atoms: C_21  and  C_24
REMARK                            x       y       z     vdW  Elec       q    Type
REMARK                         _______ _______ _______ _____ _____    ______ ____
ROOT
ATOM      1  C   UNL     1      48.046   5.136  16.259  0.00  0.00    +0.000 A 
ATOM      2  C   UNL     1      48.397   6.277  15.527  0.00  0.00    +0.000 A 
ATOM      3  C   UNL     1      48.000   6.424  14.192  0.00  0.00    +0.000 A 
ATOM      4  C   UNL     1      47.238   5.435  13.571  0.00  0.00    +0.000 A 
ATOM      5  C   UNL     1      46.859   4.310  14.308  0.00  0.00    +0.000 A 
ATOM      6  C   UNL     1      47.254   4.161  15.643  0.00  0.00    +0.000 A 
ENDROOT
BRANCH   1   7
ATOM      7  C   UNL     1      48.500   4.988  17.689  0.00  0.00    +0.000 C 
BRANCH   7  10
ATOM      8  C   UNL     1      50.761   4.027  17.494  0.00  0.00    +0.000 C 
ATOM      9  O   UNL     1      50.316   2.957  17.083  0.00  0.00    +0.000 OA
ATOM     10  N   UNL     1      49.936   5.078  17.784  0.00  0.00    +0.000 N 
ATOM     11  H   UNL     1      50.312   5.886  18.261  0.00  0.00    +0.000 HD
BRANCH   8  19
ATOM     12  C   UNL     1      52.975   6.426  16.394  0.00  0.00    +0.000 A 
ATOM     13  N   UNL     1      54.043   7.181  16.070  0.00  0.00    +0.000 NA
ATOM     14  C   UNL     1      55.244   6.792  16.509  0.00  0.00    +0.000 A 
ATOM     15  N   UNL     1      55.517   5.725  17.255  0.00  0.00    +0.000 NA
ATOM     16  C   UNL     1      54.425   5.002  17.557  0.00  0.00    +0.000 A 
ATOM     17  S   UNL     1      54.585   3.611  18.517  0.00  0.00    +0.000 S 
ATOM     18  C   UNL     1      52.917   3.300  18.429  0.00  0.00    +0.000 A 
ATOM     19  C   UNL     1      52.209   4.231  17.675  0.00  0.00    +0.000 A 
ATOM     20  C   UNL     1      53.114   5.262  17.171  0.00  0.00    +0.000 A 
BRANCH  12  22
ATOM     21  C   UNL     1      51.781   7.937  15.062  0.00  0.00    +0.000 C 
ATOM     22  O   UNL     1      51.727   6.870  16.007  0.00  0.00    +0.000 OA
ENDBRANCH  12  22
ENDBRANCH   8  19
ENDBRANCH   7  10
ENDBRANCH   1   7
BRANCH   4  23
ATOM     23  O   UNL     1      46.805   5.451  12.273  0.00  0.00    +0.000 OA
BRANCH  23  24
ATOM     24  C   UNL     1      45.665   6.276  11.981  0.00  0.00    +0.000 C 
BRANCH  24  25
ATOM     25  C   UNL     1      44.455   5.429  11.562  0.00  0.00    +0.000 C 
ATOM     26  F   UNL     1      43.984   4.778  12.674  0.00  0.00    +0.000 F 
ATOM     27  F   UNL     1      43.446   6.296  11.226  0.00  0.00    +0.000 F 
BRANCH  25  28
ATOM     28  C   UNL     1      44.793   4.488  10.416  0.00  0.00    +0.000 A 
ATOM     29  C   UNL     1      44.458   3.136  10.502  0.00  0.00    +0.000 A 
ATOM     30  C   UNL     1      44.775   2.291   9.442  0.00  0.00    +0.000 A 
ATOM     31  C   UNL     1      45.411   2.809   8.322  0.00  0.00    +0.000 A 
ATOM     32  C   UNL     1      45.702   4.162   8.303  0.00  0.00    +0.000 A 
ATOM     33  N   UNL     1      45.407   5.007   9.315  0.00  0.00    +0.000 NA
ENDBRANCH  25  28
ENDBRANCH  24  25
ENDBRANCH  23  24
ENDBRANCH   4  23
TORSDOF 8
ENDMDL
MODEL 8
REMARK VINA RESULT:    -6.006      3.601      5.113
REMARK INTER + INTRA:         -10.095
REMARK INTER:                  -8.698
REMARK INTRA:                  -1.396
REMARK UNBOUND:                -1.281
REMARK  Name = 
REMARK  9 active torsions:
REMARK  status: ('A' for Active; 'I' for Inactive)
REMARK    1  A    between atoms: C_1  and  O_2
REMARK    2  A    between atoms: O_2  and  C_3
REMARK    3  A    between atoms: C_10  and  C_11
REMARK    4  A    between atoms: N_13  and  C_14
REMARK    5  A    between atoms: C_14  and  C_15
REMARK    6  A    between atoms: C_18  and  O_19
REMARK    7  A    between atoms: O_19  and  C_20
REMARK    8  A    between atoms: C_20  and  C_21
REMARK    9  A    between atoms: C_21  and  C_24
REMARK                            x       y       z     vdW  Elec       q    Type
REMARK                         _______ _______ _______ _____ _____    ______ ____
ROOT
ATOM      1  C   UNL     1      48.018   5.118  16.584  0.00  0.00    +0.000 A 
ATOM      2  C   UNL     1      48.534   6.237  15.919  0.00  0.00    +0.000 A 
ATOM      3  C   UNL     1      48.257   6.460  14.565  0.00  0.00    +0.000 A 
ATOM      4  C   UNL     1      47.450   5.571  13.856  0.00  0.00    +0.000 A 
ATOM      5  C   UNL     1      46.906   4.470  14.524  0.00  0.00    +0.000 A 
ATOM      6  C   UNL     1      47.182   4.245  15.878  0.00  0.00    +0.000 A 
ENDROOT
BRANCH   1   7
ATOM      7  C   UNL     1      48.345   4.885  18.037  0.00  0.00    +0.000 C 
BRANCH   7  10
ATOM      8  C   UNL     1      50.328   4.984  19.497  0.00  0.00    +0.000 C 
ATOM      9  O   UNL     1      49.631   5.002  20.510  0.00  0.00    +0.000 OA
ATOM     10  N   UNL     1      49.771   4.898  18.251  0.00  0.00    +0.000 N 
ATOM     11  H   UNL     1      50.353   5.038  17.437  0.00  0.00    +0.000 HD
BRANCH   8  19
ATOM     12  C   UNL     1      52.845   2.997  18.240  0.00  0.00    +0.000 A 
ATOM     13  N   UNL     1      54.002   2.382  17.922  0.00  0.00    +0.000 NA
ATOM     14  C   UNL     1      55.140   2.903  18.391  0.00  0.00    +0.000 A 
ATOM     15  N   UNL     1      55.272   3.990  19.147  0.00  0.00    +0.000 NA
ATOM     16  C   UNL     1      54.097   4.573  19.438  0.00  0.00    +0.000 A 
ATOM     17  S   UNL     1      54.077   5.984  20.382  0.00  0.00    +0.000 S 
ATOM     18  C   UNL     1      52.381   6.065  20.311  0.00  0.00    +0.000 A 
ATOM     19  C   UNL     1      51.797   5.035  19.581  0.00  0.00    +0.000 A 
ATOM     20  C   UNL     1      52.831   4.154  19.041  0.00  0.00    +0.000 A 
BRANCH  12  22
ATOM     21  C   UNL     1      51.715   1.097  17.472  0.00  0.00    +0.000 C 
ATOM     22  O   UNL     1      51.678   2.505  17.693  0.00  0.00    +0.000 OA
ENDBRANCH  12  22
ENDBRANCH   8  19
ENDBRANCH   7  10
ENDBRANCH   1   7
BRANCH   4  23
ATOM     23  O   UNL     1      47.121   5.666  12.531  0.00  0.00    +0.000 OA
BRANCH  23  24
ATOM     24  C   UNL     1      46.323   6.796  12.143  0.00  0.00    +0.000 C 
BRANCH  24  25
ATOM     25  C   UNL     1      44.872   6.383  11.854  0.00  0.00    +0.000 C 
ATOM     26  F   UNL     1      44.238   6.185  13.055  0.00  0.00    +0.000 F 
ATOM     27  F   UNL     1      44.236   7.471  11.313  0.00  0.00    +0.000 F 
BRANCH  25  28
ATOM     28  C   UNL     1      44.800   5.174  10.934  0.00  0.00    +0.000 A 
ATOM     29  C   UNL     1      44.151   4.013  11.357  0.00  0.00    +0.000 A 
ATOM     30  C   UNL     1      44.095   2.918  10.500  0.00  0.00    +0.000 A 
ATOM     31  C   UNL     1      44.679   3.003   9.243  0.00  0.00    +0.000 A 
ATOM     32  C   UNL     1      45.296   4.190   8.889  0.00  0.00    +0.000 A 
ATOM     33  N   UNL     1      45.367   5.270   9.698  0.00  0.00    +0.000 NA
ENDBRANCH  25  28
ENDBRANCH  24  25
ENDBRANCH  23  24
ENDBRANCH   4  23
TORSDOF 8
ENDMDL
MODEL 9
REMARK VINA RESULT:    -5.702      3.441      4.740
REMARK INTER + INTRA:          -9.649
REMARK INTER:                  -8.594
REMARK INTRA:                  -1.055
REMARK UNBOUND:                -1.281
REMARK  Name = 
REMARK  9 active torsions:
REMARK  status: ('A' for Active; 'I' for Inactive)
REMARK    1  A    between atoms: C_1  and  O_2
REMARK    2  A    between atoms: O_2  and  C_3
REMARK    3  A    between atoms: C_10  and  C_11
REMARK    4  A    between atoms: N_13  and  C_14
REMARK    5  A    between atoms: C_14  and  C_15
REMARK    6  A    between atoms: C_18  and  O_19
REMARK    7  A    between atoms: O_19  and  C_20
REMARK    8  A    between atoms: C_20  and  C_21
REMARK    9  A    between atoms: C_21  and  C_24
REMARK                            x       y       z     vdW  Elec       q    Type
REMARK                         _______ _______ _______ _____ _____    ______ ____
ROOT
ATOM      1  C   UNL     1      47.985   6.665  14.636  0.00  0.00    +0.000 A 
ATOM      2  C   UNL     1      47.555   5.332  14.677  0.00  0.00    +0.000 A 
ATOM      3  C   UNL     1      46.798   4.789  13.632  0.00  0.00    +0.000 A 
ATOM      4  C   UNL     1      46.466   5.567  12.524  0.00  0.00    +0.000 A 
ATOM      5  C   UNL     1      46.921   6.888  12.464  0.00  0.00    +0.000 A 
ATOM      6  C   UNL     1      47.678   7.433  13.507  0.00  0.00    +0.000 A 
ENDROOT
BRANCH   1   7
ATOM      7  C   UNL     1      48.782   7.237  15.780  0.00  0.00    +0.000 C 
BRANCH   7  10
ATOM      8  C   UNL     1      50.919   8.398  15.387  0.00  0.00    +0.000 C 
ATOM      9  O   UNL     1      50.414   9.494  15.623  0.00  0.00    +0.000 OA
ATOM     10  N   UNL     1      50.190   7.245  15.472  0.00  0.00    +0.000 N 
ATOM     11  H   UNL     1      50.587   6.381  15.127  0.00  0.00    +0.000 HD
BRANCH   8  19
ATOM     12  C   UNL     1      52.587   8.270  12.375  0.00  0.00    +0.000 A 
ATOM     13  N   UNL     1      53.470   8.150  11.364  0.00  0.00    +0.000 NA
ATOM     14  C   UNL     1      54.758   7.972  11.673  0.00  0.00    +0.000 A 
ATOM     15  N   UNL     1      55.288   7.907  12.892  0.00  0.00    +0.000 NA
ATOM     16  C   UNL     1      54.375   8.033  13.869  0.00  0.00    +0.000 A 
ATOM     17  S   UNL     1      54.876   7.987  15.490  0.00  0.00    +0.000 S 
ATOM     18  C   UNL     1      53.280   8.180  16.039  0.00  0.00    +0.000 A 
ATOM     19  C   UNL     1      52.340   8.277  15.019  0.00  0.00    +0.000 A 
ATOM     20  C   UNL     1      53.003   8.210  13.718  0.00  0.00    +0.000 A 
BRANCH  12  22
ATOM     21  C   UNL     1      50.919   8.113  10.739  0.00  0.00    +0.000 C 
ATOM     22  O   UNL     1      51.270   8.530  12.057  0.00  0.00    +0.000 OA
ENDBRANCH  12  22
ENDBRANCH   8  19
ENDBRANCH   7  10
ENDBRANCH   1   7
BRANCH   4  23
ATOM     23  O   UNL     1      45.720   5.161  11.451  0.00  0.00    +0.000 OA
BRANCH  23  24
ATOM     24  C   UNL     1      45.217   3.816  11.485  0.00  0.00    +0.000 C 
BRANCH  24  25
ATOM     25  C   UNL     1      44.370   3.505  10.243  0.00  0.00    +0.000 C 
ATOM     26  F   UNL     1      43.424   2.574  10.594  0.00  0.00    +0.000 F 
ATOM     27  F   UNL     1      43.641   4.630   9.951  0.00  0.00    +0.000 F 
BRANCH  25  28
ATOM     28  C   UNL     1      45.228   3.069   9.066  0.00  0.00    +0.000 A 
ATOM     29  C   UNL     1      45.620   4.001   8.105  0.00  0.00    +0.000 A 
ATOM     30  C   UNL     1      46.407   3.583   7.035  0.00  0.00    +0.000 A 
ATOM     31  C   UNL     1      46.790   2.250   6.950  0.00  0.00    +0.000 A 
ATOM     32  C   UNL     1      46.372   1.385   7.945  0.00  0.00    +0.000 A 
ATOM     33  N   UNL     1      45.609   1.761   8.995  0.00  0.00    +0.000 NA
ENDBRANCH  25  28
ENDBRANCH  24  25
ENDBRANCH  23  24
ENDBRANCH   4  23
TORSDOF 8
ENDMDL
