MODEL 1
REMARK VINA RESULT:    -7.785      0.000      0.000
REMARK INTER + INTRA:         -11.495
REMARK INTER:                 -10.743
REMARK INTRA:                  -0.753
REMARK UNBOUND:                -0.753
REMARK  Name = 
REMARK  7 active torsions:
REMARK  status: ('A' for Active; 'I' for Inactive)
REMARK    1  A    between atoms: N_1  and  C_2
REMARK    2  A    between atoms: C_2  and  C_3
REMARK    3  A    between atoms: C_6  and  S_7
REMARK    4  A    between atoms: S_7  and  C_8
REMARK    5  A    between atoms: C_8  and  C_9
REMARK    6  A    between atoms: C_9  and  C_10
REMARK    7  A    between atoms: C_13  and  C_14
REMARK                            x       y       z     vdW  Elec       q    Type
REMARK                         _______ _______ _______ _____ _____    ______ ____
ROOT
ATOM      1  C   UNL     1      43.131   4.014  11.483  0.00  0.00    +0.000 C 
ENDROOT
BRANCH   1   2
ATOM      2  S   UNL     1      43.071   5.123  12.940  0.00  0.00    +0.000 S 
BRANCH   2   6
ATOM      3  C   UNL     1      47.386   6.550  13.064  0.00  0.00    +0.000 A 
ATOM      4  C   UNL     1      47.106   5.197  13.271  0.00  0.00    +0.000 A 
ATOM      5  C   UNL     1      45.786   4.746  13.232  0.00  0.00    +0.000 A 
ATOM      6  C   UNL     1      44.772   5.664  12.985  0.00  0.00    +0.000 A 
ATOM      7  N   UNL     1      45.019   6.976  12.781  0.00  0.00    +0.000 NA
ATOM      8  C   UNL     1      46.305   7.386  12.825  0.00  0.00    +0.000 A 
BRANCH   3   9
ATOM      9  C   UNL     1      48.782   7.099  13.121  0.00  0.00    +0.000 C 
BRANCH   9  10
ATOM     10  N   UNL     1      49.483   6.678  14.327  0.00  0.00    +0.000 NA
ATOM     11  H   UNL     1      50.083   7.437  14.646  0.00  0.00    +0.000 HD
ATOM     12  H   UNL     1      50.106   5.903  14.101  0.00  0.00    +0.000 HD
ENDBRANCH   9  10
ENDBRANCH   3   9
ENDBRANCH   2   6
ENDBRANCH   1   2
BRANCH   1  13
ATOM     13  C   UNL     1      43.626   4.766  10.248  0.00  0.00    +0.000 C 
BRANCH  13  14
ATOM     14  C   UNL     1      44.537   3.909   9.396  0.00  0.00    +0.000 A 
ATOM     15  C   UNL     1      44.552   2.516   9.546  0.00  0.00    +0.000 A 
ATOM     16  C   UNL     1      45.389   1.724   8.753  0.00  0.00    +0.000 A 
ATOM     17  C   UNL     1      46.232   2.310   7.798  0.00  0.00    +0.000 A 
ATOM     18  C   UNL     1      46.227   3.706   7.661  0.00  0.00    +0.000 A 
ATOM     19  C   UNL     1      45.389   4.498   8.453  0.00  0.00    +0.000 A 
BRANCH  17  20
ATOM     20  C   UNL     1      47.131   1.469   6.925  0.00  0.00    +0.000 C 
ATOM     21  F   UNL     1      48.455   1.579   7.235  0.00  0.00    +0.000 F 
ATOM     22  F   UNL     1      46.841   0.140   7.005  0.00  0.00    +0.000 F 
ATOM     23  F   UNL     1      47.031   1.793   5.605  0.00  0.00    +0.000 F 
ENDBRANCH  17  20
ENDBRANCH  13  14
ENDBRANCH   1  13
TORSDOF 7
ENDMDL
MODEL 2
REMARK VINA RESULT:    -7.622      0.973      1.831
REMARK INTER + INTRA:         -11.271
REMARK INTER:                 -10.377
REMARK INTRA:                  -0.894
REMARK UNBOUND:                -0.753
REMARK  Name = 
REMARK  7 active torsions:
REMARK  status: ('A' for Active; 'I' for Inactive)
REMARK    1  A    between atoms: N_1  and  C_2
REMARK    2  A    between atoms: C_2  and  C_3
REMARK    3  A    between atoms: C_6  and  S_7
REMARK    4  A    between atoms: S_7  and  C_8
REMARK    5  A    between atoms: C_8  and  C_9
REMARK    6  A    between atoms: C_9  and  C_10
REMARK    7  A    between atoms: C_13  and  C_14
REMARK                            x       y       z     vdW  Elec       q    Type
REMARK                         _______ _______ _______ _____ _____    ______ ____
ROOT
ATOM      1  C   UNL     1      43.024   4.538  11.221  0.00  0.00    +0.000 C 
ENDROOT
BRANCH   1   2
ATOM      2  S   UNL     1      43.256   5.152  12.931  0.00  0.00    +0.000 S 
BRANCH   2   6
ATOM      3  C   UNL     1      47.602   6.472  12.718  0.00  0.00    +0.000 A 
ATOM      4  C   UNL     1      46.671   7.040  11.845  0.00  0.00    +0.000 A 
ATOM      5  C   UNL     1      45.333   6.646  11.904  0.00  0.00    +0.000 A 
ATOM      6  C   UNL     1      44.957   5.688  12.838  0.00  0.00    +0.000 A 
ATOM      7  N   UNL     1      45.840   5.125  13.691  0.00  0.00    +0.000 NA
ATOM      8  C   UNL     1      47.128   5.524  13.613  0.00  0.00    +0.000 A 
BRANCH   3   9
ATOM      9  C   UNL     1      49.059   6.835  12.684  0.00  0.00    +0.000 C 
BRANCH   9  10
ATOM     10  N   UNL     1      49.649   6.838  14.017  0.00  0.00    +0.000 NA
ATOM     11  H   UNL     1      50.441   6.197  14.031  0.00  0.00    +0.000 HD
ATOM     12  H   UNL     1      48.973   6.465  14.684  0.00  0.00    +0.000 HD
ENDBRANCH   9  10
ENDBRANCH   3   9
ENDBRANCH   2   6
ENDBRANCH   1   2
BRANCH   1  13
ATOM     13  C   UNL     1      43.579   3.122  11.073  0.00  0.00    +0.000 C 
BRANCH  13  14
ATOM     14  C   UNL     1      44.490   2.999   9.870  0.00  0.00    +0.000 A 
ATOM     15  C   UNL     1      44.905   4.140   9.170  0.00  0.00    +0.000 A 
ATOM     16  C   UNL     1      45.752   4.026   8.063  0.00  0.00    +0.000 A 
ATOM     17  C   UNL     1      46.197   2.768   7.630  0.00  0.00    +0.000 A 
ATOM     18  C   UNL     1      45.767   1.627   8.323  0.00  0.00    +0.000 A 
ATOM     19  C   UNL     1      44.920   1.741   9.430  0.00  0.00    +0.000 A 
BRANCH  17  20
ATOM     20  C   UNL     1      47.122   2.629   6.446  0.00  0.00    +0.000 C 
ATOM     21  F   UNL     1      46.854   3.503   5.435  0.00  0.00    +0.000 F 
ATOM     22  F   UNL     1      48.428   2.835   6.777  0.00  0.00    +0.000 F 
ATOM     23  F   UNL     1      47.072   1.387   5.886  0.00  0.00    +0.000 F 
ENDBRANCH  17  20
ENDBRANCH  13  14
ENDBRANCH   1  13
TORSDOF 7
ENDMDL
MODEL 3
REMARK VINA RESULT:    -7.065      4.060      6.549
REMARK INTER + INTRA:         -10.502
REMARK INTER:                 -10.152
REMARK INTRA:                  -0.349
REMARK UNBOUND:                -0.753
REMARK  Name = 
REMARK  7 active torsions:
REMARK  status: ('A' for Active; 'I' for Inactive)
REMARK    1  A    between atoms: N_1  and  C_2
REMARK    2  A    between atoms: C_2  and  C_3
REMARK    3  A    between atoms: C_6  and  S_7
REMARK    4  A    between atoms: S_7  and  C_8
REMARK    5  A    between atoms: C_8  and  C_9
REMARK    6  A    between atoms: C_9  and  C_10
REMARK    7  A    between atoms: C_13  and  C_14
REMARK                            x       y       z     vdW  Elec       q    Type
REMARK                         _______ _______ _______ _____ _____    ______ ____
ROOT
ATOM      1  C   UNL     1      43.469   3.348  11.520  0.00  0.00    +0.000 C 
ENDROOT
BRANCH   1   2
ATOM      2  S   UNL     1      43.733   4.595  10.204  0.00  0.00    +0.000 S 
BRANCH   2   6
ATOM      3  C   UNL     1      46.638   2.358   7.517  0.00  0.00    +0.000 A 
ATOM      4  C   UNL     1      45.917   1.652   8.482  0.00  0.00    +0.000 A 
ATOM      5  C   UNL     1      45.019   2.327   9.310  0.00  0.00    +0.000 A 
ATOM      6  C   UNL     1      44.864   3.699   9.153  0.00  0.00    +0.000 A 
ATOM      7  N   UNL     1      45.551   4.402   8.226  0.00  0.00    +0.000 NA
ATOM      8  C   UNL     1      46.413   3.725   7.438  0.00  0.00    +0.000 A 
BRANCH   3   9
ATOM      9  C   UNL     1      47.638   1.692   6.615  0.00  0.00    +0.000 C 
BRANCH   9  10
ATOM     10  N   UNL     1      48.724   2.592   6.249  0.00  0.00    +0.000 NA
ATOM     11  H   UNL     1      48.343   3.521   6.076  0.00  0.00    +0.000 HD
ATOM     12  H   UNL     1      49.131   2.285   5.366  0.00  0.00    +0.000 HD
ENDBRANCH   9  10
ENDBRANCH   3   9
ENDBRANCH   2   6
ENDBRANCH   1   2
BRANCH   1  13
ATOM     13  C   UNL     1      43.624   3.977  12.904  0.00  0.00    +0.000 C 
BRANCH  13  14
ATOM     14  C   UNL     1      44.828   4.891  12.974  0.00  0.00    +0.000 A 
ATOM     15  C   UNL     1      46.104   4.372  13.232  0.00  0.00    +0.000 A 
ATOM     16  C   UNL     1      47.217   5.216  13.290  0.00  0.00    +0.000 A 
ATOM     17  C   UNL     1      47.077   6.598  13.096  0.00  0.00    +0.000 A 
ATOM     18  C   UNL     1      45.797   7.117  12.853  0.00  0.00    +0.000 A 
ATOM     19  C   UNL     1      44.683   6.273  12.795  0.00  0.00    +0.000 A 
BRANCH  17  20
ATOM     20  C   UNL     1      48.270   7.521  13.141  0.00  0.00    +0.000 C 
ATOM     21  F   UNL     1      49.467   6.868  13.174  0.00  0.00    +0.000 F 
ATOM     22  F   UNL     1      48.330   8.350  12.060  0.00  0.00    +0.000 F 
ATOM     23  F   UNL     1      48.261   8.335  14.234  0.00  0.00    +0.000 F 
ENDBRANCH  17  20
ENDBRANCH  13  14
ENDBRANCH   1  13
TORSDOF 7
ENDMDL
MODEL 4
REMARK VINA RESULT:    -6.892      3.984      6.459
REMARK INTER + INTRA:         -10.264
REMARK INTER:                  -9.270
REMARK INTRA:                  -0.994
REMARK UNBOUND:                -0.753
REMARK  Name = 
REMARK  7 active torsions:
REMARK  status: ('A' for Active; 'I' for Inactive)
REMARK    1  A    between atoms: N_1  and  C_2
REMARK    2  A    between atoms: C_2  and  C_3
REMARK    3  A    between atoms: C_6  and  S_7
REMARK    4  A    between atoms: S_7  and  C_8
REMARK    5  A    between atoms: C_8  and  C_9
REMARK    6  A    between atoms: C_9  and  C_10
REMARK    7  A    between atoms: C_13  and  C_14
REMARK                            x       y       z     vdW  Elec       q    Type
REMARK                         _______ _______ _______ _____ _____    ______ ____
ROOT
ATOM      1  C   UNL     1      43.017   4.661  11.563  0.00  0.00    +0.000 C 
ENDROOT
BRANCH   1   2
ATOM      2  S   UNL     1      43.414   2.880  11.393  0.00  0.00    +0.000 S 
BRANCH   2   6
ATOM      3  C   UNL     1      46.172   2.986   7.780  0.00  0.00    +0.000 A 
ATOM      4  C   UNL     1      45.685   4.185   8.304  0.00  0.00    +0.000 A 
ATOM      5  C   UNL     1      44.841   4.166   9.415  0.00  0.00    +0.000 A 
ATOM      6  C   UNL     1      44.501   2.941   9.978  0.00  0.00    +0.000 A 
ATOM      7  N   UNL     1      44.961   1.769   9.488  0.00  0.00    +0.000 NA
ATOM      8  C   UNL     1      45.776   1.816   8.412  0.00  0.00    +0.000 A 
BRANCH   3   9
ATOM      9  C   UNL     1      47.061   2.940   6.570  0.00  0.00    +0.000 C 
BRANCH   9  10
ATOM     10  N   UNL     1      47.962   1.794   6.601  0.00  0.00    +0.000 NA
ATOM     11  H   UNL     1      47.413   0.938   6.545  0.00  0.00    +0.000 HD
ATOM     12  H   UNL     1      48.439   1.766   7.502  0.00  0.00    +0.000 HD
ENDBRANCH   9  10
ENDBRANCH   3   9
ENDBRANCH   2   6
ENDBRANCH   1   2
BRANCH   1  13
ATOM     13  C   UNL     1      43.536   5.208  12.892  0.00  0.00    +0.000 C 
BRANCH  13  14
ATOM     14  C   UNL     1      44.907   5.831  12.746  0.00  0.00    +0.000 A 
ATOM     15  C   UNL     1      45.093   6.968  11.948  0.00  0.00    +0.000 A 
ATOM     16  C   UNL     1      46.360   7.547  11.819  0.00  0.00    +0.000 A 
ATOM     17  C   UNL     1      47.467   6.997  12.482  0.00  0.00    +0.000 A 
ATOM     18  C   UNL     1      47.281   5.851  13.267  0.00  0.00    +0.000 A 
ATOM     19  C   UNL     1      46.015   5.272  13.396  0.00  0.00    +0.000 A 
BRANCH  17  20
ATOM     20  C   UNL     1      48.837   7.618  12.364  0.00  0.00    +0.000 C 
ATOM     21  F   UNL     1      49.385   7.508  11.121  0.00  0.00    +0.000 F 
ATOM     22  F   UNL     1      48.833   8.951  12.650  0.00  0.00    +0.000 F 
ATOM     23  F   UNL     1      49.741   7.058  13.218  0.00  0.00    +0.000 F 
ENDBRANCH  17  20
ENDBRANCH  13  14
ENDBRANCH   1  13
TORSDOF 7
ENDMDL
MODEL 5
REMARK VINA RESULT:    -6.833      4.123      6.706
REMARK INTER + INTRA:         -10.182
REMARK INTER:                  -9.566
REMARK INTRA:                  -0.616
REMARK UNBOUND:                -0.753
REMARK  Name = 
REMARK  7 active torsions:
REMARK  status: ('A' for Active; 'I' for Inactive)
REMARK    1  A    between atoms: N_1  and  C_2
REMARK    2  A    between atoms: C_2  and  C_3
REMARK    3  A    between atoms: C_6  and  S_7
REMARK    4  A    between atoms: S_7  and  C_8
REMARK    5  A    between atoms: C_8  and  C_9
REMARK    6  A    between atoms: C_9  and  C_10
REMARK    7  A    between atoms: C_13  and  C_14
REMARK                            x       y       z     vdW  Elec       q    Type
REMARK                         _______ _______ _______ _____ _____    ______ ____
ROOT
ATOM      1  C   UNL     1      44.164   4.020  12.052  0.00  0.00    +0.000 C 
ENDROOT
BRANCH   1   2
ATOM      2  S   UNL     1      43.684   4.683  10.413  0.00  0.00    +0.000 S 
BRANCH   2   6
ATOM      3  C   UNL     1      46.397   2.188   7.751  0.00  0.00    +0.000 A 
ATOM      4  C   UNL     1      46.406   3.579   7.626  0.00  0.00    +0.000 A 
ATOM      5  C   UNL     1      45.581   4.356   8.440  0.00  0.00    +0.000 A 
ATOM      6  C   UNL     1      44.761   3.720   9.364  0.00  0.00    +0.000 A 
ATOM      7  N   UNL     1      44.736   2.376   9.504  0.00  0.00    +0.000 NA
ATOM      8  C   UNL     1      45.543   1.648   8.704  0.00  0.00    +0.000 A 
BRANCH   3   9
ATOM      9  C   UNL     1      47.241   1.297   6.886  0.00  0.00    +0.000 C 
BRANCH   9  10
ATOM     10  N   UNL     1      48.321   2.032   6.240  0.00  0.00    +0.000 NA
ATOM     11  H   UNL     1      48.797   2.604   6.936  0.00  0.00    +0.000 HD
ATOM     12  H   UNL     1      47.925   2.683   5.562  0.00  0.00    +0.000 HD
ENDBRANCH   9  10
ENDBRANCH   3   9
ENDBRANCH   2   6
ENDBRANCH   1   2
BRANCH   1  13
ATOM     13  C   UNL     1      44.307   5.147  13.074  0.00  0.00    +0.000 C 
BRANCH  13  14
ATOM     14  C   UNL     1      45.505   6.023  12.779  0.00  0.00    +0.000 A 
ATOM     15  C   UNL     1      46.807   5.525  12.923  0.00  0.00    +0.000 A 
ATOM     16  C   UNL     1      47.913   6.334  12.643  0.00  0.00    +0.000 A 
ATOM     17  C   UNL     1      47.740   7.659  12.219  0.00  0.00    +0.000 A 
ATOM     18  C   UNL     1      46.437   8.160  12.090  0.00  0.00    +0.000 A 
ATOM     19  C   UNL     1      45.331   7.351  12.370  0.00  0.00    +0.000 A 
BRANCH  17  20
ATOM     20  C   UNL     1      48.923   8.540  11.899  0.00  0.00    +0.000 C 
ATOM     21  F   UNL     1      49.851   7.943  11.098  0.00  0.00    +0.000 F 
ATOM     22  F   UNL     1      48.561   9.686  11.257  0.00  0.00    +0.000 F 
ATOM     23  F   UNL     1      49.597   8.937  13.016  0.00  0.00    +0.000 F 
ENDBRANCH  17  20
ENDBRANCH  13  14
ENDBRANCH   1  13
TORSDOF 7
ENDMDL
MODEL 6
REMARK VINA RESULT:    -6.793      2.172      2.819
REMARK INTER + INTRA:         -10.127
REMARK INTER:                  -9.840
REMARK INTRA:                  -0.288
REMARK UNBOUND:                -0.753
REMARK  Name = 
REMARK  7 active torsions:
REMARK  status: ('A' for Active; 'I' for Inactive)
REMARK    1  A    between atoms: N_1  and  C_2
REMARK    2  A    between atoms: C_2  and  C_3
REMARK    3  A    between atoms: C_6  and  S_7
REMARK    4  A    between atoms: S_7  and  C_8
REMARK    5  A    between atoms: C_8  and  C_9
REMARK    6  A    between atoms: C_9  and  C_10
REMARK    7  A    between atoms: C_13  and  C_14
REMARK                            x       y       z     vdW  Elec       q    Type
REMARK                         _______ _______ _______ _____ _____    ______ ____
ROOT
ATOM      1  C   UNL     1      44.641   4.435  12.302  0.00  0.00    +0.000 C 
ENDROOT
BRANCH   1   2
ATOM      2  S   UNL     1      46.050   5.592  12.121  0.00  0.00    +0.000 S 
BRANCH   2   6
ATOM      3  C   UNL     1      48.013   5.005  16.181  0.00  0.00    +0.000 A 
ATOM      4  C   UNL     1      48.390   6.092  15.389  0.00  0.00    +0.000 A 
ATOM      5  C   UNL     1      47.792   6.285  14.143  0.00  0.00    +0.000 A 
ATOM      6  C   UNL     1      46.827   5.381  13.715  0.00  0.00    +0.000 A 
ATOM      7  N   UNL     1      46.446   4.323  14.464  0.00  0.00    +0.000 NA
ATOM      8  C   UNL     1      47.041   4.159  15.666  0.00  0.00    +0.000 A 
BRANCH   3   9
ATOM      9  C   UNL     1      48.639   4.729  17.517  0.00  0.00    +0.000 C 
BRANCH   9  10
ATOM     10  N   UNL     1      47.653   4.304  18.503  0.00  0.00    +0.000 NA
ATOM     11  H   UNL     1      46.792   4.829  18.360  0.00  0.00    +0.000 HD
ATOM     12  H   UNL     1      47.983   4.550  19.436  0.00  0.00    +0.000 HD
ENDBRANCH   9  10
ENDBRANCH   3   9
ENDBRANCH   2   6
ENDBRANCH   1   2
BRANCH   1  13
ATOM     13  C   UNL     1      43.834   4.357  11.007  0.00  0.00    +0.000 C 
BRANCH  13  14
ATOM     14  C   UNL     1      44.646   3.767   9.874  0.00  0.00    +0.000 A 
ATOM     15  C   UNL     1      45.239   4.597   8.913  0.00  0.00    +0.000 A 
ATOM     16  C   UNL     1      45.995   4.051   7.871  0.00  0.00    +0.000 A 
ATOM     17  C   UNL     1      46.168   2.663   7.765  0.00  0.00    +0.000 A 
ATOM     18  C   UNL     1      45.561   1.834   8.719  0.00  0.00    +0.000 A 
ATOM     19  C   UNL     1      44.805   2.380   9.761  0.00  0.00    +0.000 A 
BRANCH  17  20
ATOM     20  C   UNL     1      46.993   2.059   6.655  0.00  0.00    +0.000 C 
ATOM     21  F   UNL     1      46.895   0.702   6.575  0.00  0.00    +0.000 F 
ATOM     22  F   UNL     1      46.637   2.529   5.426  0.00  0.00    +0.000 F 
ATOM     23  F   UNL     1      48.323   2.328   6.784  0.00  0.00    +0.000 F 
ENDBRANCH  17  20
ENDBRANCH  13  14
ENDBRANCH   1  13
TORSDOF 7
ENDMDL
MODEL 7
REMARK VINA RESULT:    -6.644      4.908      7.541
REMARK INTER + INTRA:          -9.921
REMARK INTER:                  -9.403
REMARK INTRA:                  -0.518
REMARK UNBOUND:                -0.753
REMARK  Name = 
REMARK  7 active torsions:
REMARK  status: ('A' for Active; 'I' for Inactive)
REMARK    1  A    between atoms: N_1  and  C_2
REMARK    2  A    between atoms: C_2  and  C_3
REMARK    3  A    between atoms: C_6  and  S_7
REMARK    4  A    between atoms: S_7  and  C_8
REMARK    5  A    between atoms: C_8  and  C_9
REMARK    6  A    between atoms: C_9  and  C_10
REMARK    7  A    between atoms: C_13  and  C_14
REMARK                            x       y       z     vdW  Elec       q    Type
REMARK                         _______ _______ _______ _____ _____    ______ ____
ROOT
ATOM      1  C   UNL     1      44.660   4.754  11.881  0.00  0.00    +0.000 C 
ENDROOT
BRANCH   1   2
ATOM      2  S   UNL     1      43.766   4.864  10.285  0.00  0.00    +0.000 S 
BRANCH   2   6
ATOM      3  C   UNL     1      46.534   2.384   7.666  0.00  0.00    +0.000 A 
ATOM      4  C   UNL     1      45.727   1.743   8.608  0.00  0.00    +0.000 A 
ATOM      5  C   UNL     1      44.870   2.493   9.415  0.00  0.00    +0.000 A 
ATOM      6  C   UNL     1      44.842   3.873   9.261  0.00  0.00    +0.000 A 
ATOM      7  N   UNL     1      45.613   4.515   8.356  0.00  0.00    +0.000 NA
ATOM      8  C   UNL     1      46.433   3.766   7.588  0.00  0.00    +0.000 A 
BRANCH   3   9
ATOM      9  C   UNL     1      47.495   1.635   6.788  0.00  0.00    +0.000 C 
BRANCH   9  10
ATOM     10  N   UNL     1      48.460   2.525   6.154  0.00  0.00    +0.000 NA
ATOM     11  H   UNL     1      49.390   2.320   6.515  0.00  0.00    +0.000 HD
ATOM     12  H   UNL     1      48.257   3.487   6.425  0.00  0.00    +0.000 HD
ENDBRANCH   9  10
ENDBRANCH   3   9
ENDBRANCH   2   6
ENDBRANCH   1   2
BRANCH   1  13
ATOM     13  C   UNL     1      45.973   5.534  11.822  0.00  0.00    +0.000 C 
BRANCH  13  14
ATOM     14  C   UNL     1      46.711   5.490  13.143  0.00  0.00    +0.000 A 
ATOM     15  C   UNL     1      47.627   6.495  13.483  0.00  0.00    +0.000 A 
ATOM     16  C   UNL     1      48.304   6.456  14.706  0.00  0.00    +0.000 A 
ATOM     17  C   UNL     1      48.083   5.409  15.612  0.00  0.00    +0.000 A 
ATOM     18  C   UNL     1      47.178   4.396  15.262  0.00  0.00    +0.000 A 
ATOM     19  C   UNL     1      46.501   4.435  14.039  0.00  0.00    +0.000 A 
BRANCH  17  20
ATOM     20  C   UNL     1      48.794   5.360  16.942  0.00  0.00    +0.000 C 
ATOM     21  F   UNL     1      50.098   5.753  16.881  0.00  0.00    +0.000 F 
ATOM     22  F   UNL     1      48.209   6.160  17.877  0.00  0.00    +0.000 F 
ATOM     23  F   UNL     1      48.810   4.108  17.481  0.00  0.00    +0.000 F 
ENDBRANCH  17  20
ENDBRANCH  13  14
ENDBRANCH   1  13
TORSDOF 7
ENDMDL
MODEL 8
REMARK VINA RESULT:    -6.546      1.677      2.790
REMARK INTER + INTRA:          -9.786
REMARK INTER:                 -10.036
REMARK INTRA:                   0.250
REMARK UNBOUND:                -0.753
REMARK  Name = 
REMARK  7 active torsions:
REMARK  status: ('A' for Active; 'I' for Inactive)
REMARK    1  A    between atoms: N_1  and  C_2
REMARK    2  A    between atoms: C_2  and  C_3
REMARK    3  A    between atoms: C_6  and  S_7
REMARK    4  A    between atoms: S_7  and  C_8
REMARK    5  A    between atoms: C_8  and  C_9
REMARK    6  A    between atoms: C_9  and  C_10
REMARK    7  A    between atoms: C_13  and  C_14
REMARK                            x       y       z     vdW  Elec       q    Type
REMARK                         _______ _______ _______ _____ _____    ______ ____
ROOT
ATOM      1  C   UNL     1      43.798   3.785  12.067  0.00  0.00    +0.000 C 
ENDROOT
BRANCH   1   2
ATOM      2  S   UNL     1      45.490   4.267  12.578  0.00  0.00    +0.000 S 
BRANCH   2   6
ATOM      3  C   UNL     1      45.177   8.765  12.000  0.00  0.00    +0.000 A 
ATOM      4  C   UNL     1      46.283   8.237  12.670  0.00  0.00    +0.000 A 
ATOM      5  C   UNL     1      46.392   6.857  12.850  0.00  0.00    +0.000 A 
ATOM      6  C   UNL     1      45.388   6.035  12.354  0.00  0.00    +0.000 A 
ATOM      7  N   UNL     1      44.310   6.524  11.702  0.00  0.00    +0.000 NA
ATOM      8  C   UNL     1      44.228   7.862  11.542  0.00  0.00    +0.000 A 
BRANCH   3   9
ATOM      9  C   UNL     1      44.990  10.242  11.799  0.00  0.00    +0.000 C 
BRANCH   9  10
ATOM     10  N   UNL     1      43.642  10.672  12.147  0.00  0.00    +0.000 NA
ATOM     11  H   UNL     1      43.696  11.543  12.672  0.00  0.00    +0.000 HD
ATOM     12  H   UNL     1      43.224   9.987  12.777  0.00  0.00    +0.000 HD
ENDBRANCH   9  10
ENDBRANCH   3   9
ENDBRANCH   2   6
ENDBRANCH   1   2
BRANCH   1  13
ATOM     13  C   UNL     1      43.507   4.255  10.642  0.00  0.00    +0.000 C 
BRANCH  13  14
ATOM     14  C   UNL     1      44.440   3.615   9.637  0.00  0.00    +0.000 A 
ATOM     15  C   UNL     1      45.131   4.399   8.704  0.00  0.00    +0.000 A 
ATOM     16  C   UNL     1      45.999   3.807   7.781  0.00  0.00    +0.000 A 
ATOM     17  C   UNL     1      46.189   2.418   7.768  0.00  0.00    +0.000 A 
ATOM     18  C   UNL     1      45.484   1.633   8.693  0.00  0.00    +0.000 A 
ATOM     19  C   UNL     1      44.616   2.225   9.616  0.00  0.00    +0.000 A 
BRANCH  17  20
ATOM     20  C   UNL     1      47.132   1.765   6.788  0.00  0.00    +0.000 C 
ATOM     21  F   UNL     1      46.849   0.453   6.546  0.00  0.00    +0.000 F 
ATOM     22  F   UNL     1      47.124   2.376   5.570  0.00  0.00    +0.000 F 
ATOM     23  F   UNL     1      48.428   1.793   7.210  0.00  0.00    +0.000 F 
ENDBRANCH  17  20
ENDBRANCH  13  14
ENDBRANCH   1  13
TORSDOF 7
ENDMDL
MODEL 9
REMARK VINA RESULT:    -5.763      5.014      7.450
REMARK INTER + INTRA:          -8.706
REMARK INTER:                  -7.704
REMARK INTRA:                  -1.002
REMARK UNBOUND:                -0.753
REMARK  Name = 
REMARK  7 active torsions:
REMARK  status: ('A' for Active; 'I' for Inactive)
REMARK    1  A    between atoms: N_1  and  C_2
REMARK    2  A    between atoms: C_2  and  C_3
REMARK    3  A    between atoms: C_6  and  S_7
REMARK    4  A    between atoms: S_7  and  C_8
REMARK    5  A    between atoms: C_8  and  C_9
REMARK    6  A    between atoms: C_9  and  C_10
REMARK    7  A    between atoms: C_13  and  C_14
REMARK                            x       y       z     vdW  Elec       q    Type
REMARK                         _______ _______ _______ _____ _____    ______ ____
ROOT
ATOM      1  C   UNL     1      46.879   8.295  13.560  0.00  0.00    +0.000 C 
ENDROOT
BRANCH   1   2
ATOM      2  S   UNL     1      45.871   8.425  12.036  0.00  0.00    +0.000 S 
BRANCH   2   6
ATOM      3  C   UNL     1      44.113   4.234  11.905  0.00  0.00    +0.000 A 
ATOM      4  C   UNL     1      45.008   4.632  10.910  0.00  0.00    +0.000 A 
ATOM      5  C   UNL     1      45.558   5.914  10.941  0.00  0.00    +0.000 A 
ATOM      6  C   UNL     1      45.196   6.773  11.972  0.00  0.00    +0.000 A 
ATOM      7  N   UNL     1      44.333   6.410  12.946  0.00  0.00    +0.000 NA
ATOM      8  C   UNL     1      43.815   5.164  12.891  0.00  0.00    +0.000 A 
BRANCH   3   9
ATOM      9  C   UNL     1      43.468   2.878  11.910  0.00  0.00    +0.000 C 
BRANCH   9  10
ATOM     10  N   UNL     1      43.767   2.129  10.696  0.00  0.00    +0.000 NA
ATOM     11  H   UNL     1      43.930   2.784   9.933  0.00  0.00    +0.000 HD
ATOM     12  H   UNL     1      42.949   1.583  10.429  0.00  0.00    +0.000 HD
ENDBRANCH   9  10
ENDBRANCH   3   9
ENDBRANCH   2   6
ENDBRANCH   1   2
BRANCH   1  13
ATOM     13  C   UNL     1      47.992   7.262  13.389  0.00  0.00    +0.000 C 
BRANCH  13  14
ATOM     14  C   UNL     1      47.985   6.239  14.505  0.00  0.00    +0.000 A 
ATOM     15  C   UNL     1      47.204   5.080  14.405  0.00  0.00    +0.000 A 
ATOM     16  C   UNL     1      47.204   4.132  15.433  0.00  0.00    +0.000 A 
ATOM     17  C   UNL     1      47.980   4.328  16.585  0.00  0.00    +0.000 A 
ATOM     18  C   UNL     1      48.748   5.496  16.689  0.00  0.00    +0.000 A 
ATOM     19  C   UNL     1      48.749   6.444  15.661  0.00  0.00    +0.000 A 
BRANCH  17  20
ATOM     20  C   UNL     1      48.001   3.308  17.698  0.00  0.00    +0.000 C 
ATOM     21  F   UNL     1      49.039   2.427  17.614  0.00  0.00    +0.000 F 
ATOM     22  F   UNL     1      48.101   3.882  18.930  0.00  0.00    +0.000 F 
ATOM     23  F   UNL     1      46.871   2.547  17.733  0.00  0.00    +0.000 F 
ENDBRANCH  17  20
ENDBRANCH  13  14
ENDBRANCH   1  13
TORSDOF 7
ENDMDL
