MODEL 1
REMARK VINA RESULT:    -8.984      0.000      0.000
REMARK INTER + INTRA:         -13.588
REMARK INTER:                 -12.661
REMARK INTRA:                  -0.927
REMARK UNBOUND:                -0.927
REMARK  Name = 
REMARK  7 active torsions:
REMARK  status: ('A' for Active; 'I' for Inactive)
REMARK    1  A    between atoms: C_2  and  C_4
REMARK    2  A    between atoms: C_7  and  N_8
REMARK    3  A    between atoms: N_8  and  C_9
REMARK    4  A    between atoms: C_9  and  C_10
REMARK    5  A    between atoms: C_10  and  C_13
REMARK    6  A    between atoms: C_17  and  O_18
REMARK    7  A    between atoms: O_18  and  C_19
REMARK                            x       y       z     vdW  Elec       q    Type
REMARK                         _______ _______ _______ _____ _____    ______ ____
ROOT
ATOM      1  C   UNL     1      43.174   4.211  11.292  0.00  0.00    +0.000 C 
ENDROOT
BRANCH   1   2
ATOM      2  C   UNL     1      43.360   5.338  12.340  0.00  0.00    +0.000 C 
ATOM      3  F   UNL     1      42.749   6.472  11.879  0.00  0.00    +0.000 F 
ATOM      4  F   UNL     1      42.660   4.990  13.463  0.00  0.00    +0.000 F 
BRANCH   2   5
ATOM      5  C   UNL     1      44.827   5.575  12.634  0.00  0.00    +0.000 A 
ATOM      6  C   UNL     1      45.482   6.706  12.125  0.00  0.00    +0.000 A 
ATOM      7  C   UNL     1      46.823   6.942  12.433  0.00  0.00    +0.000 A 
ATOM      8  C   UNL     1      47.531   6.048  13.241  0.00  0.00    +0.000 A 
ATOM      9  C   UNL     1      46.900   4.905  13.724  0.00  0.00    +0.000 A 
ATOM     10  C   UNL     1      45.554   4.675  13.426  0.00  0.00    +0.000 A 
BRANCH   9  11
ATOM     11  O   UNL     1      47.481   3.963  14.536  0.00  0.00    +0.000 OA
BRANCH  11  12
ATOM     12  C   UNL     1      47.336   4.081  15.969  0.00  0.00    +0.000 C 
ATOM     13  C   UNL     1      48.287   5.024  16.717  0.00  0.00    +0.000 C 
ATOM     14  O   UNL     1      48.809   3.950  17.531  0.00  0.00    +0.000 OA
ATOM     15  C   UNL     1      48.037   2.982  16.784  0.00  0.00    +0.000 C 
ENDBRANCH  11  12
ENDBRANCH   9  11
ENDBRANCH   2   5
ENDBRANCH   1   2
BRANCH   1  16
ATOM     16  N   UNL     1      43.646   4.599   9.952  0.00  0.00    +0.000 N 
ATOM     17  H   UNL     1      42.938   5.012   9.350  0.00  0.00    +0.000 HD
BRANCH  16  21
ATOM     18  C   UNL     1      46.428   2.276   7.807  0.00  0.00    +0.000 A 
ATOM     19  C   UNL     1      46.416   3.663   7.638  0.00  0.00    +0.000 A 
ATOM     20  C   UNL     1      45.514   4.449   8.364  0.00  0.00    +0.000 A 
ATOM     21  C   UNL     1      44.631   3.880   9.286  0.00  0.00    +0.000 A 
ATOM     22  C   UNL     1      44.651   2.487   9.437  0.00  0.00    +0.000 A 
ATOM     23  C   UNL     1      45.537   1.688   8.703  0.00  0.00    +0.000 A 
BRANCH  18  25
ATOM     24  N   UNL     1      48.473   1.965   6.522  0.00  0.00    +0.000 N 
ATOM     25  C   UNL     1      47.328   1.402   7.013  0.00  0.00    +0.000 C 
ATOM     26  O   UNL     1      47.076   0.219   6.824  0.00  0.00    +0.000 OA
ATOM     27  H   UNL     1      49.120   1.334   6.067  0.00  0.00    +0.000 HD
ATOM     28  H   UNL     1      48.836   2.841   6.870  0.00  0.00    +0.000 HD
ENDBRANCH  18  25
ENDBRANCH  16  21
ENDBRANCH   1  16
TORSDOF 7
ENDMDL
MODEL 2
REMARK VINA RESULT:    -7.910      2.850      4.367
REMARK INTER + INTRA:         -12.073
REMARK INTER:                 -11.377
REMARK INTRA:                  -0.697
REMARK UNBOUND:                -0.927
REMARK  Name = 
REMARK  7 active torsions:
REMARK  status: ('A' for Active; 'I' for Inactive)
REMARK    1  A    between atoms: C_2  and  C_4
REMARK    2  A    between atoms: C_7  and  N_8
REMARK    3  A    between atoms: N_8  and  C_9
REMARK    4  A    between atoms: C_9  and  C_10
REMARK    5  A    between atoms: C_10  and  C_13
REMARK    6  A    between atoms: C_17  and  O_18
REMARK    7  A    between atoms: O_18  and  C_19
REMARK                            x       y       z     vdW  Elec       q    Type
REMARK                         _______ _______ _______ _____ _____    ______ ____
ROOT
ATOM      1  C   UNL     1      43.014   4.612  11.047  0.00  0.00    +0.000 C 
ENDROOT
BRANCH   1   2
ATOM      2  C   UNL     1      43.729   4.667  12.421  0.00  0.00    +0.000 C 
ATOM      3  F   UNL     1      42.796   4.908  13.392  0.00  0.00    +0.000 F 
ATOM      4  F   UNL     1      44.212   3.417  12.695  0.00  0.00    +0.000 F 
BRANCH   2   5
ATOM      5  C   UNL     1      44.824   5.715  12.426  0.00  0.00    +0.000 A 
ATOM      6  C   UNL     1      46.171   5.337  12.339  0.00  0.00    +0.000 A 
ATOM      7  C   UNL     1      47.175   6.306  12.303  0.00  0.00    +0.000 A 
ATOM      8  C   UNL     1      46.848   7.664  12.364  0.00  0.00    +0.000 A 
ATOM      9  C   UNL     1      45.516   8.050  12.484  0.00  0.00    +0.000 A 
ATOM     10  C   UNL     1      44.510   7.079  12.508  0.00  0.00    +0.000 A 
BRANCH   9  11
ATOM     11  O   UNL     1      45.068   9.346  12.538  0.00  0.00    +0.000 OA
BRANCH  11  12
ATOM     12  C   UNL     1      44.839  10.065  11.306  0.00  0.00    +0.000 C 
ATOM     13  C   UNL     1      44.346  11.516  11.394  0.00  0.00    +0.000 C 
ATOM     14  O   UNL     1      43.138  11.213  10.661  0.00  0.00    +0.000 OA
ATOM     15  C   UNL     1      43.473   9.807  10.649  0.00  0.00    +0.000 C 
ENDBRANCH  11  12
ENDBRANCH   9  11
ENDBRANCH   2   5
ENDBRANCH   1   2
BRANCH   1  16
ATOM     16  N   UNL     1      43.899   4.992   9.932  0.00  0.00    +0.000 N 
ATOM     17  H   UNL     1      43.517   5.692   9.300  0.00  0.00    +0.000 HD
BRANCH  16  21
ATOM     18  C   UNL     1      46.293   2.105   8.014  0.00  0.00    +0.000 A 
ATOM     19  C   UNL     1      46.495   3.459   7.737  0.00  0.00    +0.000 A 
ATOM     20  C   UNL     1      45.724   4.430   8.387  0.00  0.00    +0.000 A 
ATOM     21  C   UNL     1      44.761   4.079   9.338  0.00  0.00    +0.000 A 
ATOM     22  C   UNL     1      44.566   2.716   9.598  0.00  0.00    +0.000 A 
ATOM     23  C   UNL     1      45.319   1.734   8.941  0.00  0.00    +0.000 A 
BRANCH  18  25
ATOM     24  N   UNL     1      46.754  -0.254   7.625  0.00  0.00    +0.000 N 
ATOM     25  C   UNL     1      47.047   1.043   7.303  0.00  0.00    +0.000 C 
ATOM     26  O   UNL     1      47.879   1.307   6.445  0.00  0.00    +0.000 OA
ATOM     27  H   UNL     1      47.206  -0.965   7.064  0.00  0.00    +0.000 HD
ATOM     28  H   UNL     1      45.912  -0.510   8.120  0.00  0.00    +0.000 HD
ENDBRANCH  18  25
ENDBRANCH  16  21
ENDBRANCH   1  16
TORSDOF 7
ENDMDL
MODEL 3
REMARK VINA RESULT:    -7.901      1.776      2.230
REMARK INTER + INTRA:         -12.062
REMARK INTER:                 -11.008
REMARK INTRA:                  -1.054
REMARK UNBOUND:                -0.927
REMARK  Name = 
REMARK  7 active torsions:
REMARK  status: ('A' for Active; 'I' for Inactive)
REMARK    1  A    between atoms: C_2  and  C_4
REMARK    2  A    between atoms: C_7  and  N_8
REMARK    3  A    between atoms: N_8  and  C_9
REMARK    4  A    between atoms: C_9  and  C_10
REMARK    5  A    between atoms: C_10  and  C_13
REMARK    6  A    between atoms: C_17  and  O_18
REMARK    7  A    between atoms: O_18  and  C_19
REMARK                            x       y       z     vdW  Elec       q    Type
REMARK                         _______ _______ _______ _____ _____    ______ ____
ROOT
ATOM      1  C   UNL     1      43.901   4.617  11.267  0.00  0.00    +0.000 C 
ENDROOT
BRANCH   1   2
ATOM      2  C   UNL     1      44.856   4.381  12.465  0.00  0.00    +0.000 C 
ATOM      3  F   UNL     1      44.147   4.523  13.626  0.00  0.00    +0.000 F 
ATOM      4  F   UNL     1      45.243   3.068  12.444  0.00  0.00    +0.000 F 
BRANCH   2   5
ATOM      5  C   UNL     1      46.040   5.325  12.415  0.00  0.00    +0.000 A 
ATOM      6  C   UNL     1      46.177   6.241  11.362  0.00  0.00    +0.000 A 
ATOM      7  C   UNL     1      47.247   7.137  11.342  0.00  0.00    +0.000 A 
ATOM      8  C   UNL     1      48.200   7.123  12.364  0.00  0.00    +0.000 A 
ATOM      9  C   UNL     1      48.093   6.195  13.396  0.00  0.00    +0.000 A 
ATOM     10  C   UNL     1      47.014   5.306  13.423  0.00  0.00    +0.000 A 
BRANCH   9  11
ATOM     11  O   UNL     1      48.953   6.091  14.461  0.00  0.00    +0.000 OA
BRANCH  11  12
ATOM     12  C   UNL     1      48.549   6.611  15.747  0.00  0.00    +0.000 C 
ATOM     13  C   UNL     1      48.870   8.077  16.069  0.00  0.00    +0.000 C 
ATOM     14  O   UNL     1      49.670   7.712  17.216  0.00  0.00    +0.000 OA
ATOM     15  C   UNL     1      49.518   6.309  16.902  0.00  0.00    +0.000 C 
ENDBRANCH  11  12
ENDBRANCH   9  11
ENDBRANCH   2   5
ENDBRANCH   1   2
BRANCH   1  16
ATOM     16  N   UNL     1      43.717   3.411  10.443  0.00  0.00    +0.000 N 
ATOM     17  H   UNL     1      43.331   2.609  10.935  0.00  0.00    +0.000 HD
BRANCH  16  21
ATOM     18  C   UNL     1      46.537   2.600   7.421  0.00  0.00    +0.000 A 
ATOM     19  C   UNL     1      45.969   1.540   8.133  0.00  0.00    +0.000 A 
ATOM     20  C   UNL     1      45.011   1.794   9.121  0.00  0.00    +0.000 A 
ATOM     21  C   UNL     1      44.582   3.095   9.403  0.00  0.00    +0.000 A 
ATOM     22  C   UNL     1      45.169   4.146   8.686  0.00  0.00    +0.000 A 
ATOM     23  C   UNL     1      46.141   3.906   7.706  0.00  0.00    +0.000 A 
BRANCH  18  25
ATOM     24  N   UNL     1      47.456   3.011   5.205  0.00  0.00    +0.000 N 
ATOM     25  C   UNL     1      47.599   2.377   6.408  0.00  0.00    +0.000 C 
ATOM     26  O   UNL     1      48.577   1.680   6.641  0.00  0.00    +0.000 OA
ATOM     27  H   UNL     1      48.234   2.927   4.562  0.00  0.00    +0.000 HD
ATOM     28  H   UNL     1      46.818   3.783   5.074  0.00  0.00    +0.000 HD
ENDBRANCH  18  25
ENDBRANCH  16  21
ENDBRANCH   1  16
TORSDOF 7
ENDMDL
MODEL 4
REMARK VINA RESULT:    -7.683      2.380      2.993
REMARK INTER + INTRA:         -11.753
REMARK INTER:                 -10.805
REMARK INTRA:                  -0.949
REMARK UNBOUND:                -0.927
REMARK  Name = 
REMARK  7 active torsions:
REMARK  status: ('A' for Active; 'I' for Inactive)
REMARK    1  A    between atoms: C_2  and  C_4
REMARK    2  A    between atoms: C_7  and  N_8
REMARK    3  A    between atoms: N_8  and  C_9
REMARK    4  A    between atoms: C_9  and  C_10
REMARK    5  A    between atoms: C_10  and  C_13
REMARK    6  A    between atoms: C_17  and  O_18
REMARK    7  A    between atoms: O_18  and  C_19
REMARK                            x       y       z     vdW  Elec       q    Type
REMARK                         _______ _______ _______ _____ _____    ______ ____
ROOT
ATOM      1  C   UNL     1      43.546   4.303  11.484  0.00  0.00    +0.000 C 
ENDROOT
BRANCH   1   2
ATOM      2  C   UNL     1      44.750   4.474  12.446  0.00  0.00    +0.000 C 
ATOM      3  F   UNL     1      44.340   4.189  13.719  0.00  0.00    +0.000 F 
ATOM      4  F   UNL     1      45.671   3.508  12.145  0.00  0.00    +0.000 F 
BRANCH   2   5
ATOM      5  C   UNL     1      45.334   5.869  12.347  0.00  0.00    +0.000 A 
ATOM      6  C   UNL     1      44.552   6.992  12.650  0.00  0.00    +0.000 A 
ATOM      7  C   UNL     1      45.106   8.272  12.599  0.00  0.00    +0.000 A 
ATOM      8  C   UNL     1      46.443   8.449  12.233  0.00  0.00    +0.000 A 
ATOM      9  C   UNL     1      47.220   7.344  11.897  0.00  0.00    +0.000 A 
ATOM     10  C   UNL     1      46.668   6.061  11.961  0.00  0.00    +0.000 A 
BRANCH   9  11
ATOM     11  O   UNL     1      48.544   7.386  11.537  0.00  0.00    +0.000 OA
BRANCH  11  12
ATOM     12  C   UNL     1      49.554   7.122  12.536  0.00  0.00    +0.000 C 
ATOM     13  C   UNL     1      49.190   7.344  14.011  0.00  0.00    +0.000 C 
ATOM     14  O   UNL     1      50.232   8.331  14.181  0.00  0.00    +0.000 OA
ATOM     15  C   UNL     1      50.548   8.271  12.772  0.00  0.00    +0.000 C 
ENDBRANCH  11  12
ENDBRANCH   9  11
ENDBRANCH   2   5
ENDBRANCH   1   2
BRANCH   1  16
ATOM     16  N   UNL     1      43.856   4.724  10.107  0.00  0.00    +0.000 N 
ATOM     17  H   UNL     1      43.123   5.258   9.646  0.00  0.00    +0.000 HD
BRANCH  16  21
ATOM     18  C   UNL     1      46.424   2.460   7.654  0.00  0.00    +0.000 A 
ATOM     19  C   UNL     1      45.519   1.804   8.491  0.00  0.00    +0.000 A 
ATOM     20  C   UNL     1      44.642   2.544   9.292  0.00  0.00    +0.000 A 
ATOM     21  C   UNL     1      44.628   3.942   9.259  0.00  0.00    +0.000 A 
ATOM     22  C   UNL     1      45.549   4.584   8.419  0.00  0.00    +0.000 A 
ATOM     23  C   UNL     1      46.443   3.854   7.626  0.00  0.00    +0.000 A 
BRANCH  18  25
ATOM     24  N   UNL     1      48.533   2.386   6.439  0.00  0.00    +0.000 N 
ATOM     25  C   UNL     1      47.411   1.713   6.834  0.00  0.00    +0.000 C 
ATOM     26  O   UNL     1      47.247   0.535   6.544  0.00  0.00    +0.000 OA
ATOM     27  H   UNL     1      49.239   1.837   5.965  0.00  0.00    +0.000 HD
ATOM     28  H   UNL     1      48.822   3.253   6.870  0.00  0.00    +0.000 HD
ENDBRANCH  18  25
ENDBRANCH  16  21
ENDBRANCH   1  16
TORSDOF 7
ENDMDL
MODEL 5
REMARK VINA RESULT:    -7.138      2.742      7.755
REMARK INTER + INTRA:         -10.986
REMARK INTER:                 -10.228
REMARK INTRA:                  -0.758
REMARK UNBOUND:                -0.927
REMARK  Name = 
REMARK  7 active torsions:
REMARK  status: ('A' for Active; 'I' for Inactive)
REMARK    1  A    between atoms: C_2  and  C_4
REMARK    2  A    between atoms: C_7  and  N_8
REMARK    3  A    between atoms: N_8  and  C_9
REMARK    4  A    between atoms: C_9  and  C_10
REMARK    5  A    between atoms: C_10  and  C_13
REMARK    6  A    between atoms: C_17  and  O_18
REMARK    7  A    between atoms: O_18  and  C_19
REMARK                            x       y       z     vdW  Elec       q    Type
REMARK                         _______ _______ _______ _____ _____    ______ ____
ROOT
ATOM      1  C   UNL     1      46.876   6.359  12.000  0.00  0.00    +0.000 C 
ENDROOT
BRANCH   1   2
ATOM      2  C   UNL     1      45.388   6.276  11.574  0.00  0.00    +0.000 C 
ATOM      3  F   UNL     1      44.610   6.250  12.698  0.00  0.00    +0.000 F 
ATOM      4  F   UNL     1      45.063   7.448  10.945  0.00  0.00    +0.000 F 
BRANCH   2   5
ATOM      5  C   UNL     1      45.137   5.069  10.694  0.00  0.00    +0.000 A 
ATOM      6  C   UNL     1      44.320   4.020  11.139  0.00  0.00    +0.000 A 
ATOM      7  C   UNL     1      44.058   2.929  10.309  0.00  0.00    +0.000 A 
ATOM      8  C   UNL     1      44.616   2.864   9.029  0.00  0.00    +0.000 A 
ATOM      9  C   UNL     1      45.456   3.884   8.589  0.00  0.00    +0.000 A 
ATOM     10  C   UNL     1      45.708   4.982   9.416  0.00  0.00    +0.000 A 
BRANCH   9  11
ATOM     11  O   UNL     1      46.050   3.943   7.353  0.00  0.00    +0.000 OA
BRANCH  11  12
ATOM     12  C   UNL     1      46.321   2.714   6.642  0.00  0.00    +0.000 C 
ATOM     13  C   UNL     1      47.440   1.805   7.167  0.00  0.00    +0.000 C 
ATOM     14  O   UNL     1      48.180   1.901   5.930  0.00  0.00    +0.000 OA
ATOM     15  C   UNL     1      47.234   2.864   5.414  0.00  0.00    +0.000 C 
ENDBRANCH  11  12
ENDBRANCH   9  11
ENDBRANCH   2   5
ENDBRANCH   1   2
BRANCH   1  16
ATOM     16  N   UNL     1      47.043   6.796  13.396  0.00  0.00    +0.000 N 
ATOM     17  H   UNL     1      47.353   7.758  13.511  0.00  0.00    +0.000 HD
BRANCH  16  21
ATOM     18  C   UNL     1      48.226   4.329  16.599  0.00  0.00    +0.000 A 
ATOM     19  C   UNL     1      47.334   3.834  15.643  0.00  0.00    +0.000 A 
ATOM     20  C   UNL     1      46.953   4.635  14.560  0.00  0.00    +0.000 A 
ATOM     21  C   UNL     1      47.467   5.924  14.390  0.00  0.00    +0.000 A 
ATOM     22  C   UNL     1      48.353   6.407  15.362  0.00  0.00    +0.000 A 
ATOM     23  C   UNL     1      48.729   5.622  16.460  0.00  0.00    +0.000 A 
BRANCH  18  25
ATOM     24  N   UNL     1      48.040   3.888  18.986  0.00  0.00    +0.000 N 
ATOM     25  C   UNL     1      48.608   3.535  17.793  0.00  0.00    +0.000 C 
ATOM     26  O   UNL     1      49.376   2.584  17.717  0.00  0.00    +0.000 OA
ATOM     27  H   UNL     1      48.235   3.278  19.770  0.00  0.00    +0.000 HD
ATOM     28  H   UNL     1      47.223   4.478  19.041  0.00  0.00    +0.000 HD
ENDBRANCH  18  25
ENDBRANCH  16  21
ENDBRANCH   1  16
TORSDOF 7
ENDMDL
MODEL 6
REMARK VINA RESULT:    -6.547      2.856      7.502
REMARK INTER + INTRA:         -10.153
REMARK INTER:                  -9.181
REMARK INTRA:                  -0.972
REMARK UNBOUND:                -0.927
REMARK  Name = 
REMARK  7 active torsions:
REMARK  status: ('A' for Active; 'I' for Inactive)
REMARK    1  A    between atoms: C_2  and  C_4
REMARK    2  A    between atoms: C_7  and  N_8
REMARK    3  A    between atoms: N_8  and  C_9
REMARK    4  A    between atoms: C_9  and  C_10
REMARK    5  A    between atoms: C_10  and  C_13
REMARK    6  A    between atoms: C_17  and  O_18
REMARK    7  A    between atoms: O_18  and  C_19
REMARK                            x       y       z     vdW  Elec       q    Type
REMARK                         _______ _______ _______ _____ _____    ______ ____
ROOT
ATOM      1  C   UNL     1      47.097   6.303  12.209  0.00  0.00    +0.000 C 
ENDROOT
BRANCH   1   2
ATOM      2  C   UNL     1      45.569   6.486  12.020  0.00  0.00    +0.000 C 
ATOM      3  F   UNL     1      45.062   7.119  13.122  0.00  0.00    +0.000 F 
ATOM      4  F   UNL     1      45.374   7.362  10.987  0.00  0.00    +0.000 F 
BRANCH   2   5
ATOM      5  C   UNL     1      44.885   5.157  11.776  0.00  0.00    +0.000 A 
ATOM      6  C   UNL     1      44.086   4.574  12.771  0.00  0.00    +0.000 A 
ATOM      7  C   UNL     1      43.424   3.370  12.527  0.00  0.00    +0.000 A 
ATOM      8  C   UNL     1      43.559   2.725  11.294  0.00  0.00    +0.000 A 
ATOM      9  C   UNL     1      44.377   3.278  10.312  0.00  0.00    +0.000 A 
ATOM     10  C   UNL     1      45.030   4.490  10.552  0.00  0.00    +0.000 A 
BRANCH   9  11
ATOM     11  O   UNL     1      44.578   2.750   9.060  0.00  0.00    +0.000 OA
BRANCH  11  12
ATOM     12  C   UNL     1      45.890   2.839   8.461  0.00  0.00    +0.000 C 
ATOM     13  C   UNL     1      45.988   3.290   6.997  0.00  0.00    +0.000 C 
ATOM     14  O   UNL     1      46.623   2.054   6.597  0.00  0.00    +0.000 OA
ATOM     15  C   UNL     1      46.450   1.511   7.925  0.00  0.00    +0.000 C 
ENDBRANCH  11  12
ENDBRANCH   9  11
ENDBRANCH   2   5
ENDBRANCH   1   2
BRANCH   1  16
ATOM     16  N   UNL     1      47.596   6.942  13.439  0.00  0.00    +0.000 N 
ATOM     17  H   UNL     1      48.234   7.721  13.290  0.00  0.00    +0.000 HD
BRANCH  16  21
ATOM     18  C   UNL     1      48.394   4.537  16.803  0.00  0.00    +0.000 A 
ATOM     19  C   UNL     1      48.996   5.793  16.698  0.00  0.00    +0.000 A 
ATOM     20  C   UNL     1      48.720   6.613  15.598  0.00  0.00    +0.000 A 
ATOM     21  C   UNL     1      47.824   6.216  14.600  0.00  0.00    +0.000 A 
ATOM     22  C   UNL     1      47.235   4.950  14.717  0.00  0.00    +0.000 A 
ATOM     23  C   UNL     1      47.518   4.113  15.805  0.00  0.00    +0.000 A 
BRANCH  18  25
ATOM     24  N   UNL     1      48.328   4.003  19.177  0.00  0.00    +0.000 N 
ATOM     25  C   UNL     1      48.707   3.614  17.922  0.00  0.00    +0.000 C 
ATOM     26  O   UNL     1      49.255   2.535  17.734  0.00  0.00    +0.000 OA
ATOM     27  H   UNL     1      48.461   3.321  19.914  0.00  0.00    +0.000 HD
ATOM     28  H   UNL     1      47.657   4.740  19.334  0.00  0.00    +0.000 HD
ENDBRANCH  18  25
ENDBRANCH  16  21
ENDBRANCH   1  16
TORSDOF 7
ENDMDL
MODEL 7
REMARK VINA RESULT:    -6.531      3.821      7.573
REMARK INTER + INTRA:         -10.131
REMARK INTER:                  -9.459
REMARK INTRA:                  -0.672
REMARK UNBOUND:                -0.927
REMARK  Name = 
REMARK  7 active torsions:
REMARK  status: ('A' for Active; 'I' for Inactive)
REMARK    1  A    between atoms: C_2  and  C_4
REMARK    2  A    between atoms: C_7  and  N_8
REMARK    3  A    between atoms: N_8  and  C_9
REMARK    4  A    between atoms: C_9  and  C_10
REMARK    5  A    between atoms: C_10  and  C_13
REMARK    6  A    between atoms: C_17  and  O_18
REMARK    7  A    between atoms: O_18  and  C_19
REMARK                            x       y       z     vdW  Elec       q    Type
REMARK                         _______ _______ _______ _____ _____    ______ ____
ROOT
ATOM      1  C   UNL     1      46.033   5.437  12.430  0.00  0.00    +0.000 C 
ENDROOT
BRANCH   1   2
ATOM      2  C   UNL     1      45.059   5.668  11.247  0.00  0.00    +0.000 C 
ATOM      3  F   UNL     1      43.852   6.075  11.744  0.00  0.00    +0.000 F 
ATOM      4  F   UNL     1      45.521   6.732  10.522  0.00  0.00    +0.000 F 
BRANCH   2   5
ATOM      5  C   UNL     1      44.921   4.418  10.401  0.00  0.00    +0.000 A 
ATOM      6  C   UNL     1      44.317   3.267  10.924  0.00  0.00    +0.000 A 
ATOM      7  C   UNL     1      44.154   2.132  10.129  0.00  0.00    +0.000 A 
ATOM      8  C   UNL     1      44.603   2.127   8.804  0.00  0.00    +0.000 A 
ATOM      9  C   UNL     1      45.235   3.253   8.285  0.00  0.00    +0.000 A 
ATOM     10  C   UNL     1      45.386   4.394   9.078  0.00  0.00    +0.000 A 
BRANCH   9  11
ATOM     11  O   UNL     1      45.704   3.376   7.001  0.00  0.00    +0.000 OA
BRANCH  11  12
ATOM     12  C   UNL     1      47.109   3.163   6.740  0.00  0.00    +0.000 C 
ATOM     13  C   UNL     1      47.525   2.713   5.332  0.00  0.00    +0.000 C 
ATOM     14  O   UNL     1      48.116   1.493   5.832  0.00  0.00    +0.000 OA
ATOM     15  C   UNL     1      47.646   1.786   7.166  0.00  0.00    +0.000 C 
ENDBRANCH  11  12
ENDBRANCH   9  11
ENDBRANCH   2   5
ENDBRANCH   1   2
BRANCH   1  16
ATOM     16  N   UNL     1      46.195   6.635  13.272  0.00  0.00    +0.000 N 
ATOM     17  H   UNL     1      45.360   6.920  13.778  0.00  0.00    +0.000 HD
BRANCH  16  21
ATOM     18  C   UNL     1      48.732   9.710  11.912  0.00  0.00    +0.000 A 
ATOM     19  C   UNL     1      47.570  10.038  12.615  0.00  0.00    +0.000 A 
ATOM     20  C   UNL     1      46.732   9.025  13.095  0.00  0.00    +0.000 A 
ATOM     21  C   UNL     1      47.042   7.674  12.911  0.00  0.00    +0.000 A 
ATOM     22  C   UNL     1      48.207   7.363  12.198  0.00  0.00    +0.000 A 
ATOM     23  C   UNL     1      49.045   8.369  11.697  0.00  0.00    +0.000 A 
BRANCH  18  25
ATOM     24  N   UNL     1      50.650  11.196  12.113  0.00  0.00    +0.000 N 
ATOM     25  C   UNL     1      49.615  10.754  11.336  0.00  0.00    +0.000 C 
ATOM     26  O   UNL     1      49.448  11.186  10.203  0.00  0.00    +0.000 OA
ATOM     27  H   UNL     1      51.298  11.835  11.670  0.00  0.00    +0.000 HD
ATOM     28  H   UNL     1      50.970  10.688  12.925  0.00  0.00    +0.000 HD
ENDBRANCH  18  25
ENDBRANCH  16  21
ENDBRANCH   1  16
TORSDOF 7
ENDMDL
MODEL 8
REMARK VINA RESULT:    -6.427      3.275      4.714
REMARK INTER + INTRA:          -9.983
REMARK INTER:                  -8.813
REMARK INTRA:                  -1.170
REMARK UNBOUND:                -0.927
REMARK  Name = 
REMARK  7 active torsions:
REMARK  status: ('A' for Active; 'I' for Inactive)
REMARK    1  A    between atoms: C_2  and  C_4
REMARK    2  A    between atoms: C_7  and  N_8
REMARK    3  A    between atoms: N_8  and  C_9
REMARK    4  A    between atoms: C_9  and  C_10
REMARK    5  A    between atoms: C_10  and  C_13
REMARK    6  A    between atoms: C_17  and  O_18
REMARK    7  A    between atoms: O_18  and  C_19
REMARK                            x       y       z     vdW  Elec       q    Type
REMARK                         _______ _______ _______ _____ _____    ______ ____
ROOT
ATOM      1  C   UNL     1      46.974   8.648  12.585  0.00  0.00    +0.000 C 
ENDROOT
BRANCH   1   2
ATOM      2  C   UNL     1      48.419   8.170  12.878  0.00  0.00    +0.000 C 
ATOM      3  F   UNL     1      48.668   7.047  12.138  0.00  0.00    +0.000 F 
ATOM      4  F   UNL     1      49.282   9.114  12.391  0.00  0.00    +0.000 F 
BRANCH   2   5
ATOM      5  C   UNL     1      48.623   7.921  14.358  0.00  0.00    +0.000 A 
ATOM      6  C   UNL     1      48.564   8.982  15.273  0.00  0.00    +0.000 A 
ATOM      7  C   UNL     1      48.711   8.742  16.640  0.00  0.00    +0.000 A 
ATOM      8  C   UNL     1      48.931   7.445  17.111  0.00  0.00    +0.000 A 
ATOM      9  C   UNL     1      49.025   6.389  16.209  0.00  0.00    +0.000 A 
ATOM     10  C   UNL     1      48.865   6.627  14.841  0.00  0.00    +0.000 A 
BRANCH   9  11
ATOM     11  O   UNL     1      49.222   5.073  16.547  0.00  0.00    +0.000 OA
BRANCH  11  12
ATOM     12  C   UNL     1      48.371   4.466  17.544  0.00  0.00    +0.000 C 
ATOM     13  C   UNL     1      48.327   2.934  17.623  0.00  0.00    +0.000 C 
ATOM     14  O   UNL     1      46.907   2.901  17.355  0.00  0.00    +0.000 OA
ATOM     15  C   UNL     1      46.893   4.330  17.139  0.00  0.00    +0.000 C 
ENDBRANCH  11  12
ENDBRANCH   9  11
ENDBRANCH   2   5
ENDBRANCH   1   2
BRANCH   1  16
ATOM     16  N   UNL     1      45.954   7.774  13.189  0.00  0.00    +0.000 N 
ATOM     17  H   UNL     1      45.940   7.770  14.206  0.00  0.00    +0.000 HD
BRANCH  16  21
ATOM     18  C   UNL     1      44.558   4.158  11.541  0.00  0.00    +0.000 A 
ATOM     19  C   UNL     1      44.818   5.242  10.698  0.00  0.00    +0.000 A 
ATOM     20  C   UNL     1      45.307   6.440  11.230  0.00  0.00    +0.000 A 
ATOM     21  C   UNL     1      45.571   6.578  12.596  0.00  0.00    +0.000 A 
ATOM     22  C   UNL     1      45.297   5.483  13.427  0.00  0.00    +0.000 A 
ATOM     23  C   UNL     1      44.790   4.284  12.909  0.00  0.00    +0.000 A 
BRANCH  18  25
ATOM     24  N   UNL     1      44.614   2.305   9.962  0.00  0.00    +0.000 N 
ATOM     25  C   UNL     1      43.983   2.890  11.025  0.00  0.00    +0.000 C 
ATOM     26  O   UNL     1      43.003   2.370  11.541  0.00  0.00    +0.000 OA
ATOM     27  H   UNL     1      44.269   1.395   9.685  0.00  0.00    +0.000 HD
ATOM     28  H   UNL     1      45.553   2.557   9.686  0.00  0.00    +0.000 HD
ENDBRANCH  18  25
ENDBRANCH  16  21
ENDBRANCH   1  16
TORSDOF 7
ENDMDL
MODEL 9
REMARK VINA RESULT:    -6.171      3.524      5.313
REMARK INTER + INTRA:          -9.623
REMARK INTER:                  -8.584
REMARK INTRA:                  -1.039
REMARK UNBOUND:                -0.927
REMARK  Name = 
REMARK  7 active torsions:
REMARK  status: ('A' for Active; 'I' for Inactive)
REMARK    1  A    between atoms: C_2  and  C_4
REMARK    2  A    between atoms: C_7  and  N_8
REMARK    3  A    between atoms: N_8  and  C_9
REMARK    4  A    between atoms: C_9  and  C_10
REMARK    5  A    between atoms: C_10  and  C_13
REMARK    6  A    between atoms: C_17  and  O_18
REMARK    7  A    between atoms: O_18  and  C_19
REMARK                            x       y       z     vdW  Elec       q    Type
REMARK                         _______ _______ _______ _____ _____    ______ ____
ROOT
ATOM      1  C   UNL     1      49.105   7.356  12.458  0.00  0.00    +0.000 C 
ENDROOT
BRANCH   1   2
ATOM      2  C   UNL     1      49.459   8.316  13.623  0.00  0.00    +0.000 C 
ATOM      3  F   UNL     1      50.306   9.282  13.154  0.00  0.00    +0.000 F 
ATOM      4  F   UNL     1      48.320   8.986  13.978  0.00  0.00    +0.000 F 
BRANCH   2   5
ATOM      5  C   UNL     1      50.064   7.561  14.789  0.00  0.00    +0.000 A 
ATOM      6  C   UNL     1      51.435   7.656  15.065  0.00  0.00    +0.000 A 
ATOM      7  C   UNL     1      51.981   6.993  16.165  0.00  0.00    +0.000 A 
ATOM      8  C   UNL     1      51.169   6.218  16.997  0.00  0.00    +0.000 A 
ATOM      9  C   UNL     1      49.812   6.089  16.713  0.00  0.00    +0.000 A 
ATOM     10  C   UNL     1      49.263   6.763  15.619  0.00  0.00    +0.000 A 
BRANCH   9  11
ATOM     11  O   UNL     1      48.911   5.371  17.460  0.00  0.00    +0.000 OA
BRANCH  11  12
ATOM     12  C   UNL     1      48.485   4.072  16.993  0.00  0.00    +0.000 C 
ATOM     13  C   UNL     1      47.080   3.945  16.389  0.00  0.00    +0.000 C 
ATOM     14  O   UNL     1      46.674   2.979  17.385  0.00  0.00    +0.000 OA
ATOM     15  C   UNL     1      47.928   3.141  18.084  0.00  0.00    +0.000 C 
ENDBRANCH  11  12
ENDBRANCH   9  11
ENDBRANCH   2   5
ENDBRANCH   1   2
BRANCH   1  16
ATOM     16  N   UNL     1      47.737   7.558  11.953  0.00  0.00    +0.000 N 
ATOM     17  H   UNL     1      47.350   8.484  12.119  0.00  0.00    +0.000 HD
BRANCH  16  21
ATOM     18  C   UNL     1      45.041   4.332  11.692  0.00  0.00    +0.000 A 
ATOM     19  C   UNL     1      45.770   4.525  12.868  0.00  0.00    +0.000 A 
ATOM     20  C   UNL     1      46.650   5.608  12.977  0.00  0.00    +0.000 A 
ATOM     21  C   UNL     1      46.803   6.530  11.938  0.00  0.00    +0.000 A 
ATOM     22  C   UNL     1      46.070   6.318  10.762  0.00  0.00    +0.000 A 
ATOM     23  C   UNL     1      45.199   5.227  10.635  0.00  0.00    +0.000 A 
BRANCH  18  25
ATOM     24  N   UNL     1      43.782   2.476  12.640  0.00  0.00    +0.000 N 
ATOM     25  C   UNL     1      44.143   3.164  11.514  0.00  0.00    +0.000 C 
ATOM     26  O   UNL     1      43.717   2.840  10.413  0.00  0.00    +0.000 OA
ATOM     27  H   UNL     1      43.095   1.744  12.513  0.00  0.00    +0.000 HD
ATOM     28  H   UNL     1      43.895   2.861  13.567  0.00  0.00    +0.000 HD
ENDBRANCH  18  25
ENDBRANCH  16  21
ENDBRANCH   1  16
TORSDOF 7
ENDMDL
