MODEL 1
REMARK VINA RESULT:    -7.836      0.000      0.000
REMARK INTER + INTRA:         -10.629
REMARK INTER:                  -9.898
REMARK INTRA:                  -0.732
REMARK UNBOUND:                -0.732
REMARK  Name = 
REMARK  7 active torsions:
REMARK  status: ('A' for Active; 'I' for Inactive)
REMARK    1  A    between atoms: C_1  and  O_2
REMARK    2  A    between atoms: O_2  and  C_3
REMARK    3  A    between atoms: N_9  and  C_10
REMARK    4  A    between atoms: C_10  and  C_11
REMARK    5  A    between atoms: C_14  and  C_15
REMARK    6  A    between atoms: C_15  and  C_16
REMARK    7  A    between atoms: C_15  and  N_17
REMARK                            x       y       z     vdW  Elec       q    Type
REMARK                         _______ _______ _______ _____ _____    ______ ____
ROOT
ATOM      1  C   UNL     1      43.937   4.886  10.794  0.00  0.00    +0.000 C 
ENDROOT
BRANCH   1   8
ATOM      2  C   UNL     1      47.090   4.340  14.102  0.00  0.00    +0.000 A 
ATOM      3  C   UNL     1      47.563   5.596  14.471  0.00  0.00    +0.000 A 
ATOM      4  N   UNL     1      47.235   6.769  13.888  0.00  0.00    +0.000 NA
ATOM      5  C   UNL     1      46.345   6.671  12.874  0.00  0.00    +0.000 A 
ATOM      6  C   UNL     1      45.815   7.710  12.082  0.00  0.00    +0.000 A 
ATOM      7  C   UNL     1      44.922   7.142  11.205  0.00  0.00    +0.000 A 
ATOM      8  N   UNL     1      44.889   5.784  11.443  0.00  0.00    +0.000 N 
ATOM      9  C   UNL     1      45.788   5.464  12.444  0.00  0.00    +0.000 A 
ATOM     10  C   UNL     1      46.184   4.257  13.040  0.00  0.00    +0.000 A 
BRANCH   2  12
ATOM     11  C   UNL     1      47.797   3.203  16.066  0.00  0.00    +0.000 C 
ATOM     12  O   UNL     1      47.419   3.148  14.693  0.00  0.00    +0.000 OA
ENDBRANCH   2  12
ENDBRANCH   1   8
BRANCH   1  13
ATOM     13  C   UNL     1      44.618   4.002   9.782  0.00  0.00    +0.000 A 
ATOM     14  C   UNL     1      44.516   2.610   9.872  0.00  0.00    +0.000 A 
ATOM     15  C   UNL     1      45.228   1.791   8.994  0.00  0.00    +0.000 A 
ATOM     16  C   UNL     1      46.058   2.337   8.002  0.00  0.00    +0.000 A 
ATOM     17  C   UNL     1      46.114   3.733   7.884  0.00  0.00    +0.000 A 
ATOM     18  C   UNL     1      45.405   4.555   8.763  0.00  0.00    +0.000 A 
BRANCH  16  19
ATOM     19  C   UNL     1      46.805   1.408   7.063  0.00  0.00    +0.000 C 
ATOM     20  C   UNL     1      46.826  -0.063   7.490  0.00  0.00    +0.000 C 
BRANCH  19  21
ATOM     21  N   UNL     1      48.182   1.875   6.891  0.00  0.00    +0.000 NA
ATOM     22  H   UNL     1      48.471   2.351   7.745  0.00  0.00    +0.000 HD
ATOM     23  H   UNL     1      48.193   2.589   6.164  0.00  0.00    +0.000 HD
ENDBRANCH  19  21
ENDBRANCH  16  19
ENDBRANCH   1  13
TORSDOF 5
ENDMDL
MODEL 2
REMARK VINA RESULT:    -7.556      2.247      3.593
REMARK INTER + INTRA:         -10.275
REMARK INTER:                  -9.584
REMARK INTRA:                  -0.691
REMARK UNBOUND:                -0.732
REMARK  Name = 
REMARK  7 active torsions:
REMARK  status: ('A' for Active; 'I' for Inactive)
REMARK    1  A    between atoms: C_1  and  O_2
REMARK    2  A    between atoms: O_2  and  C_3
REMARK    3  A    between atoms: N_9  and  C_10
REMARK    4  A    between atoms: C_10  and  C_11
REMARK    5  A    between atoms: C_14  and  C_15
REMARK    6  A    between atoms: C_15  and  C_16
REMARK    7  A    between atoms: C_15  and  N_17
REMARK                            x       y       z     vdW  Elec       q    Type
REMARK                         _______ _______ _______ _____ _____    ______ ____
ROOT
ATOM      1  C   UNL     1      43.785   4.473  10.696  0.00  0.00    +0.000 C 
ENDROOT
BRANCH   1   8
ATOM      2  C   UNL     1      44.909   8.837  11.626  0.00  0.00    +0.000 A 
ATOM      3  C   UNL     1      45.892   8.838  12.612  0.00  0.00    +0.000 A 
ATOM      4  N   UNL     1      46.362   7.753  13.264  0.00  0.00    +0.000 NA
ATOM      5  C   UNL     1      45.818   6.577  12.875  0.00  0.00    +0.000 A 
ATOM      6  C   UNL     1      46.105   5.285  13.364  0.00  0.00    +0.000 A 
ATOM      7  C   UNL     1      45.340   4.397  12.647  0.00  0.00    +0.000 A 
ATOM      8  N   UNL     1      44.598   5.110  11.729  0.00  0.00    +0.000 N 
ATOM      9  C   UNL     1      44.849   6.462  11.876  0.00  0.00    +0.000 A 
ATOM     10  C   UNL     1      44.347   7.613  11.250  0.00  0.00    +0.000 A 
BRANCH   2  12
ATOM     11  C   UNL     1      43.083   9.868  10.507  0.00  0.00    +0.000 C 
ATOM     12  O   UNL     1      44.432   9.936  10.961  0.00  0.00    +0.000 OA
ENDBRANCH   2  12
ENDBRANCH   1   8
BRANCH   1  13
ATOM     13  C   UNL     1      44.644   3.837   9.634  0.00  0.00    +0.000 A 
ATOM     14  C   UNL     1      44.721   2.445   9.522  0.00  0.00    +0.000 A 
ATOM     15  C   UNL     1      45.593   1.856   8.605  0.00  0.00    +0.000 A 
ATOM     16  C   UNL     1      46.409   2.640   7.774  0.00  0.00    +0.000 A 
ATOM     17  C   UNL     1      46.289   4.034   7.854  0.00  0.00    +0.000 A 
ATOM     18  C   UNL     1      45.418   4.626   8.773  0.00  0.00    +0.000 A 
BRANCH  16  19
ATOM     19  C   UNL     1      47.335   1.956   6.783  0.00  0.00    +0.000 C 
ATOM     20  C   UNL     1      47.279   2.512   5.357  0.00  0.00    +0.000 C 
BRANCH  19  21
ATOM     21  N   UNL     1      47.054   0.520   6.747  0.00  0.00    +0.000 NA
ATOM     22  H   UNL     1      47.730   0.073   6.129  0.00  0.00    +0.000 HD
ATOM     23  H   UNL     1      46.146   0.379   6.306  0.00  0.00    +0.000 HD
ENDBRANCH  19  21
ENDBRANCH  16  19
ENDBRANCH   1  13
TORSDOF 5
ENDMDL
MODEL 3
REMARK VINA RESULT:    -6.926      1.988      3.049
REMARK INTER + INTRA:          -9.480
REMARK INTER:                  -8.768
REMARK INTRA:                  -0.711
REMARK UNBOUND:                -0.732
REMARK  Name = 
REMARK  7 active torsions:
REMARK  status: ('A' for Active; 'I' for Inactive)
REMARK    1  A    between atoms: C_1  and  O_2
REMARK    2  A    between atoms: O_2  and  C_3
REMARK    3  A    between atoms: N_9  and  C_10
REMARK    4  A    between atoms: C_10  and  C_11
REMARK    5  A    between atoms: C_14  and  C_15
REMARK    6  A    between atoms: C_15  and  C_16
REMARK    7  A    between atoms: C_15  and  N_17
REMARK                            x       y       z     vdW  Elec       q    Type
REMARK                         _______ _______ _______ _____ _____    ______ ____
ROOT
ATOM      1  C   UNL     1      44.568   5.212  10.929  0.00  0.00    +0.000 C 
ENDROOT
BRANCH   1   8
ATOM      2  C   UNL     1      48.391   7.499  12.083  0.00  0.00    +0.000 A 
ATOM      3  C   UNL     1      48.868   6.983  13.284  0.00  0.00    +0.000 A 
ATOM      4  N   UNL     1      48.259   6.045  14.041  0.00  0.00    +0.000 NA
ATOM      5  C   UNL     1      47.096   5.575  13.535  0.00  0.00    +0.000 A 
ATOM      6  C   UNL     1      46.240   4.599  14.090  0.00  0.00    +0.000 A 
ATOM      7  C   UNL     1      45.202   4.417  13.209  0.00  0.00    +0.000 A 
ATOM      8  N   UNL     1      45.401   5.251  12.129  0.00  0.00    +0.000 N 
ATOM      9  C   UNL     1      46.544   6.003  12.326  0.00  0.00    +0.000 A 
ATOM     10  C   UNL     1      47.178   7.013  11.585  0.00  0.00    +0.000 A 
BRANCH   2  12
ATOM     11  C   UNL     1      49.247   9.712  11.929  0.00  0.00    +0.000 C 
ATOM     12  O   UNL     1      49.008   8.450  11.312  0.00  0.00    +0.000 OA
ENDBRANCH   2  12
ENDBRANCH   1   8
BRANCH   1  13
ATOM     13  C   UNL     1      45.202   4.377   9.847  0.00  0.00    +0.000 A 
ATOM     14  C   UNL     1      45.893   4.985   8.794  0.00  0.00    +0.000 A 
ATOM     15  C   UNL     1      46.393   4.218   7.741  0.00  0.00    +0.000 A 
ATOM     16  C   UNL     1      46.219   2.825   7.711  0.00  0.00    +0.000 A 
ATOM     17  C   UNL     1      45.571   2.217   8.795  0.00  0.00    +0.000 A 
ATOM     18  C   UNL     1      45.068   2.983   9.849  0.00  0.00    +0.000 A 
BRANCH  16  19
ATOM     19  C   UNL     1      46.789   2.029   6.550  0.00  0.00    +0.000 C 
ATOM     20  C   UNL     1      47.105   0.564   6.864  0.00  0.00    +0.000 C 
BRANCH  19  21
ATOM     21  N   UNL     1      48.000   2.680   6.047  0.00  0.00    +0.000 NA
ATOM     22  H   UNL     1      48.578   1.977   5.587  0.00  0.00    +0.000 HD
ATOM     23  H   UNL     1      48.547   3.005   6.842  0.00  0.00    +0.000 HD
ENDBRANCH  19  21
ENDBRANCH  16  19
ENDBRANCH   1  13
TORSDOF 5
ENDMDL
MODEL 4
REMARK VINA RESULT:    -6.760      2.675      6.365
REMARK INTER + INTRA:          -9.270
REMARK INTER:                  -8.723
REMARK INTRA:                  -0.547
REMARK UNBOUND:                -0.732
REMARK  Name = 
REMARK  7 active torsions:
REMARK  status: ('A' for Active; 'I' for Inactive)
REMARK    1  A    between atoms: C_1  and  O_2
REMARK    2  A    between atoms: O_2  and  C_3
REMARK    3  A    between atoms: N_9  and  C_10
REMARK    4  A    between atoms: C_10  and  C_11
REMARK    5  A    between atoms: C_14  and  C_15
REMARK    6  A    between atoms: C_15  and  C_16
REMARK    7  A    between atoms: C_15  and  N_17
REMARK                            x       y       z     vdW  Elec       q    Type
REMARK                         _______ _______ _______ _____ _____    ______ ____
ROOT
ATOM      1  C   UNL     1      44.145   6.345  12.079  0.00  0.00    +0.000 C 
ENDROOT
BRANCH   1   8
ATOM      2  C   UNL     1      45.392   3.853   8.417  0.00  0.00    +0.000 A 
ATOM      3  C   UNL     1      44.867   2.571   8.557  0.00  0.00    +0.000 A 
ATOM      4  N   UNL     1      44.198   2.102   9.632  0.00  0.00    +0.000 NA
ATOM      5  C   UNL     1      44.022   3.000  10.628  0.00  0.00    +0.000 A 
ATOM      6  C   UNL     1      43.367   2.808  11.863  0.00  0.00    +0.000 A 
ATOM      7  C   UNL     1      43.402   4.006  12.535  0.00  0.00    +0.000 A 
ATOM      8  N   UNL     1      44.056   4.926  11.743  0.00  0.00    +0.000 N 
ATOM      9  C   UNL     1      44.482   4.318  10.576  0.00  0.00    +0.000 A 
ATOM     10  C   UNL     1      45.214   4.761   9.465  0.00  0.00    +0.000 A 
BRANCH   2  12
ATOM     11  C   UNL     1      46.653   3.360   6.463  0.00  0.00    +0.000 C 
ATOM     12  O   UNL     1      46.070   4.332   7.327  0.00  0.00    +0.000 OA
ENDBRANCH   2  12
ENDBRANCH   1   8
BRANCH   1  13
ATOM     13  C   UNL     1      45.573   6.768  12.307  0.00  0.00    +0.000 A 
ATOM     14  C   UNL     1      45.985   8.069  12.003  0.00  0.00    +0.000 A 
ATOM     15  C   UNL     1      47.328   8.430  12.120  0.00  0.00    +0.000 A 
ATOM     16  C   UNL     1      48.295   7.505  12.546  0.00  0.00    +0.000 A 
ATOM     17  C   UNL     1      47.865   6.217  12.900  0.00  0.00    +0.000 A 
ATOM     18  C   UNL     1      46.522   5.853  12.781  0.00  0.00    +0.000 A 
BRANCH  16  19
ATOM     19  C   UNL     1      49.743   7.945  12.669  0.00  0.00    +0.000 C 
ATOM     20  C   UNL     1      50.594   7.724  11.416  0.00  0.00    +0.000 C 
BRANCH  19  21
ATOM     21  N   UNL     1      50.375   7.265  13.801  0.00  0.00    +0.000 NA
ATOM     22  H   UNL     1      50.796   6.399  13.465  0.00  0.00    +0.000 HD
ATOM     23  H   UNL     1      49.647   6.978  14.454  0.00  0.00    +0.000 HD
ENDBRANCH  19  21
ENDBRANCH  16  19
ENDBRANCH   1  13
TORSDOF 5
ENDMDL
MODEL 5
REMARK VINA RESULT:    -6.121      1.931      2.548
REMARK INTER + INTRA:          -8.463
REMARK INTER:                  -8.012
REMARK INTRA:                  -0.450
REMARK UNBOUND:                -0.732
REMARK  Name = 
REMARK  7 active torsions:
REMARK  status: ('A' for Active; 'I' for Inactive)
REMARK    1  A    between atoms: C_1  and  O_2
REMARK    2  A    between atoms: O_2  and  C_3
REMARK    3  A    between atoms: N_9  and  C_10
REMARK    4  A    between atoms: C_10  and  C_11
REMARK    5  A    between atoms: C_14  and  C_15
REMARK    6  A    between atoms: C_15  and  C_16
REMARK    7  A    between atoms: C_15  and  N_17
REMARK                            x       y       z     vdW  Elec       q    Type
REMARK                         _______ _______ _______ _____ _____    ______ ____
ROOT
ATOM      1  C   UNL     1      44.436   5.949  12.057  0.00  0.00    +0.000 C 
ENDROOT
BRANCH   1   8
ATOM      2  C   UNL     1      48.321   7.179  14.194  0.00  0.00    +0.000 A 
ATOM      3  C   UNL     1      48.428   8.566  14.151  0.00  0.00    +0.000 A 
ATOM      4  N   UNL     1      47.593   9.405  13.500  0.00  0.00    +0.000 NA
ATOM      5  C   UNL     1      46.560   8.802  12.869  0.00  0.00    +0.000 A 
ATOM      6  C   UNL     1      45.532   9.407  12.116  0.00  0.00    +0.000 A 
ATOM      7  C   UNL     1      44.686   8.407  11.699  0.00  0.00    +0.000 A 
ATOM      8  N   UNL     1      45.167   7.208  12.182  0.00  0.00    +0.000 N 
ATOM      9  C   UNL     1      46.344   7.422  12.875  0.00  0.00    +0.000 A 
ATOM     10  C   UNL     1      47.256   6.573  13.521  0.00  0.00    +0.000 A 
BRANCH   2  12
ATOM     11  C   UNL     1      50.209   6.927  15.617  0.00  0.00    +0.000 C 
ATOM     12  O   UNL     1      49.165   6.325  14.855  0.00  0.00    +0.000 OA
ENDBRANCH   2  12
ENDBRANCH   1   8
BRANCH   1  13
ATOM     13  C   UNL     1      44.894   5.163  10.856  0.00  0.00    +0.000 A 
ATOM     14  C   UNL     1      45.765   5.736   9.923  0.00  0.00    +0.000 A 
ATOM     15  C   UNL     1      46.109   5.045   8.761  0.00  0.00    +0.000 A 
ATOM     16  C   UNL     1      45.596   3.764   8.499  0.00  0.00    +0.000 A 
ATOM     17  C   UNL     1      44.765   3.176   9.463  0.00  0.00    +0.000 A 
ATOM     18  C   UNL     1      44.417   3.866  10.626  0.00  0.00    +0.000 A 
BRANCH  16  19
ATOM     19  C   UNL     1      46.006   3.045   7.226  0.00  0.00    +0.000 C 
ATOM     20  C   UNL     1      46.824   1.767   7.441  0.00  0.00    +0.000 C 
BRANCH  19  21
ATOM     21  N   UNL     1      46.760   3.954   6.361  0.00  0.00    +0.000 NA
ATOM     22  H   UNL     1      46.193   4.163   5.540  0.00  0.00    +0.000 HD
ATOM     23  H   UNL     1      47.579   3.460   6.009  0.00  0.00    +0.000 HD
ENDBRANCH  19  21
ENDBRANCH  16  19
ENDBRANCH   1  13
TORSDOF 5
ENDMDL
MODEL 6
REMARK VINA RESULT:    -5.988      1.550      2.527
REMARK INTER + INTRA:          -8.295
REMARK INTER:                  -7.614
REMARK INTRA:                  -0.681
REMARK UNBOUND:                -0.732
REMARK  Name = 
REMARK  7 active torsions:
REMARK  status: ('A' for Active; 'I' for Inactive)
REMARK    1  A    between atoms: C_1  and  O_2
REMARK    2  A    between atoms: O_2  and  C_3
REMARK    3  A    between atoms: N_9  and  C_10
REMARK    4  A    between atoms: C_10  and  C_11
REMARK    5  A    between atoms: C_14  and  C_15
REMARK    6  A    between atoms: C_15  and  C_16
REMARK    7  A    between atoms: C_15  and  N_17
REMARK                            x       y       z     vdW  Elec       q    Type
REMARK                         _______ _______ _______ _____ _____    ______ ____
ROOT
ATOM      1  C   UNL     1      45.255   6.468  12.531  0.00  0.00    +0.000 C 
ENDROOT
BRANCH   1   8
ATOM      2  C   UNL     1      47.529   4.359  15.930  0.00  0.00    +0.000 A 
ATOM      3  C   UNL     1      48.650   5.120  16.250  0.00  0.00    +0.000 A 
ATOM      4  N   UNL     1      49.063   6.232  15.603  0.00  0.00    +0.000 NA
ATOM      5  C   UNL     1      48.273   6.618  14.576  0.00  0.00    +0.000 A 
ATOM      6  C   UNL     1      48.441   7.729  13.722  0.00  0.00    +0.000 A 
ATOM      7  C   UNL     1      47.376   7.743  12.854  0.00  0.00    +0.000 A 
ATOM      8  N   UNL     1      46.559   6.675  13.157  0.00  0.00    +0.000 N 
ATOM      9  C   UNL     1      47.112   5.943  14.192  0.00  0.00    +0.000 A 
ATOM     10  C   UNL     1      46.734   4.765  14.854  0.00  0.00    +0.000 A 
BRANCH   2  12
ATOM     11  C   UNL     1      47.781   2.911  17.799  0.00  0.00    +0.000 C 
ATOM     12  O   UNL     1      47.106   3.232  16.585  0.00  0.00    +0.000 OA
ENDBRANCH   2  12
ENDBRANCH   1   8
BRANCH   1  13
ATOM     13  C   UNL     1      45.342   5.491  11.388  0.00  0.00    +0.000 A 
ATOM     14  C   UNL     1      45.820   5.900  10.139  0.00  0.00    +0.000 A 
ATOM     15  C   UNL     1      45.807   5.022   9.054  0.00  0.00    +0.000 A 
ATOM     16  C   UNL     1      45.319   3.712   9.187  0.00  0.00    +0.000 A 
ATOM     17  C   UNL     1      44.890   3.292  10.454  0.00  0.00    +0.000 A 
ATOM     18  C   UNL     1      44.900   4.170  11.541  0.00  0.00    +0.000 A 
BRANCH  16  19
ATOM     19  C   UNL     1      45.333   2.788   7.982  0.00  0.00    +0.000 C 
ATOM     20  C   UNL     1      46.006   1.432   8.216  0.00  0.00    +0.000 C 
BRANCH  19  21
ATOM     21  N   UNL     1      45.981   3.454   6.851  0.00  0.00    +0.000 NA
ATOM     22  H   UNL     1      46.948   3.134   6.798  0.00  0.00    +0.000 HD
ATOM     23  H   UNL     1      46.036   4.451   7.051  0.00  0.00    +0.000 HD
ENDBRANCH  19  21
ENDBRANCH  16  19
ENDBRANCH   1  13
TORSDOF 5
ENDMDL
MODEL 7
REMARK VINA RESULT:    -5.714      2.645      7.175
REMARK INTER + INTRA:          -7.948
REMARK INTER:                  -7.296
REMARK INTRA:                  -0.652
REMARK UNBOUND:                -0.732
REMARK  Name = 
REMARK  7 active torsions:
REMARK  status: ('A' for Active; 'I' for Inactive)
REMARK    1  A    between atoms: C_1  and  O_2
REMARK    2  A    between atoms: O_2  and  C_3
REMARK    3  A    between atoms: N_9  and  C_10
REMARK    4  A    between atoms: C_10  and  C_11
REMARK    5  A    between atoms: C_14  and  C_15
REMARK    6  A    between atoms: C_15  and  C_16
REMARK    7  A    between atoms: C_15  and  N_17
REMARK                            x       y       z     vdW  Elec       q    Type
REMARK                         _______ _______ _______ _____ _____    ______ ____
ROOT
ATOM      1  C   UNL     1      47.784   5.874  13.159  0.00  0.00    +0.000 C 
ENDROOT
BRANCH   1   8
ATOM      2  C   UNL     1      44.106   4.039  11.090  0.00  0.00    +0.000 A 
ATOM      3  C   UNL     1      43.214   5.063  10.786  0.00  0.00    +0.000 A 
ATOM      4  N   UNL     1      43.351   6.362  11.132  0.00  0.00    +0.000 NA
ATOM      5  C   UNL     1      44.483   6.651  11.814  0.00  0.00    +0.000 A 
ATOM      6  C   UNL     1      44.902   7.906  12.305  0.00  0.00    +0.000 A 
ATOM      7  C   UNL     1      46.130   7.725  12.895  0.00  0.00    +0.000 A 
ATOM      8  N   UNL     1      46.474   6.395  12.775  0.00  0.00    +0.000 N 
ATOM      9  C   UNL     1      45.455   5.705  12.144  0.00  0.00    +0.000 A 
ATOM     10  C   UNL     1      45.262   4.356  11.810  0.00  0.00    +0.000 A 
BRANCH   2  12
ATOM     11  C   UNL     1      44.522   2.340   9.480  0.00  0.00    +0.000 C 
ATOM     12  O   UNL     1      43.971   2.721  10.738  0.00  0.00    +0.000 OA
ENDBRANCH   2  12
ENDBRANCH   1   8
BRANCH   1  13
ATOM     13  C   UNL     1      47.843   5.566  14.632  0.00  0.00    +0.000 A 
ATOM     14  C   UNL     1      48.634   6.339  15.488  0.00  0.00    +0.000 A 
ATOM     15  C   UNL     1      48.767   5.993  16.833  0.00  0.00    +0.000 A 
ATOM     16  C   UNL     1      48.112   4.869  17.362  0.00  0.00    +0.000 A 
ATOM     17  C   UNL     1      47.279   4.130  16.511  0.00  0.00    +0.000 A 
ATOM     18  C   UNL     1      47.146   4.473  15.163  0.00  0.00    +0.000 A 
BRANCH  16  19
ATOM     19  C   UNL     1      48.277   4.536  18.834  0.00  0.00    +0.000 C 
ATOM     20  C   UNL     1      49.527   5.126  19.494  0.00  0.00    +0.000 C 
BRANCH  19  21
ATOM     21  N   UNL     1      48.280   3.084  19.019  0.00  0.00    +0.000 NA
ATOM     22  H   UNL     1      49.186   2.722  18.723  0.00  0.00    +0.000 HD
ATOM     23  H   UNL     1      47.601   2.675  18.379  0.00  0.00    +0.000 HD
ENDBRANCH  19  21
ENDBRANCH  16  19
ENDBRANCH   1  13
TORSDOF 5
ENDMDL
MODEL 8
REMARK VINA RESULT:    -5.552      2.700      4.168
REMARK INTER + INTRA:          -7.744
REMARK INTER:                  -7.056
REMARK INTRA:                  -0.688
REMARK UNBOUND:                -0.732
REMARK  Name = 
REMARK  7 active torsions:
REMARK  status: ('A' for Active; 'I' for Inactive)
REMARK    1  A    between atoms: C_1  and  O_2
REMARK    2  A    between atoms: O_2  and  C_3
REMARK    3  A    between atoms: N_9  and  C_10
REMARK    4  A    between atoms: C_10  and  C_11
REMARK    5  A    between atoms: C_14  and  C_15
REMARK    6  A    between atoms: C_15  and  C_16
REMARK    7  A    between atoms: C_15  and  N_17
REMARK                            x       y       z     vdW  Elec       q    Type
REMARK                         _______ _______ _______ _____ _____    ______ ____
ROOT
ATOM      1  C   UNL     1      45.686   8.087  12.912  0.00  0.00    +0.000 C 
ENDROOT
BRANCH   1   8
ATOM      2  C   UNL     1      49.691   7.073  14.939  0.00  0.00    +0.000 A 
ATOM      3  C   UNL     1      50.671   7.919  14.427  0.00  0.00    +0.000 A 
ATOM      4  N   UNL     1      50.503   8.813  13.429  0.00  0.00    +0.000 NA
ATOM      5  C   UNL     1      49.248   8.876  12.928  0.00  0.00    +0.000 A 
ATOM      6  C   UNL     1      48.768   9.705  11.893  0.00  0.00    +0.000 A 
ATOM      7  C   UNL     1      47.425   9.450  11.753  0.00  0.00    +0.000 A 
ATOM      8  N   UNL     1      47.070   8.491  12.677  0.00  0.00    +0.000 N 
ATOM      9  C   UNL     1      48.187   8.094  13.389  0.00  0.00    +0.000 A 
ATOM     10  C   UNL     1      48.404   7.141  14.396  0.00  0.00    +0.000 A 
BRANCH   2  12
ATOM     11  C   UNL     1      48.678   5.755  16.639  0.00  0.00    +0.000 C 
ATOM     12  O   UNL     1      49.858   6.166  15.953  0.00  0.00    +0.000 OA
ENDBRANCH   2  12
ENDBRANCH   1   8
BRANCH   1  13
ATOM     13  C   UNL     1      45.431   6.686  12.419  0.00  0.00    +0.000 A 
ATOM     14  C   UNL     1      45.276   6.432  11.053  0.00  0.00    +0.000 A 
ATOM     15  C   UNL     1      44.941   5.154  10.605  0.00  0.00    +0.000 A 
ATOM     16  C   UNL     1      44.754   4.094  11.507  0.00  0.00    +0.000 A 
ATOM     17  C   UNL     1      44.963   4.344  12.871  0.00  0.00    +0.000 A 
ATOM     18  C   UNL     1      45.296   5.623  13.322  0.00  0.00    +0.000 A 
BRANCH  16  19
ATOM     19  C   UNL     1      44.401   2.717  10.974  0.00  0.00    +0.000 C 
ATOM     20  C   UNL     1      44.412   2.592   9.448  0.00  0.00    +0.000 C 
BRANCH  19  21
ATOM     21  N   UNL     1      43.087   2.311  11.476  0.00  0.00    +0.000 NA
ATOM     22  H   UNL     1      43.221   1.611  12.206  0.00  0.00    +0.000 HD
ATOM     23  H   UNL     1      42.589   1.832  10.728  0.00  0.00    +0.000 HD
ENDBRANCH  19  21
ENDBRANCH  16  19
ENDBRANCH   1  13
TORSDOF 5
ENDMDL
MODEL 9
REMARK VINA RESULT:    -5.316      3.716      5.496
REMARK INTER + INTRA:          -7.446
REMARK INTER:                  -6.736
REMARK INTRA:                  -0.710
REMARK UNBOUND:                -0.732
REMARK  Name = 
REMARK  7 active torsions:
REMARK  status: ('A' for Active; 'I' for Inactive)
REMARK    1  A    between atoms: C_1  and  O_2
REMARK    2  A    between atoms: O_2  and  C_3
REMARK    3  A    between atoms: N_9  and  C_10
REMARK    4  A    between atoms: C_10  and  C_11
REMARK    5  A    between atoms: C_14  and  C_15
REMARK    6  A    between atoms: C_15  and  C_16
REMARK    7  A    between atoms: C_15  and  N_17
REMARK                            x       y       z     vdW  Elec       q    Type
REMARK                         _______ _______ _______ _____ _____    ______ ____
ROOT
ATOM      1  C   UNL     1      48.546   6.823  13.711  0.00  0.00    +0.000 C 
ENDROOT
BRANCH   1   8
ATOM      2  C   UNL     1      48.760   5.256  18.032  0.00  0.00    +0.000 A 
ATOM      3  C   UNL     1      48.662   6.340  18.900  0.00  0.00    +0.000 A 
ATOM      4  N   UNL     1      48.620   7.641  18.540  0.00  0.00    +0.000 NA
ATOM      5  C   UNL     1      48.653   7.863  17.206  0.00  0.00    +0.000 A 
ATOM      6  C   UNL     1      48.622   9.102  16.532  0.00  0.00    +0.000 A 
ATOM      7  C   UNL     1      48.638   8.836  15.184  0.00  0.00    +0.000 A 
ATOM      8  N   UNL     1      48.672   7.468  15.016  0.00  0.00    +0.000 N 
ATOM      9  C   UNL     1      48.721   6.847  16.250  0.00  0.00    +0.000 A 
ATOM     10  C   UNL     1      48.810   5.507  16.657  0.00  0.00    +0.000 A 
BRANCH   2  12
ATOM     11  C   UNL     1      49.443   3.046  17.483  0.00  0.00    +0.000 C 
ATOM     12  O   UNL     1      48.801   3.935  18.394  0.00  0.00    +0.000 OA
ENDBRANCH   2  12
ENDBRANCH   1   8
BRANCH   1  13
ATOM     13  C   UNL     1      47.118   6.436  13.425  0.00  0.00    +0.000 A 
ATOM     14  C   UNL     1      46.670   5.136  13.683  0.00  0.00    +0.000 A 
ATOM     15  C   UNL     1      45.378   4.750  13.325  0.00  0.00    +0.000 A 
ATOM     16  C   UNL     1      44.497   5.650  12.703  0.00  0.00    +0.000 A 
ATOM     17  C   UNL     1      44.935   6.966  12.496  0.00  0.00    +0.000 A 
ATOM     18  C   UNL     1      46.230   7.354  12.850  0.00  0.00    +0.000 A 
BRANCH  16  19
ATOM     19  C   UNL     1      43.096   5.190  12.341  0.00  0.00    +0.000 C 
ATOM     20  C   UNL     1      43.035   3.963  11.426  0.00  0.00    +0.000 C 
BRANCH  19  21
ATOM     21  N   UNL     1      42.357   6.288  11.717  0.00  0.00    +0.000 NA
ATOM     22  H   UNL     1      41.409   6.295  12.093  0.00  0.00    +0.000 HD
ATOM     23  H   UNL     1      42.255   6.086  10.724  0.00  0.00    +0.000 HD
ENDBRANCH  19  21
ENDBRANCH  16  19
ENDBRANCH   1  13
TORSDOF 5
ENDMDL
