MODEL 1
REMARK VINA RESULT:    -8.138      0.000      0.000
REMARK INTER + INTRA:         -10.032
REMARK INTER:                  -9.565
REMARK INTRA:                  -0.467
REMARK UNBOUND:                -0.467
REMARK  Name = 
REMARK  3 active torsions:
REMARK  status: ('A' for Active; 'I' for Inactive)
REMARK    1  A    between atoms: C_2  and  C_4
REMARK    2  A    between atoms: N_8  and  C_9
REMARK    3  A    between atoms: C_9  and  C_10
REMARK                            x       y       z     vdW  Elec       q    Type
REMARK                         _______ _______ _______ _____ _____    ______ ____
ROOT
ATOM      1  C   UNL     1      46.419   2.325   7.703  0.00  0.00    +0.000 A 
ATOM      2  C   UNL     1      45.592   1.823   8.700  0.00  0.00    +0.000 A 
ATOM      3  C   UNL     1      44.741   2.695   9.373  0.00  0.00    +0.000 A 
ATOM      4  C   UNL     1      44.733   4.052   9.052  0.00  0.00    +0.000 A 
ATOM      5  N   UNL     1      43.862   4.940   9.635  0.00  0.00    +0.000 N 
ATOM      6  N   UNL     1      45.535   4.548   8.094  0.00  0.00    +0.000 NA
ATOM      7  C   UNL     1      46.369   3.686   7.448  0.00  0.00    +0.000 A 
ATOM      8  H   UNL     1      44.012   5.884   9.297  0.00  0.00    +0.000 HD
ENDROOT
BRANCH   1  10
ATOM      9  N   UNL     1      48.490   2.045   6.470  0.00  0.00    +0.000 N 
ATOM     10  C   UNL     1      47.337   1.465   6.935  0.00  0.00    +0.000 C 
ATOM     11  O   UNL     1      47.095   0.281   6.742  0.00  0.00    +0.000 OA
ATOM     12  H   UNL     1      49.149   1.431   6.012  0.00  0.00    +0.000 HD
ATOM     13  H   UNL     1      48.833   2.928   6.816  0.00  0.00    +0.000 HD
ENDBRANCH   1  10
BRANCH   5  14
ATOM     14  C   UNL     1      43.420   4.804  11.009  0.00  0.00    +0.000 C 
BRANCH  14  15
ATOM     15  C   UNL     1      44.548   5.147  11.953  0.00  0.00    +0.000 A 
ATOM     16  C   UNL     1      45.122   4.186  12.794  0.00  0.00    +0.000 A 
ATOM     17  C   UNL     1      46.140   4.565  13.652  0.00  0.00    +0.000 A 
ATOM     18  N   UNL     1      46.641   5.816  13.709  0.00  0.00    +0.000 NA
ATOM     19  C   UNL     1      46.101   6.722  12.867  0.00  0.00    +0.000 A 
ATOM     20  C   UNL     1      45.077   6.440  11.975  0.00  0.00    +0.000 A 
ENDBRANCH  14  15
ENDBRANCH   5  14
TORSDOF 3
ENDMDL
MODEL 2
REMARK VINA RESULT:    -7.358      2.684      6.130
REMARK INTER + INTRA:          -9.116
REMARK INTER:                  -8.645
REMARK INTRA:                  -0.471
REMARK UNBOUND:                -0.467
REMARK  Name = 
REMARK  3 active torsions:
REMARK  status: ('A' for Active; 'I' for Inactive)
REMARK    1  A    between atoms: C_2  and  C_4
REMARK    2  A    between atoms: N_8  and  C_9
REMARK    3  A    between atoms: C_9  and  C_10
REMARK                            x       y       z     vdW  Elec       q    Type
REMARK                         _______ _______ _______ _____ _____    ______ ____
ROOT
ATOM      1  C   UNL     1      46.523   5.512  12.677  0.00  0.00    +0.000 A 
ATOM      2  C   UNL     1      46.357   6.160  11.459  0.00  0.00    +0.000 A 
ATOM      3  C   UNL     1      45.651   5.519  10.446  0.00  0.00    +0.000 A 
ATOM      4  C   UNL     1      45.132   4.242  10.653  0.00  0.00    +0.000 A 
ATOM      5  N   UNL     1      44.367   3.597   9.712  0.00  0.00    +0.000 N 
ATOM      6  N   UNL     1      45.294   3.605  11.826  0.00  0.00    +0.000 NA
ATOM      7  C   UNL     1      45.993   4.238  12.808  0.00  0.00    +0.000 A 
ATOM      8  H   UNL     1      44.093   2.672  10.025  0.00  0.00    +0.000 HD
ENDROOT
BRANCH   1  10
ATOM      9  N   UNL     1      47.141   7.491  13.938  0.00  0.00    +0.000 N 
ATOM     10  C   UNL     1      47.245   6.130  13.804  0.00  0.00    +0.000 C 
ATOM     11  O   UNL     1      47.887   5.457  14.598  0.00  0.00    +0.000 OA
ATOM     12  H   UNL     1      47.574   7.896  14.756  0.00  0.00    +0.000 HD
ATOM     13  H   UNL     1      46.434   8.032  13.464  0.00  0.00    +0.000 HD
ENDBRANCH   1  10
BRANCH   5  14
ATOM     14  C   UNL     1      44.586   3.762   8.289  0.00  0.00    +0.000 C 
BRANCH  14  15
ATOM     15  C   UNL     1      45.745   2.905   7.840  0.00  0.00    +0.000 A 
ATOM     16  C   UNL     1      45.818   1.542   8.153  0.00  0.00    +0.000 A 
ATOM     17  C   UNL     1      46.916   0.813   7.729  0.00  0.00    +0.000 A 
ATOM     18  N   UNL     1      47.922   1.334   6.999  0.00  0.00    +0.000 NA
ATOM     19  C   UNL     1      47.820   2.641   6.676  0.00  0.00    +0.000 A 
ATOM     20  C   UNL     1      46.763   3.455   7.056  0.00  0.00    +0.000 A 
ENDBRANCH  14  15
ENDBRANCH   5  14
TORSDOF 3
ENDMDL
MODEL 3
REMARK VINA RESULT:    -7.039      1.545      2.103
REMARK INTER + INTRA:          -8.741
REMARK INTER:                  -8.473
REMARK INTRA:                  -0.268
REMARK UNBOUND:                -0.467
REMARK  Name = 
REMARK  3 active torsions:
REMARK  status: ('A' for Active; 'I' for Inactive)
REMARK    1  A    between atoms: C_2  and  C_4
REMARK    2  A    between atoms: N_8  and  C_9
REMARK    3  A    between atoms: C_9  and  C_10
REMARK                            x       y       z     vdW  Elec       q    Type
REMARK                         _______ _______ _______ _____ _____    ______ ____
ROOT
ATOM      1  C   UNL     1      46.704   2.477   7.194  0.00  0.00    +0.000 A 
ATOM      2  C   UNL     1      46.302   3.712   7.686  0.00  0.00    +0.000 A 
ATOM      3  C   UNL     1      45.521   3.758   8.837  0.00  0.00    +0.000 A 
ATOM      4  C   UNL     1      45.143   2.576   9.474  0.00  0.00    +0.000 A 
ATOM      5  N   UNL     1      44.434   2.569  10.650  0.00  0.00    +0.000 N 
ATOM      6  N   UNL     1      45.522   1.376   9.001  0.00  0.00    +0.000 NA
ATOM      7  C   UNL     1      46.279   1.344   7.869  0.00  0.00    +0.000 A 
ATOM      8  H   UNL     1      44.231   1.624  10.957  0.00  0.00    +0.000 HD
ENDROOT
BRANCH   1  10
ATOM      9  N   UNL     1      47.363   3.280   5.000  0.00  0.00    +0.000 N 
ATOM     10  C   UNL     1      47.544   2.346   5.990  0.00  0.00    +0.000 C 
ATOM     11  O   UNL     1      48.381   1.461   5.886  0.00  0.00    +0.000 OA
ATOM     12  H   UNL     1      47.995   3.229   4.214  0.00  0.00    +0.000 HD
ATOM     13  H   UNL     1      46.874   4.148   5.155  0.00  0.00    +0.000 HD
ENDBRANCH   1  10
BRANCH   5  14
ATOM     14  C   UNL     1      43.446   3.581  10.967  0.00  0.00    +0.000 C 
BRANCH  14  15
ATOM     15  C   UNL     1      44.110   4.766  11.627  0.00  0.00    +0.000 A 
ATOM     16  C   UNL     1      43.833   6.080  11.231  0.00  0.00    +0.000 A 
ATOM     17  C   UNL     1      44.487   7.124  11.861  0.00  0.00    +0.000 A 
ATOM     18  N   UNL     1      45.369   6.954  12.867  0.00  0.00    +0.000 NA
ATOM     19  C   UNL     1      45.600   5.684  13.260  0.00  0.00    +0.000 A 
ATOM     20  C   UNL     1      44.996   4.573  12.689  0.00  0.00    +0.000 A 
ENDBRANCH  14  15
ENDBRANCH   5  14
TORSDOF 3
ENDMDL
MODEL 4
REMARK VINA RESULT:    -6.742      2.985      6.303
REMARK INTER + INTRA:          -8.391
REMARK INTER:                  -8.001
REMARK INTRA:                  -0.390
REMARK UNBOUND:                -0.467
REMARK  Name = 
REMARK  3 active torsions:
REMARK  status: ('A' for Active; 'I' for Inactive)
REMARK    1  A    between atoms: C_2  and  C_4
REMARK    2  A    between atoms: N_8  and  C_9
REMARK    3  A    between atoms: C_9  and  C_10
REMARK                            x       y       z     vdW  Elec       q    Type
REMARK                         _______ _______ _______ _____ _____    ______ ____
ROOT
ATOM      1  C   UNL     1      45.423   6.871  12.364  0.00  0.00    +0.000 A 
ATOM      2  C   UNL     1      44.377   6.632  11.482  0.00  0.00    +0.000 A 
ATOM      3  C   UNL     1      44.178   5.339  11.006  0.00  0.00    +0.000 A 
ATOM      4  C   UNL     1      45.028   4.308  11.404  0.00  0.00    +0.000 A 
ATOM      5  N   UNL     1      44.832   3.005  11.019  0.00  0.00    +0.000 N 
ATOM      6  N   UNL     1      46.047   4.532  12.251  0.00  0.00    +0.000 NA
ATOM      7  C   UNL     1      46.237   5.802  12.705  0.00  0.00    +0.000 A 
ATOM      8  H   UNL     1      45.556   2.396  11.385  0.00  0.00    +0.000 HD
ENDROOT
BRANCH   1  10
ATOM      9  N   UNL     1      46.692   8.303  13.857  0.00  0.00    +0.000 N 
ATOM     10  C   UNL     1      45.689   8.208  12.925  0.00  0.00    +0.000 C 
ATOM     11  O   UNL     1      45.063   9.192  12.559  0.00  0.00    +0.000 OA
ATOM     12  H   UNL     1      46.921   9.233  14.178  0.00  0.00    +0.000 HD
ATOM     13  H   UNL     1      47.380   7.577  13.991  0.00  0.00    +0.000 HD
ENDBRANCH   1  10
BRANCH   5  14
ATOM     14  C   UNL     1      44.279   2.651   9.727  0.00  0.00    +0.000 C 
BRANCH  14  15
ATOM     15  C   UNL     1      45.375   2.597   8.691  0.00  0.00    +0.000 A 
ATOM     16  C   UNL     1      46.023   1.399   8.366  0.00  0.00    +0.000 A 
ATOM     17  C   UNL     1      47.034   1.417   7.421  0.00  0.00    +0.000 A 
ATOM     18  N   UNL     1      47.422   2.528   6.762  0.00  0.00    +0.000 NA
ATOM     19  C   UNL     1      46.765   3.668   7.062  0.00  0.00    +0.000 A 
ATOM     20  C   UNL     1      45.742   3.752   7.995  0.00  0.00    +0.000 A 
ENDBRANCH  14  15
ENDBRANCH   5  14
TORSDOF 3
ENDMDL
MODEL 5
REMARK VINA RESULT:    -6.116      3.112      6.447
REMARK INTER + INTRA:          -7.656
REMARK INTER:                  -7.389
REMARK INTRA:                  -0.267
REMARK UNBOUND:                -0.467
REMARK  Name = 
REMARK  3 active torsions:
REMARK  status: ('A' for Active; 'I' for Inactive)
REMARK    1  A    between atoms: C_2  and  C_4
REMARK    2  A    between atoms: N_8  and  C_9
REMARK    3  A    between atoms: C_9  and  C_10
REMARK                            x       y       z     vdW  Elec       q    Type
REMARK                         _______ _______ _______ _____ _____    ______ ____
ROOT
ATOM      1  C   UNL     1      46.394   7.534  12.658  0.00  0.00    +0.000 A 
ATOM      2  C   UNL     1      46.873   6.284  12.291  0.00  0.00    +0.000 A 
ATOM      3  C   UNL     1      46.100   5.483  11.455  0.00  0.00    +0.000 A 
ATOM      4  C   UNL     1      44.858   5.933  11.008  0.00  0.00    +0.000 A 
ATOM      5  N   UNL     1      44.090   5.213  10.126  0.00  0.00    +0.000 N 
ATOM      6  N   UNL     1      44.383   7.139  11.364  0.00  0.00    +0.000 NA
ATOM      7  C   UNL     1      45.145   7.910  12.188  0.00  0.00    +0.000 A 
ATOM      8  H   UNL     1      43.213   5.682   9.928  0.00  0.00    +0.000 HD
ENDROOT
BRANCH   1  10
ATOM      9  N   UNL     1      47.034   9.791  13.281  0.00  0.00    +0.000 N 
ATOM     10  C   UNL     1      47.159   8.447  13.526  0.00  0.00    +0.000 C 
ATOM     11  O   UNL     1      47.856   8.027  14.440  0.00  0.00    +0.000 OA
ATOM     12  H   UNL     1      47.499  10.411  13.928  0.00  0.00    +0.000 HD
ATOM     13  H   UNL     1      46.292  10.173  12.714  0.00  0.00    +0.000 HD
ENDBRANCH   1  10
BRANCH   5  14
ATOM     14  C   UNL     1      44.066   3.764  10.122  0.00  0.00    +0.000 C 
BRANCH  14  15
ATOM     15  C   UNL     1      45.004   3.233   9.064  0.00  0.00    +0.000 A 
ATOM     16  C   UNL     1      45.578   4.072   8.101  0.00  0.00    +0.000 A 
ATOM     17  C   UNL     1      46.415   3.524   7.145  0.00  0.00    +0.000 A 
ATOM     18  N   UNL     1      46.740   2.216   7.099  0.00  0.00    +0.000 NA
ATOM     19  C   UNL     1      46.205   1.426   8.054  0.00  0.00    +0.000 A 
ATOM     20  C   UNL     1      45.354   1.881   9.050  0.00  0.00    +0.000 A 
ENDBRANCH  14  15
ENDBRANCH   5  14
TORSDOF 3
ENDMDL
MODEL 6
REMARK VINA RESULT:    -6.029      2.777      6.348
REMARK INTER + INTRA:          -7.554
REMARK INTER:                  -7.242
REMARK INTRA:                  -0.312
REMARK UNBOUND:                -0.467
REMARK  Name = 
REMARK  3 active torsions:
REMARK  status: ('A' for Active; 'I' for Inactive)
REMARK    1  A    between atoms: C_2  and  C_4
REMARK    2  A    between atoms: N_8  and  C_9
REMARK    3  A    between atoms: C_9  and  C_10
REMARK                            x       y       z     vdW  Elec       q    Type
REMARK                         _______ _______ _______ _____ _____    ______ ____
ROOT
ATOM      1  C   UNL     1      46.851   4.396  14.455  0.00  0.00    +0.000 A 
ATOM      2  C   UNL     1      46.619   3.345  13.577  0.00  0.00    +0.000 A 
ATOM      3  C   UNL     1      46.033   3.614  12.343  0.00  0.00    +0.000 A 
ATOM      4  C   UNL     1      45.677   4.920  12.007  0.00  0.00    +0.000 A 
ATOM      5  N   UNL     1      45.163   5.247  10.776  0.00  0.00    +0.000 N 
ATOM      6  N   UNL     1      45.891   5.942  12.854  0.00  0.00    +0.000 NA
ATOM      7  C   UNL     1      46.458   5.665  14.061  0.00  0.00    +0.000 A 
ATOM      8  H   UNL     1      44.943   6.235  10.716  0.00  0.00    +0.000 HD
ENDROOT
BRANCH   1  10
ATOM      9  N   UNL     1      47.190   5.117  16.747  0.00  0.00    +0.000 N 
ATOM     10  C   UNL     1      47.481   4.196  15.772  0.00  0.00    +0.000 C 
ATOM     11  O   UNL     1      48.209   3.239  15.996  0.00  0.00    +0.000 OA
ATOM     12  H   UNL     1      47.563   4.931  17.667  0.00  0.00    +0.000 HD
ATOM     13  H   UNL     1      46.416   5.760  16.675  0.00  0.00    +0.000 HD
ENDBRANCH   1  10
BRANCH   5  14
ATOM     14  C   UNL     1      44.311   4.346  10.027  0.00  0.00    +0.000 C 
BRANCH  14  15
ATOM     15  C   UNL     1      45.134   3.556   9.037  0.00  0.00    +0.000 A 
ATOM     16  C   UNL     1      45.859   4.183   8.016  0.00  0.00    +0.000 A 
ATOM     17  C   UNL     1      46.580   3.404   7.128  0.00  0.00    +0.000 A 
ATOM     18  N   UNL     1      46.651   2.059   7.202  0.00  0.00    +0.000 NA
ATOM     19  C   UNL     1      45.975   1.473   8.212  0.00  0.00    +0.000 A 
ATOM     20  C   UNL     1      45.223   2.166   9.149  0.00  0.00    +0.000 A 
ENDBRANCH  14  15
ENDBRANCH   5  14
TORSDOF 3
ENDMDL
MODEL 7
REMARK VINA RESULT:    -5.764      4.106      6.552
REMARK INTER + INTRA:          -7.242
REMARK INTER:                  -6.907
REMARK INTRA:                  -0.335
REMARK UNBOUND:                -0.467
REMARK  Name = 
REMARK  3 active torsions:
REMARK  status: ('A' for Active; 'I' for Inactive)
REMARK    1  A    between atoms: C_2  and  C_4
REMARK    2  A    between atoms: N_8  and  C_9
REMARK    3  A    between atoms: C_9  and  C_10
REMARK                            x       y       z     vdW  Elec       q    Type
REMARK                         _______ _______ _______ _____ _____    ______ ____
ROOT
ATOM      1  C   UNL     1      45.905   5.459  11.987  0.00  0.00    +0.000 A 
ATOM      2  C   UNL     1      46.830   6.101  12.800  0.00  0.00    +0.000 A 
ATOM      3  C   UNL     1      47.262   5.466  13.961  0.00  0.00    +0.000 A 
ATOM      4  C   UNL     1      46.759   4.211  14.302  0.00  0.00    +0.000 A 
ATOM      5  N   UNL     1      47.205   3.514  15.397  0.00  0.00    +0.000 N 
ATOM      6  N   UNL     1      45.857   3.586  13.525  0.00  0.00    +0.000 NA
ATOM      7  C   UNL     1      45.437   4.220  12.395  0.00  0.00    +0.000 A 
ATOM      8  H   UNL     1      46.715   2.632  15.501  0.00  0.00    +0.000 HD
ENDROOT
BRANCH   1  10
ATOM      9  N   UNL     1      44.571   7.138  10.849  0.00  0.00    +0.000 N 
ATOM     10  C   UNL     1      45.410   6.057  10.734  0.00  0.00    +0.000 C 
ATOM     11  O   UNL     1      45.750   5.628   9.641  0.00  0.00    +0.000 OA
ATOM     12  H   UNL     1      44.299   7.589   9.987  0.00  0.00    +0.000 HD
ATOM     13  H   UNL     1      44.475   7.662  11.706  0.00  0.00    +0.000 HD
ENDBRANCH   1  10
BRANCH   5  14
ATOM     14  C   UNL     1      47.624   4.171  16.618  0.00  0.00    +0.000 C 
BRANCH  14  15
ATOM     15  C   UNL     1      49.014   3.720  17.000  0.00  0.00    +0.000 A 
ATOM     16  C   UNL     1      49.972   4.618  17.487  0.00  0.00    +0.000 A 
ATOM     17  C   UNL     1      51.235   4.147  17.802  0.00  0.00    +0.000 A 
ATOM     18  N   UNL     1      51.598   2.853  17.694  0.00  0.00    +0.000 NA
ATOM     19  C   UNL     1      50.653   1.995  17.255  0.00  0.00    +0.000 A 
ATOM     20  C   UNL     1      49.363   2.370  16.912  0.00  0.00    +0.000 A 
ENDBRANCH  14  15
ENDBRANCH   5  14
TORSDOF 3
ENDMDL
MODEL 8
REMARK VINA RESULT:    -5.725      4.832      8.166
REMARK INTER + INTRA:          -7.196
REMARK INTER:                  -6.876
REMARK INTRA:                  -0.320
REMARK UNBOUND:                -0.467
REMARK  Name = 
REMARK  3 active torsions:
REMARK  status: ('A' for Active; 'I' for Inactive)
REMARK    1  A    between atoms: C_2  and  C_4
REMARK    2  A    between atoms: N_8  and  C_9
REMARK    3  A    between atoms: C_9  and  C_10
REMARK                            x       y       z     vdW  Elec       q    Type
REMARK                         _______ _______ _______ _____ _____    ______ ____
ROOT
ATOM      1  C   UNL     1      48.655   3.949  17.857  0.00  0.00    +0.000 A 
ATOM      2  C   UNL     1      47.894   4.965  17.292  0.00  0.00    +0.000 A 
ATOM      3  C   UNL     1      47.356   4.777  16.022  0.00  0.00    +0.000 A 
ATOM      4  C   UNL     1      47.593   3.591  15.329  0.00  0.00    +0.000 A 
ATOM      5  N   UNL     1      47.026   3.329  14.106  0.00  0.00    +0.000 N 
ATOM      6  N   UNL     1      48.335   2.606  15.865  0.00  0.00    +0.000 NA
ATOM      7  C   UNL     1      48.862   2.804  17.105  0.00  0.00    +0.000 A 
ATOM      8  H   UNL     1      47.324   2.430  13.743  0.00  0.00    +0.000 HD
ENDROOT
BRANCH   1  10
ATOM      9  N   UNL     1      48.533   3.525  20.243  0.00  0.00    +0.000 N 
ATOM     10  C   UNL     1      49.246   4.065  19.202  0.00  0.00    +0.000 C 
ATOM     11  O   UNL     1      50.334   4.595  19.381  0.00  0.00    +0.000 OA
ATOM     12  H   UNL     1      48.980   3.539  21.149  0.00  0.00    +0.000 HD
ATOM     13  H   UNL     1      47.774   2.875  20.104  0.00  0.00    +0.000 HD
ENDBRANCH   1  10
BRANCH   5  14
ATOM     14  C   UNL     1      46.769   4.369  13.131  0.00  0.00    +0.000 C 
BRANCH  14  15
ATOM     15  C   UNL     1      45.364   4.241  12.594  0.00  0.00    +0.000 A 
ATOM     16  C   UNL     1      44.333   5.090  13.018  0.00  0.00    +0.000 A 
ATOM     17  C   UNL     1      43.061   4.910  12.503  0.00  0.00    +0.000 A 
ATOM     18  N   UNL     1      42.752   3.974  11.584  0.00  0.00    +0.000 NA
ATOM     19  C   UNL     1      43.764   3.186  11.160  0.00  0.00    +0.000 A 
ATOM     20  C   UNL     1      45.069   3.286  11.618  0.00  0.00    +0.000 A 
ENDBRANCH  14  15
ENDBRANCH   5  14
TORSDOF 3
ENDMDL
MODEL 9
REMARK VINA RESULT:    -5.499      3.360      5.350
REMARK INTER + INTRA:          -6.930
REMARK INTER:                  -6.619
REMARK INTRA:                  -0.311
REMARK UNBOUND:                -0.467
REMARK  Name = 
REMARK  3 active torsions:
REMARK  status: ('A' for Active; 'I' for Inactive)
REMARK    1  A    between atoms: C_2  and  C_4
REMARK    2  A    between atoms: N_8  and  C_9
REMARK    3  A    between atoms: C_9  and  C_10
REMARK                            x       y       z     vdW  Elec       q    Type
REMARK                         _______ _______ _______ _____ _____    ______ ____
ROOT
ATOM      1  C   UNL     1      44.597   4.095  11.485  0.00  0.00    +0.000 A 
ATOM      2  C   UNL     1      45.174   5.038  10.645  0.00  0.00    +0.000 A 
ATOM      3  C   UNL     1      45.814   6.140  11.207  0.00  0.00    +0.000 A 
ATOM      4  C   UNL     1      45.859   6.292  12.592  0.00  0.00    +0.000 A 
ATOM      5  N   UNL     1      46.538   7.322  13.196  0.00  0.00    +0.000 N 
ATOM      6  N   UNL     1      45.296   5.388  13.412  0.00  0.00    +0.000 NA
ATOM      7  C   UNL     1      44.666   4.319  12.851  0.00  0.00    +0.000 A 
ATOM      8  H   UNL     1      46.446   7.286  14.206  0.00  0.00    +0.000 HD
ENDROOT
BRANCH   1  10
ATOM      9  N   UNL     1      44.478   2.280   9.879  0.00  0.00    +0.000 N 
ATOM     10  C   UNL     1      43.915   2.895  10.969  0.00  0.00    +0.000 C 
ATOM     11  O   UNL     1      42.907   2.452  11.502  0.00  0.00    +0.000 OA
ATOM     12  H   UNL     1      44.049   1.415   9.580  0.00  0.00    +0.000 HD
ATOM     13  H   UNL     1      45.423   2.465   9.578  0.00  0.00    +0.000 HD
ENDBRANCH   1  10
BRANCH   5  14
ATOM     14  C   UNL     1      46.642   8.638  12.600  0.00  0.00    +0.000 C 
BRANCH  14  15
ATOM     15  C   UNL     1      48.055   8.883  12.128  0.00  0.00    +0.000 A 
ATOM     16  C   UNL     1      48.493  10.158  11.746  0.00  0.00    +0.000 A 
ATOM     17  C   UNL     1      49.795  10.316  11.303  0.00  0.00    +0.000 A 
ATOM     18  N   UNL     1      50.691   9.310  11.242  0.00  0.00    +0.000 NA
ATOM     19  C   UNL     1      50.263   8.095  11.645  0.00  0.00    +0.000 A 
ATOM     20  C   UNL     1      48.979   7.835  12.101  0.00  0.00    +0.000 A 
ENDBRANCH  14  15
ENDBRANCH   5  14
TORSDOF 3
ENDMDL
