MODEL 1
REMARK VINA RESULT:    -6.817      0.000      0.000
REMARK INTER + INTRA:          -9.613
REMARK INTER:                  -9.009
REMARK INTRA:                  -0.603
REMARK UNBOUND:                -0.603
REMARK  Name = 
REMARK  7 active torsions:
REMARK  status: ('A' for Active; 'I' for Inactive)
REMARK    1  A    between atoms: C_1  and  C_2
REMARK    2  A    between atoms: N_9  and  C_10
REMARK    3  A    between atoms: C_10  and  C_11
REMARK    4  A    between atoms: C_14  and  O_15
REMARK    5  A    between atoms: O_15  and  C_16
REMARK    6  A    between atoms: C_16  and  C_17
REMARK    7  A    between atoms: C_17  and  N_18
REMARK                            x       y       z     vdW  Elec       q    Type
REMARK                         _______ _______ _______ _____ _____    ______ ____
ROOT
ATOM      1  C   UNL     1      45.649   5.632  11.734  0.00  0.00    +0.000 A 
ATOM      2  C   UNL     1      46.494   6.696  11.393  0.00  0.00    +0.000 A 
ATOM      3  C   UNL     1      47.608   7.007  12.182  0.00  0.00    +0.000 A 
ATOM      4  C   UNL     1      47.899   6.252  13.316  0.00  0.00    +0.000 A 
ATOM      5  C   UNL     1      47.058   5.193  13.664  0.00  0.00    +0.000 A 
ATOM      6  C   UNL     1      45.936   4.889  12.886  0.00  0.00    +0.000 A 
ENDROOT
BRANCH   1   7
ATOM      7  C   UNL     1      44.478   5.284  10.846  0.00  0.00    +0.000 C 
BRANCH   7  16
ATOM      8  C   UNL     1      47.404   2.657   5.487  0.00  0.00    +0.000 C 
ATOM      9  C   UNL     1      46.698   3.044   6.749  0.00  0.00    +0.000 A 
ATOM     10  C   UNL     1      46.790   4.331   7.280  0.00  0.00    +0.000 A 
ATOM     11  N   UNL     1      46.172   4.786   8.399  0.00  0.00    +0.000 NA
ATOM     12  C   UNL     1      45.423   3.842   9.012  0.00  0.00    +0.000 A 
ATOM     13  C   UNL     1      45.255   2.522   8.602  0.00  0.00    +0.000 A 
ATOM     14  C   UNL     1      44.389   1.896   9.538  0.00  0.00    +0.000 A 
ATOM     15  C   UNL     1      44.040   2.841  10.475  0.00  0.00    +0.000 A 
ATOM     16  N   UNL     1      44.673   4.020  10.151  0.00  0.00    +0.000 N 
ATOM     17  C   UNL     1      45.914   2.108   7.432  0.00  0.00    +0.000 A 
ENDBRANCH   7  16
ENDBRANCH   1   7
BRANCH   4  18
ATOM     18  O   UNL     1      48.995   6.415  14.121  0.00  0.00    +0.000 OA
BRANCH  18  19
ATOM     19  C   UNL     1      48.744   6.932  15.431  0.00  0.00    +0.000 C 
BRANCH  19  20
ATOM     20  C   UNL     1      48.850   8.460  15.381  0.00  0.00    +0.000 C 
BRANCH  20  21
ATOM     21  N   UNL     1      47.592   9.113  15.750  0.00  0.00    +0.000 NA
ATOM     22  H   UNL     1      47.436   9.921  15.147  0.00  0.00    +0.000 HD
ATOM     23  H   UNL     1      47.671   9.478  16.697  0.00  0.00    +0.000 HD
ENDBRANCH  20  21
ENDBRANCH  19  20
ENDBRANCH  18  19
ENDBRANCH   4  18
TORSDOF 6
ENDMDL
MODEL 2
REMARK VINA RESULT:    -6.800      2.690      7.127
REMARK INTER + INTRA:          -9.589
REMARK INTER:                  -8.972
REMARK INTRA:                  -0.617
REMARK UNBOUND:                -0.603
REMARK  Name = 
REMARK  7 active torsions:
REMARK  status: ('A' for Active; 'I' for Inactive)
REMARK    1  A    between atoms: C_1  and  C_2
REMARK    2  A    between atoms: N_9  and  C_10
REMARK    3  A    between atoms: C_10  and  C_11
REMARK    4  A    between atoms: C_14  and  O_15
REMARK    5  A    between atoms: O_15  and  C_16
REMARK    6  A    between atoms: C_16  and  C_17
REMARK    7  A    between atoms: C_17  and  N_18
REMARK                            x       y       z     vdW  Elec       q    Type
REMARK                         _______ _______ _______ _____ _____    ______ ____
ROOT
ATOM      1  C   UNL     1      44.597   4.472  10.914  0.00  0.00    +0.000 A 
ATOM      2  C   UNL     1      44.175   3.183  10.565  0.00  0.00    +0.000 A 
ATOM      3  C   UNL     1      44.470   2.648   9.307  0.00  0.00    +0.000 A 
ATOM      4  C   UNL     1      45.200   3.389   8.381  0.00  0.00    +0.000 A 
ATOM      5  C   UNL     1      45.619   4.678   8.719  0.00  0.00    +0.000 A 
ATOM      6  C   UNL     1      45.313   5.221   9.971  0.00  0.00    +0.000 A 
ENDROOT
BRANCH   1   7
ATOM      7  C   UNL     1      44.306   5.015  12.292  0.00  0.00    +0.000 C 
BRANCH   7  16
ATOM      8  C   UNL     1      48.468  10.014  13.660  0.00  0.00    +0.000 C 
ATOM      9  C   UNL     1      47.647   8.773  13.495  0.00  0.00    +0.000 A 
ATOM     10  C   UNL     1      46.416   8.786  12.839  0.00  0.00    +0.000 A 
ATOM     11  N   UNL     1      45.611   7.716  12.617  0.00  0.00    +0.000 NA
ATOM     12  C   UNL     1      46.110   6.565  13.118  0.00  0.00    +0.000 A 
ATOM     13  C   UNL     1      47.313   6.411  13.803  0.00  0.00    +0.000 A 
ATOM     14  C   UNL     1      47.434   5.036  14.141  0.00  0.00    +0.000 A 
ATOM     15  C   UNL     1      46.325   4.389  13.646  0.00  0.00    +0.000 A 
ATOM     16  N   UNL     1      45.524   5.323  13.027  0.00  0.00    +0.000 N 
ATOM     17  C   UNL     1      48.108   7.553  13.998  0.00  0.00    +0.000 A 
ENDBRANCH   7  16
ENDBRANCH   1   7
BRANCH   4  18
ATOM     18  O   UNL     1      45.609   2.947   7.151  0.00  0.00    +0.000 OA
BRANCH  18  19
ATOM     19  C   UNL     1      46.925   3.337   6.746  0.00  0.00    +0.000 C 
BRANCH  19  20
ATOM     20  C   UNL     1      47.851   2.121   6.865  0.00  0.00    +0.000 C 
BRANCH  20  21
ATOM     21  N   UNL     1      48.556   1.839   5.613  0.00  0.00    +0.000 NA
ATOM     22  H   UNL     1      47.927   1.991   4.824  0.00  0.00    +0.000 HD
ATOM     23  H   UNL     1      48.808   0.853   5.587  0.00  0.00    +0.000 HD
ENDBRANCH  20  21
ENDBRANCH  19  20
ENDBRANCH  18  19
ENDBRANCH   4  18
TORSDOF 6
ENDMDL
MODEL 3
REMARK VINA RESULT:    -6.613      2.615      7.174
REMARK INTER + INTRA:          -9.343
REMARK INTER:                  -8.816
REMARK INTRA:                  -0.527
REMARK UNBOUND:                -0.603
REMARK  Name = 
REMARK  7 active torsions:
REMARK  status: ('A' for Active; 'I' for Inactive)
REMARK    1  A    between atoms: C_1  and  C_2
REMARK    2  A    between atoms: N_9  and  C_10
REMARK    3  A    between atoms: C_10  and  C_11
REMARK    4  A    between atoms: C_14  and  O_15
REMARK    5  A    between atoms: O_15  and  C_16
REMARK    6  A    between atoms: C_16  and  C_17
REMARK    7  A    between atoms: C_17  and  N_18
REMARK                            x       y       z     vdW  Elec       q    Type
REMARK                         _______ _______ _______ _____ _____    ______ ____
ROOT
ATOM      1  C   UNL     1      44.176   4.569  10.546  0.00  0.00    +0.000 A 
ATOM      2  C   UNL     1      43.943   3.195  10.689  0.00  0.00    +0.000 A 
ATOM      3  C   UNL     1      44.463   2.281   9.767  0.00  0.00    +0.000 A 
ATOM      4  C   UNL     1      45.233   2.724   8.694  0.00  0.00    +0.000 A 
ATOM      5  C   UNL     1      45.465   4.093   8.542  0.00  0.00    +0.000 A 
ATOM      6  C   UNL     1      44.934   5.011   9.454  0.00  0.00    +0.000 A 
ENDROOT
BRANCH   1   7
ATOM      7  C   UNL     1      43.643   5.536  11.576  0.00  0.00    +0.000 C 
BRANCH   7  16
ATOM      8  C   UNL     1      49.108   6.858  15.121  0.00  0.00    +0.000 C 
ATOM      9  C   UNL     1      47.905   6.758  14.235  0.00  0.00    +0.000 A 
ATOM     10  C   UNL     1      47.247   5.547  14.022  0.00  0.00    +0.000 A 
ATOM     11  N   UNL     1      46.139   5.356  13.261  0.00  0.00    +0.000 NA
ATOM     12  C   UNL     1      45.697   6.490  12.676  0.00  0.00    +0.000 A 
ATOM     13  C   UNL     1      46.263   7.757  12.790  0.00  0.00    +0.000 A 
ATOM     14  C   UNL     1      45.472   8.645  12.011  0.00  0.00    +0.000 A 
ATOM     15  C   UNL     1      44.446   7.912  11.461  0.00  0.00    +0.000 A 
ATOM     16  N   UNL     1      44.590   6.603  11.867  0.00  0.00    +0.000 N 
ATOM     17  C   UNL     1      47.405   7.897  13.596  0.00  0.00    +0.000 A 
ENDBRANCH   7  16
ENDBRANCH   1   7
BRANCH   4  18
ATOM     18  O   UNL     1      45.851   1.922   7.772  0.00  0.00    +0.000 OA
BRANCH  18  19
ATOM     19  C   UNL     1      46.556   2.593   6.724  0.00  0.00    +0.000 C 
BRANCH  19  20
ATOM     20  C   UNL     1      48.001   2.082   6.702  0.00  0.00    +0.000 C 
BRANCH  20  21
ATOM     21  N   UNL     1      48.484   1.851   5.339  0.00  0.00    +0.000 NA
ATOM     22  H   UNL     1      49.497   1.962   5.311  0.00  0.00    +0.000 HD
ATOM     23  H   UNL     1      48.104   2.569   4.724  0.00  0.00    +0.000 HD
ENDBRANCH  20  21
ENDBRANCH  19  20
ENDBRANCH  18  19
ENDBRANCH   4  18
TORSDOF 6
ENDMDL
MODEL 4
REMARK VINA RESULT:    -6.521      1.289      1.738
REMARK INTER + INTRA:          -9.222
REMARK INTER:                  -8.621
REMARK INTRA:                  -0.601
REMARK UNBOUND:                -0.603
REMARK  Name = 
REMARK  7 active torsions:
REMARK  status: ('A' for Active; 'I' for Inactive)
REMARK    1  A    between atoms: C_1  and  C_2
REMARK    2  A    between atoms: N_9  and  C_10
REMARK    3  A    between atoms: C_10  and  C_11
REMARK    4  A    between atoms: C_14  and  O_15
REMARK    5  A    between atoms: O_15  and  C_16
REMARK    6  A    between atoms: C_16  and  C_17
REMARK    7  A    between atoms: C_17  and  N_18
REMARK                            x       y       z     vdW  Elec       q    Type
REMARK                         _______ _______ _______ _____ _____    ______ ____
ROOT
ATOM      1  C   UNL     1      45.924   6.157  12.063  0.00  0.00    +0.000 A 
ATOM      2  C   UNL     1      46.200   5.329  13.158  0.00  0.00    +0.000 A 
ATOM      3  C   UNL     1      47.343   5.531  13.940  0.00  0.00    +0.000 A 
ATOM      4  C   UNL     1      48.221   6.571  13.645  0.00  0.00    +0.000 A 
ATOM      5  C   UNL     1      47.955   7.398  12.551  0.00  0.00    +0.000 A 
ATOM      6  C   UNL     1      46.821   7.189  11.759  0.00  0.00    +0.000 A 
ENDROOT
BRANCH   1   7
ATOM      7  C   UNL     1      44.663   5.950  11.259  0.00  0.00    +0.000 C 
BRANCH   7  16
ATOM      8  C   UNL     1      46.719   2.721   5.824  0.00  0.00    +0.000 C 
ATOM      9  C   UNL     1      46.188   3.254   7.119  0.00  0.00    +0.000 A 
ATOM     10  C   UNL     1      46.494   4.539   7.567  0.00  0.00    +0.000 A 
ATOM     11  N   UNL     1      46.046   5.122   8.708  0.00  0.00    +0.000 NA
ATOM     12  C   UNL     1      45.241   4.315   9.434  0.00  0.00    +0.000 A 
ATOM     13  C   UNL     1      44.866   3.012   9.114  0.00  0.00    +0.000 A 
ATOM     14  C   UNL     1      44.016   2.550  10.154  0.00  0.00    +0.000 A 
ATOM     15  C   UNL     1      43.880   3.573  11.064  0.00  0.00    +0.000 A 
ATOM     16  N   UNL     1      44.628   4.642  10.621  0.00  0.00    +0.000 N 
ATOM     17  C   UNL     1      45.355   2.463   7.917  0.00  0.00    +0.000 A 
ENDBRANCH   7  16
ENDBRANCH   1   7
BRANCH   4  18
ATOM     18  O   UNL     1      49.328   6.910  14.376  0.00  0.00    +0.000 OA
BRANCH  18  19
ATOM     19  C   UNL     1      49.125   7.096  15.780  0.00  0.00    +0.000 C 
BRANCH  19  20
ATOM     20  C   UNL     1      50.111   6.201  16.538  0.00  0.00    +0.000 C 
BRANCH  20  21
ATOM     21  N   UNL     1      49.547   4.880  16.829  0.00  0.00    +0.000 NA
ATOM     22  H   UNL     1      50.296   4.190  16.870  0.00  0.00    +0.000 HD
ATOM     23  H   UNL     1      48.944   4.598  16.057  0.00  0.00    +0.000 HD
ENDBRANCH  20  21
ENDBRANCH  19  20
ENDBRANCH  18  19
ENDBRANCH   4  18
TORSDOF 6
ENDMDL
MODEL 5
REMARK VINA RESULT:    -5.582      3.006      7.006
REMARK INTER + INTRA:          -7.981
REMARK INTER:                  -7.546
REMARK INTRA:                  -0.435
REMARK UNBOUND:                -0.603
REMARK  Name = 
REMARK  7 active torsions:
REMARK  status: ('A' for Active; 'I' for Inactive)
REMARK    1  A    between atoms: C_1  and  C_2
REMARK    2  A    between atoms: N_9  and  C_10
REMARK    3  A    between atoms: C_10  and  C_11
REMARK    4  A    between atoms: C_14  and  O_15
REMARK    5  A    between atoms: O_15  and  C_16
REMARK    6  A    between atoms: C_16  and  C_17
REMARK    7  A    between atoms: C_17  and  N_18
REMARK                            x       y       z     vdW  Elec       q    Type
REMARK                         _______ _______ _______ _____ _____    ______ ____
ROOT
ATOM      1  C   UNL     1      46.049   5.429  12.530  0.00  0.00    +0.000 A 
ATOM      2  C   UNL     1      45.637   4.169  12.983  0.00  0.00    +0.000 A 
ATOM      3  C   UNL     1      44.922   3.305  12.146  0.00  0.00    +0.000 A 
ATOM      4  C   UNL     1      44.619   3.683  10.840  0.00  0.00    +0.000 A 
ATOM      5  C   UNL     1      45.023   4.939  10.383  0.00  0.00    +0.000 A 
ATOM      6  C   UNL     1      45.724   5.811  11.222  0.00  0.00    +0.000 A 
ENDROOT
BRANCH   1   7
ATOM      7  C   UNL     1      46.857   6.329  13.434  0.00  0.00    +0.000 C 
BRANCH   7  16
ATOM      8  C   UNL     1      51.552  10.086  10.602  0.00  0.00    +0.000 C 
ATOM      9  C   UNL     1      50.357   9.400  11.188  0.00  0.00    +0.000 A 
ATOM     10  C   UNL     1      50.387   8.055  11.554  0.00  0.00    +0.000 A 
ATOM     11  N   UNL     1      49.370   7.350  12.113  0.00  0.00    +0.000 NA
ATOM     12  C   UNL     1      48.250   8.085  12.289  0.00  0.00    +0.000 A 
ATOM     13  C   UNL     1      48.078   9.427  11.957  0.00  0.00    +0.000 A 
ATOM     14  C   UNL     1      46.751   9.785  12.317  0.00  0.00    +0.000 A 
ATOM     15  C   UNL     1      46.158   8.673  12.869  0.00  0.00    +0.000 A 
ATOM     16  N   UNL     1      47.073   7.643  12.847  0.00  0.00    +0.000 N 
ATOM     17  C   UNL     1      49.168  10.108  11.387  0.00  0.00    +0.000 A 
ENDBRANCH   7  16
ENDBRANCH   1   7
BRANCH   4  18
ATOM     18  O   UNL     1      43.991   2.898   9.910  0.00  0.00    +0.000 OA
BRANCH  18  19
ATOM     19  C   UNL     1      44.623   2.807   8.631  0.00  0.00    +0.000 C 
BRANCH  19  20
ATOM     20  C   UNL     1      45.583   1.612   8.645  0.00  0.00    +0.000 C 
BRANCH  20  21
ATOM     21  N   UNL     1      46.727   1.812   7.752  0.00  0.00    +0.000 NA
ATOM     22  H   UNL     1      46.921   0.948   7.246  0.00  0.00    +0.000 HD
ATOM     23  H   UNL     1      47.556   2.003   8.311  0.00  0.00    +0.000 HD
ENDBRANCH  20  21
ENDBRANCH  19  20
ENDBRANCH  18  19
ENDBRANCH   4  18
TORSDOF 6
ENDMDL
MODEL 6
REMARK VINA RESULT:    -5.509      3.270      8.416
REMARK INTER + INTRA:          -7.883
REMARK INTER:                  -7.278
REMARK INTRA:                  -0.606
REMARK UNBOUND:                -0.603
REMARK  Name = 
REMARK  7 active torsions:
REMARK  status: ('A' for Active; 'I' for Inactive)
REMARK    1  A    between atoms: C_1  and  C_2
REMARK    2  A    between atoms: N_9  and  C_10
REMARK    3  A    between atoms: C_10  and  C_11
REMARK    4  A    between atoms: C_14  and  O_15
REMARK    5  A    between atoms: O_15  and  C_16
REMARK    6  A    between atoms: C_16  and  C_17
REMARK    7  A    between atoms: C_17  and  N_18
REMARK                            x       y       z     vdW  Elec       q    Type
REMARK                         _______ _______ _______ _____ _____    ______ ____
ROOT
ATOM      1  C   UNL     1      47.318   6.436  13.462  0.00  0.00    +0.000 A 
ATOM      2  C   UNL     1      46.373   7.206  12.772  0.00  0.00    +0.000 A 
ATOM      3  C   UNL     1      45.095   6.704  12.507  0.00  0.00    +0.000 A 
ATOM      4  C   UNL     1      44.737   5.428  12.937  0.00  0.00    +0.000 A 
ATOM      5  C   UNL     1      45.675   4.652  13.622  0.00  0.00    +0.000 A 
ATOM      6  C   UNL     1      46.959   5.146  13.875  0.00  0.00    +0.000 A 
ENDROOT
BRANCH   1   7
ATOM      7  C   UNL     1      48.677   7.011  13.777  0.00  0.00    +0.000 C 
BRANCH   7  16
ATOM      8  C   UNL     1      50.068   5.262  20.037  0.00  0.00    +0.000 C 
ATOM      9  C   UNL     1      49.740   5.859  18.704  0.00  0.00    +0.000 A 
ATOM     10  C   UNL     1      49.895   5.141  17.518  0.00  0.00    +0.000 A 
ATOM     11  N   UNL     1      49.604   5.582  16.267  0.00  0.00    +0.000 NA
ATOM     12  C   UNL     1      49.137   6.849  16.247  0.00  0.00    +0.000 A 
ATOM     13  C   UNL     1      48.948   7.680  17.348  0.00  0.00    +0.000 A 
ATOM     14  C   UNL     1      48.441   8.916  16.862  0.00  0.00    +0.000 A 
ATOM     15  C   UNL     1      48.319   8.805  15.496  0.00  0.00    +0.000 A 
ATOM     16  N   UNL     1      48.746   7.548  15.129  0.00  0.00    +0.000 N 
ATOM     17  C   UNL     1      49.259   7.169  18.619  0.00  0.00    +0.000 A 
ENDBRANCH   7  16
ENDBRANCH   1   7
BRANCH   4  18
ATOM     18  O   UNL     1      43.499   4.860  12.800  0.00  0.00    +0.000 OA
BRANCH  18  19
ATOM     19  C   UNL     1      43.061   4.616  11.460  0.00  0.00    +0.000 C 
BRANCH  19  20
ATOM     20  C   UNL     1      43.634   3.272  10.997  0.00  0.00    +0.000 C 
BRANCH  20  21
ATOM     21  N   UNL     1      43.046   2.143  11.720  0.00  0.00    +0.000 NA
ATOM     22  H   UNL     1      43.097   2.314  12.724  0.00  0.00    +0.000 HD
ATOM     23  H   UNL     1      43.605   1.309  11.547  0.00  0.00    +0.000 HD
ENDBRANCH  20  21
ENDBRANCH  19  20
ENDBRANCH  18  19
ENDBRANCH   4  18
TORSDOF 6
ENDMDL
MODEL 7
REMARK VINA RESULT:    -5.342      4.958      7.141
REMARK INTER + INTRA:          -7.663
REMARK INTER:                  -7.509
REMARK INTRA:                  -0.154
REMARK UNBOUND:                -0.603
REMARK  Name = 
REMARK  7 active torsions:
REMARK  status: ('A' for Active; 'I' for Inactive)
REMARK    1  A    between atoms: C_1  and  C_2
REMARK    2  A    between atoms: N_9  and  C_10
REMARK    3  A    between atoms: C_10  and  C_11
REMARK    4  A    between atoms: C_14  and  O_15
REMARK    5  A    between atoms: O_15  and  C_16
REMARK    6  A    between atoms: C_16  and  C_17
REMARK    7  A    between atoms: C_17  and  N_18
REMARK                            x       y       z     vdW  Elec       q    Type
REMARK                         _______ _______ _______ _____ _____    ______ ____
ROOT
ATOM      1  C   UNL     1      48.859   3.449  17.012  0.00  0.00    +0.000 A 
ATOM      2  C   UNL     1      49.707   4.263  17.773  0.00  0.00    +0.000 A 
ATOM      3  C   UNL     1      50.980   3.820  18.147  0.00  0.00    +0.000 A 
ATOM      4  C   UNL     1      51.430   2.561  17.755  0.00  0.00    +0.000 A 
ATOM      5  C   UNL     1      50.588   1.742  17.000  0.00  0.00    +0.000 A 
ATOM      6  C   UNL     1      49.308   2.176  16.638  0.00  0.00    +0.000 A 
ENDROOT
BRANCH   1   7
ATOM      7  C   UNL     1      47.506   3.962  16.581  0.00  0.00    +0.000 C 
BRANCH   7  16
ATOM      8  C   UNL     1      45.331   5.449  10.479  0.00  0.00    +0.000 C 
ATOM      9  C   UNL     1      45.911   5.312  11.852  0.00  0.00    +0.000 A 
ATOM     10  C   UNL     1      45.526   4.286  12.715  0.00  0.00    +0.000 A 
ATOM     11  N   UNL     1      46.008   4.062  13.964  0.00  0.00    +0.000 NA
ATOM     12  C   UNL     1      46.937   4.966  14.344  0.00  0.00    +0.000 A 
ATOM     13  C   UNL     1      47.402   6.042  13.592  0.00  0.00    +0.000 A 
ATOM     14  C   UNL     1      48.370   6.721  14.381  0.00  0.00    +0.000 A 
ATOM     15  C   UNL     1      48.484   6.042  15.572  0.00  0.00    +0.000 A 
ATOM     16  N   UNL     1      47.609   4.978  15.544  0.00  0.00    +0.000 N 
ATOM     17  C   UNL     1      46.872   6.222  12.304  0.00  0.00    +0.000 A 
ENDBRANCH   7  16
ENDBRANCH   1   7
BRANCH   4  18
ATOM     18  O   UNL     1      52.676   2.050  17.998  0.00  0.00    +0.000 OA
BRANCH  18  19
ATOM     19  C   UNL     1      53.045   0.897  17.236  0.00  0.00    +0.000 C 
BRANCH  19  20
ATOM     20  C   UNL     1      53.808  -0.068  18.149  0.00  0.00    +0.000 C 
BRANCH  20  21
ATOM     21  N   UNL     1      52.925  -1.063  18.763  0.00  0.00    +0.000 NA
ATOM     22  H   UNL     1      52.237  -1.377  18.079  0.00  0.00    +0.000 HD
ATOM     23  H   UNL     1      52.396  -0.621  19.513  0.00  0.00    +0.000 HD
ENDBRANCH  20  21
ENDBRANCH  19  20
ENDBRANCH  18  19
ENDBRANCH   4  18
TORSDOF 6
ENDMDL
MODEL 8
REMARK VINA RESULT:    -4.932      4.767      7.291
REMARK INTER + INTRA:          -7.121
REMARK INTER:                  -6.553
REMARK INTRA:                  -0.568
REMARK UNBOUND:                -0.603
REMARK  Name = 
REMARK  7 active torsions:
REMARK  status: ('A' for Active; 'I' for Inactive)
REMARK    1  A    between atoms: C_1  and  C_2
REMARK    2  A    between atoms: N_9  and  C_10
REMARK    3  A    between atoms: C_10  and  C_11
REMARK    4  A    between atoms: C_14  and  O_15
REMARK    5  A    between atoms: O_15  and  C_16
REMARK    6  A    between atoms: C_16  and  C_17
REMARK    7  A    between atoms: C_17  and  N_18
REMARK                            x       y       z     vdW  Elec       q    Type
REMARK                         _______ _______ _______ _____ _____    ______ ____
ROOT
ATOM      1  C   UNL     1      49.033   4.119  17.106  0.00  0.00    +0.000 A 
ATOM      2  C   UNL     1      50.145   4.889  17.469  0.00  0.00    +0.000 A 
ATOM      3  C   UNL     1      51.375   4.284  17.747  0.00  0.00    +0.000 A 
ATOM      4  C   UNL     1      51.515   2.901  17.655  0.00  0.00    +0.000 A 
ATOM      5  C   UNL     1      50.410   2.127  17.298  0.00  0.00    +0.000 A 
ATOM      6  C   UNL     1      49.174   2.728  17.034  0.00  0.00    +0.000 A 
ENDROOT
BRANCH   1   7
ATOM      7  C   UNL     1      47.725   4.795  16.768  0.00  0.00    +0.000 C 
BRANCH   7  16
ATOM      8  C   UNL     1      48.833   8.978  11.722  0.00  0.00    +0.000 C 
ATOM      9  C   UNL     1      48.516   7.895  12.707  0.00  0.00    +0.000 A 
ATOM     10  C   UNL     1      48.947   7.956  14.032  0.00  0.00    +0.000 A 
ATOM     11  N   UNL     1      48.693   7.043  15.004  0.00  0.00    +0.000 NA
ATOM     12  C   UNL     1      47.958   5.997  14.568  0.00  0.00    +0.000 A 
ATOM     13  C   UNL     1      47.478   5.802  13.275  0.00  0.00    +0.000 A 
ATOM     14  C   UNL     1      46.759   4.576  13.272  0.00  0.00    +0.000 A 
ATOM     15  C   UNL     1      46.804   4.066  14.549  0.00  0.00    +0.000 A 
ATOM     16  N   UNL     1      47.536   4.933  15.331  0.00  0.00    +0.000 N 
ATOM     17  C   UNL     1      47.766   6.783  12.312  0.00  0.00    +0.000 A 
ENDBRANCH   7  16
ENDBRANCH   1   7
BRANCH   4  18
ATOM     18  O   UNL     1      52.681   2.205  17.832  0.00  0.00    +0.000 OA
BRANCH  18  19
ATOM     19  C   UNL     1      52.647   0.818  17.486  0.00  0.00    +0.000 C 
BRANCH  19  20
ATOM     20  C   UNL     1      54.042   0.400  17.008  0.00  0.00    +0.000 C 
BRANCH  20  21
ATOM     21  N   UNL     1      53.989  -0.707  16.051  0.00  0.00    +0.000 NA
ATOM     22  H   UNL     1      53.049  -1.100  16.033  0.00  0.00    +0.000 HD
ATOM     23  H   UNL     1      54.602  -1.455  16.372  0.00  0.00    +0.000 HD
ENDBRANCH  20  21
ENDBRANCH  19  20
ENDBRANCH  18  19
ENDBRANCH   4  18
TORSDOF 6
ENDMDL
MODEL 9
REMARK VINA RESULT:    -4.612      3.528      5.807
REMARK INTER + INTRA:          -6.698
REMARK INTER:                  -6.168
REMARK INTRA:                  -0.530
REMARK UNBOUND:                -0.603
REMARK  Name = 
REMARK  7 active torsions:
REMARK  status: ('A' for Active; 'I' for Inactive)
REMARK    1  A    between atoms: C_1  and  C_2
REMARK    2  A    between atoms: N_9  and  C_10
REMARK    3  A    between atoms: C_10  and  C_11
REMARK    4  A    between atoms: C_14  and  O_15
REMARK    5  A    between atoms: O_15  and  C_16
REMARK    6  A    between atoms: C_16  and  C_17
REMARK    7  A    between atoms: C_17  and  N_18
REMARK                            x       y       z     vdW  Elec       q    Type
REMARK                         _______ _______ _______ _____ _____    ______ ____
ROOT
ATOM      1  C   UNL     1      49.276   7.740  13.193  0.00  0.00    +0.000 A 
ATOM      2  C   UNL     1      50.414   8.357  13.726  0.00  0.00    +0.000 A 
ATOM      3  C   UNL     1      51.523   8.634  12.919  0.00  0.00    +0.000 A 
ATOM      4  C   UNL     1      51.507   8.308  11.565  0.00  0.00    +0.000 A 
ATOM      5  C   UNL     1      50.377   7.688  11.028  0.00  0.00    +0.000 A 
ATOM      6  C   UNL     1      49.272   7.397  11.835  0.00  0.00    +0.000 A 
ENDROOT
BRANCH   1   7
ATOM      7  C   UNL     1      48.073   7.489  14.070  0.00  0.00    +0.000 C 
BRANCH   7  16
ATOM      8  C   UNL     1      43.518   3.677  11.085  0.00  0.00    +0.000 C 
ATOM      9  C   UNL     1      44.410   4.702  11.716  0.00  0.00    +0.000 A 
ATOM     10  C   UNL     1      45.493   4.342  12.516  0.00  0.00    +0.000 A 
ATOM     11  N   UNL     1      46.372   5.189  13.111  0.00  0.00    +0.000 NA
ATOM     12  C   UNL     1      46.099   6.490  12.868  0.00  0.00    +0.000 A 
ATOM     13  C   UNL     1      45.047   6.988  12.104  0.00  0.00    +0.000 A 
ATOM     14  C   UNL     1      45.147   8.405  12.119  0.00  0.00    +0.000 A 
ATOM     15  C   UNL     1      46.252   8.734  12.870  0.00  0.00    +0.000 A 
ATOM     16  N   UNL     1      46.825   7.566  13.323  0.00  0.00    +0.000 N 
ATOM     17  C   UNL     1      44.173   6.064  11.507  0.00  0.00    +0.000 A 
ENDBRANCH   7  16
ENDBRANCH   1   7
BRANCH   4  18
ATOM     18  O   UNL     1      52.499   8.594  10.665  0.00  0.00    +0.000 OA
BRANCH  18  19
ATOM     19  C   UNL     1      52.886   7.527   9.794  0.00  0.00    +0.000 C 
BRANCH  19  20
ATOM     20  C   UNL     1      53.929   6.665  10.514  0.00  0.00    +0.000 C 
BRANCH  20  21
ATOM     21  N   UNL     1      53.644   5.234  10.387  0.00  0.00    +0.000 NA
ATOM     22  H   UNL     1      52.952   5.086   9.653  0.00  0.00    +0.000 HD
ATOM     23  H   UNL     1      53.216   4.902  11.250  0.00  0.00    +0.000 HD
ENDBRANCH  20  21
ENDBRANCH  19  20
ENDBRANCH  18  19
ENDBRANCH   4  18
TORSDOF 6
ENDMDL
