MODEL 1
REMARK VINA RESULT:    -7.369      0.000      0.000
REMARK INTER + INTRA:          -8.901
REMARK INTER:                  -8.662
REMARK INTRA:                  -0.239
REMARK UNBOUND:                -0.239
REMARK  Name = 
REMARK  4 active torsions:
REMARK  status: ('A' for Active; 'I' for Inactive)
REMARK    1  A    between atoms: C_1  and  C_2
REMARK    2  A    between atoms: C_4  and  C_5
REMARK    3  A    between atoms: C_10  and  C_11
REMARK    4  A    between atoms: C_11  and  C_12
REMARK                            x       y       z     vdW  Elec       q    Type
REMARK                         _______ _______ _______ _____ _____    ______ ____
ROOT
ATOM      1  C   UNL     1      44.126   1.925  10.222  0.00  0.00    +0.000 C 
ATOM      2  C   UNL     1      44.995   2.790   9.350  0.00  0.00    +0.000 A 
ATOM      3  C   UNL     1      45.665   2.161   8.286  0.00  0.00    +0.000 A 
ATOM      4  C   UNL     1      46.497   2.874   7.419  0.00  0.00    +0.000 A 
ATOM      5  C   UNL     1      46.601   4.255   7.587  0.00  0.00    +0.000 A 
ATOM      6  C   UNL     1      45.933   4.891   8.649  0.00  0.00    +0.000 A 
ATOM      7  C   UNL     1      45.154   4.179   9.585  0.00  0.00    +0.000 A 
ENDROOT
BRANCH   4   8
ATOM      8  C   UNL     1      47.247   2.090   6.391  0.00  0.00    +0.000 C 
ATOM      9  N   UNL     1      47.900   2.755   5.397  0.00  0.00    +0.000 N 
ATOM     10  O   UNL     1      47.310   0.865   6.442  0.00  0.00    +0.000 OA
ATOM     11  H   UNL     1      47.923   3.755   5.284  0.00  0.00    +0.000 HD
ATOM     12  H   UNL     1      48.422   2.184   4.745  0.00  0.00    +0.000 HD
ENDBRANCH   4   8
BRANCH   7  13
ATOM     13  C   UNL     1      44.631   4.862  10.876  0.00  0.00    +0.000 C 
ATOM     14  C   UNL     1      43.225   4.571  11.421  0.00  0.00    +0.000 C 
ATOM     15  C   UNL     1      43.434   5.779  10.583  0.00  0.00    +0.000 C 
BRANCH  13  16
ATOM     16  C   UNL     1      45.636   5.217  11.981  0.00  0.00    +0.000 A 
ATOM     17  C   UNL     1      45.804   4.416  13.125  0.00  0.00    +0.000 A 
ATOM     18  C   UNL     1      46.749   4.718  14.110  0.00  0.00    +0.000 A 
ATOM     19  C   UNL     1      47.575   5.825  13.962  0.00  0.00    +0.000 A 
ATOM     20  C   UNL     1      47.452   6.629  12.834  0.00  0.00    +0.000 A 
ATOM     21  C   UNL     1      46.489   6.331  11.861  0.00  0.00    +0.000 A 
ENDBRANCH  13  16
ENDBRANCH   7  13
TORSDOF 3
ENDMDL
MODEL 2
REMARK VINA RESULT:    -7.230      3.551      6.213
REMARK INTER + INTRA:          -8.738
REMARK INTER:                  -8.512
REMARK INTRA:                  -0.226
REMARK UNBOUND:                -0.239
REMARK  Name = 
REMARK  4 active torsions:
REMARK  status: ('A' for Active; 'I' for Inactive)
REMARK    1  A    between atoms: C_1  and  C_2
REMARK    2  A    between atoms: C_4  and  C_5
REMARK    3  A    between atoms: C_10  and  C_11
REMARK    4  A    between atoms: C_11  and  C_12
REMARK                            x       y       z     vdW  Elec       q    Type
REMARK                         _______ _______ _______ _____ _____    ______ ____
ROOT
ATOM      1  C   UNL     1      45.035   7.356  11.418  0.00  0.00    +0.000 C 
ATOM      2  C   UNL     1      45.688   6.289  12.256  0.00  0.00    +0.000 A 
ATOM      3  C   UNL     1      46.688   6.700  13.154  0.00  0.00    +0.000 A 
ATOM      4  C   UNL     1      47.357   5.788  13.975  0.00  0.00    +0.000 A 
ATOM      5  C   UNL     1      46.961   4.451  13.938  0.00  0.00    +0.000 A 
ATOM      6  C   UNL     1      45.960   4.032  13.043  0.00  0.00    +0.000 A 
ATOM      7  C   UNL     1      45.330   4.922  12.147  0.00  0.00    +0.000 A 
ENDROOT
BRANCH   4   8
ATOM      8  C   UNL     1      48.478   6.314  14.810  0.00  0.00    +0.000 C 
ATOM      9  N   UNL     1      48.357   6.298  16.168  0.00  0.00    +0.000 N 
ATOM     10  O   UNL     1      49.514   6.731  14.301  0.00  0.00    +0.000 OA
ATOM     11  H   UNL     1      47.558   5.959  16.676  0.00  0.00    +0.000 HD
ATOM     12  H   UNL     1      49.155   6.632  16.692  0.00  0.00    +0.000 HD
ENDBRANCH   4   8
BRANCH   7  13
ATOM     13  C   UNL     1      44.412   4.397  11.012  0.00  0.00    +0.000 C 
ATOM     14  C   UNL     1      43.044   5.036  10.730  0.00  0.00    +0.000 C 
ATOM     15  C   UNL     1      43.105   3.812  11.569  0.00  0.00    +0.000 C 
BRANCH  13  16
ATOM     16  C   UNL     1      45.061   3.803   9.754  0.00  0.00    +0.000 A 
ATOM     17  C   UNL     1      45.652   4.609   8.765  0.00  0.00    +0.000 A 
ATOM     18  C   UNL     1      46.280   4.064   7.640  0.00  0.00    +0.000 A 
ATOM     19  C   UNL     1      46.354   2.685   7.488  0.00  0.00    +0.000 A 
ATOM     20  C   UNL     1      45.798   1.856   8.457  0.00  0.00    +0.000 A 
ATOM     21  C   UNL     1      45.154   2.410   9.570  0.00  0.00    +0.000 A 
ENDBRANCH  13  16
ENDBRANCH   7  13
TORSDOF 3
ENDMDL
MODEL 3
REMARK VINA RESULT:    -6.970      1.263      1.489
REMARK INTER + INTRA:          -8.432
REMARK INTER:                  -8.595
REMARK INTRA:                   0.163
REMARK UNBOUND:                -0.239
REMARK  Name = 
REMARK  4 active torsions:
REMARK  status: ('A' for Active; 'I' for Inactive)
REMARK    1  A    between atoms: C_1  and  C_2
REMARK    2  A    between atoms: C_4  and  C_5
REMARK    3  A    between atoms: C_10  and  C_11
REMARK    4  A    between atoms: C_11  and  C_12
REMARK                            x       y       z     vdW  Elec       q    Type
REMARK                         _______ _______ _______ _____ _____    ______ ____
ROOT
ATOM      1  C   UNL     1      43.461   2.504  11.592  0.00  0.00    +0.000 C 
ATOM      2  C   UNL     1      44.327   3.104  10.517  0.00  0.00    +0.000 A 
ATOM      3  C   UNL     1      44.894   2.221   9.582  0.00  0.00    +0.000 A 
ATOM      4  C   UNL     1      45.715   2.677   8.547  0.00  0.00    +0.000 A 
ATOM      5  C   UNL     1      45.910   4.051   8.413  0.00  0.00    +0.000 A 
ATOM      6  C   UNL     1      45.345   4.941   9.344  0.00  0.00    +0.000 A 
ATOM      7  C   UNL     1      44.581   4.497  10.444  0.00  0.00    +0.000 A 
ENDROOT
BRANCH   4   8
ATOM      8  C   UNL     1      46.355   1.644   7.677  0.00  0.00    +0.000 C 
ATOM      9  N   UNL     1      46.874   2.021   6.474  0.00  0.00    +0.000 N 
ATOM     10  O   UNL     1      46.448   0.474   8.035  0.00  0.00    +0.000 OA
ATOM     11  H   UNL     1      46.864   2.956   6.104  0.00  0.00    +0.000 HD
ATOM     12  H   UNL     1      47.328   1.295   5.936  0.00  0.00    +0.000 HD
ENDBRANCH   4   8
BRANCH   7  13
ATOM     13  C   UNL     1      44.177   5.470  11.583  0.00  0.00    +0.000 C 
ATOM     14  C   UNL     1      42.955   5.196  12.473  0.00  0.00    +0.000 C 
ATOM     15  C   UNL     1      42.809   6.114  11.314  0.00  0.00    +0.000 C 
BRANCH  13  16
ATOM     16  C   UNL     1      45.280   6.251  12.312  0.00  0.00    +0.000 A 
ATOM     17  C   UNL     1      46.341   5.607  12.973  0.00  0.00    +0.000 A 
ATOM     18  C   UNL     1      47.367   6.321  13.600  0.00  0.00    +0.000 A 
ATOM     19  C   UNL     1      47.370   7.709  13.561  0.00  0.00    +0.000 A 
ATOM     20  C   UNL     1      46.347   8.380  12.898  0.00  0.00    +0.000 A 
ATOM     21  C   UNL     1      45.313   7.659  12.290  0.00  0.00    +0.000 A 
ENDBRANCH  13  16
ENDBRANCH   7  13
TORSDOF 3
ENDMDL
MODEL 4
REMARK VINA RESULT:    -6.886      3.927      6.376
REMARK INTER + INTRA:          -8.332
REMARK INTER:                  -8.098
REMARK INTRA:                  -0.234
REMARK UNBOUND:                -0.239
REMARK  Name = 
REMARK  4 active torsions:
REMARK  status: ('A' for Active; 'I' for Inactive)
REMARK    1  A    between atoms: C_1  and  C_2
REMARK    2  A    between atoms: C_4  and  C_5
REMARK    3  A    between atoms: C_10  and  C_11
REMARK    4  A    between atoms: C_11  and  C_12
REMARK                            x       y       z     vdW  Elec       q    Type
REMARK                         _______ _______ _______ _____ _____    ______ ____
ROOT
ATOM      1  C   UNL     1      46.577   3.982  13.182  0.00  0.00    +0.000 C 
ATOM      2  C   UNL     1      46.444   5.465  12.963  0.00  0.00    +0.000 A 
ATOM      3  C   UNL     1      47.299   6.303  13.700  0.00  0.00    +0.000 A 
ATOM      4  C   UNL     1      47.254   7.693  13.571  0.00  0.00    +0.000 A 
ATOM      5  C   UNL     1      46.381   8.243  12.633  0.00  0.00    +0.000 A 
ATOM      6  C   UNL     1      45.523   7.412  11.891  0.00  0.00    +0.000 A 
ATOM      7  C   UNL     1      45.493   6.012  12.064  0.00  0.00    +0.000 A 
ENDROOT
BRANCH   4   8
ATOM      8  C   UNL     1      48.128   8.493  14.481  0.00  0.00    +0.000 C 
ATOM      9  N   UNL     1      47.565   9.142  15.540  0.00  0.00    +0.000 N 
ATOM     10  O   UNL     1      49.342   8.553  14.313  0.00  0.00    +0.000 OA
ATOM     11  H   UNL     1      46.586   9.136  15.771  0.00  0.00    +0.000 HD
ATOM     12  H   UNL     1      48.201   9.641  16.147  0.00  0.00    +0.000 HD
ENDBRANCH   4   8
BRANCH   7  13
ATOM     13  C   UNL     1      44.378   5.148  11.417  0.00  0.00    +0.000 C 
ATOM     14  C   UNL     1      42.916   5.618  11.394  0.00  0.00    +0.000 C 
ATOM     15  C   UNL     1      43.352   4.681  12.461  0.00  0.00    +0.000 C 
BRANCH  13  16
ATOM     16  C   UNL     1      44.736   4.258  10.219  0.00  0.00    +0.000 A 
ATOM     17  C   UNL     1      45.442   4.749   9.106  0.00  0.00    +0.000 A 
ATOM     18  C   UNL     1      45.803   3.927   8.035  0.00  0.00    +0.000 A 
ATOM     19  C   UNL     1      45.487   2.575   8.061  0.00  0.00    +0.000 A 
ATOM     20  C   UNL     1      44.808   2.049   9.156  0.00  0.00    +0.000 A 
ATOM     21  C   UNL     1      44.432   2.883  10.215  0.00  0.00    +0.000 A 
ENDBRANCH  13  16
ENDBRANCH   7  13
TORSDOF 3
ENDMDL
MODEL 5
REMARK VINA RESULT:    -6.008      1.874      3.003
REMARK INTER + INTRA:          -7.301
REMARK INTER:                  -6.860
REMARK INTRA:                  -0.441
REMARK UNBOUND:                -0.239
REMARK  Name = 
REMARK  4 active torsions:
REMARK  status: ('A' for Active; 'I' for Inactive)
REMARK    1  A    between atoms: C_1  and  C_2
REMARK    2  A    between atoms: C_4  and  C_5
REMARK    3  A    between atoms: C_10  and  C_11
REMARK    4  A    between atoms: C_11  and  C_12
REMARK                            x       y       z     vdW  Elec       q    Type
REMARK                         _______ _______ _______ _____ _____    ______ ____
ROOT
ATOM      1  C   UNL     1      44.948   4.234  13.078  0.00  0.00    +0.000 C 
ATOM      2  C   UNL     1      45.204   4.352  11.599  0.00  0.00    +0.000 A 
ATOM      3  C   UNL     1      45.124   3.173  10.837  0.00  0.00    +0.000 A 
ATOM      4  C   UNL     1      45.346   3.175   9.458  0.00  0.00    +0.000 A 
ATOM      5  C   UNL     1      45.585   4.395   8.827  0.00  0.00    +0.000 A 
ATOM      6  C   UNL     1      45.666   5.579   9.582  0.00  0.00    +0.000 A 
ATOM      7  C   UNL     1      45.527   5.589  10.987  0.00  0.00    +0.000 A 
ENDROOT
BRANCH   4   8
ATOM      8  C   UNL     1      45.345   1.851   8.764  0.00  0.00    +0.000 C 
ATOM      9  N   UNL     1      46.435   1.488   8.030  0.00  0.00    +0.000 N 
ATOM     10  O   UNL     1      44.400   1.076   8.865  0.00  0.00    +0.000 OA
ATOM     11  H   UNL     1      47.264   2.045   7.905  0.00  0.00    +0.000 HD
ATOM     12  H   UNL     1      46.403   0.569   7.608  0.00  0.00    +0.000 HD
ENDBRANCH   4   8
BRANCH   7  13
ATOM     13  C   UNL     1      45.859   6.858  11.815  0.00  0.00    +0.000 C 
ATOM     14  C   UNL     1      44.827   7.487  12.763  0.00  0.00    +0.000 C 
ATOM     15  C   UNL     1      44.984   8.049  11.397  0.00  0.00    +0.000 C 
BRANCH  13  16
ATOM     16  C   UNL     1      47.305   7.075  12.282  0.00  0.00    +0.000 A 
ATOM     17  C   UNL     1      48.306   7.557  11.420  0.00  0.00    +0.000 A 
ATOM     18  C   UNL     1      49.612   7.794  11.858  0.00  0.00    +0.000 A 
ATOM     19  C   UNL     1      49.947   7.577  13.188  0.00  0.00    +0.000 A 
ATOM     20  C   UNL     1      48.978   7.121  14.076  0.00  0.00    +0.000 A 
ATOM     21  C   UNL     1      47.677   6.866  13.625  0.00  0.00    +0.000 A 
ENDBRANCH  13  16
ENDBRANCH   7  13
TORSDOF 3
ENDMDL
MODEL 6
REMARK VINA RESULT:    -5.643      3.961      5.835
REMARK INTER + INTRA:          -6.872
REMARK INTER:                  -6.375
REMARK INTRA:                  -0.497
REMARK UNBOUND:                -0.239
REMARK  Name = 
REMARK  4 active torsions:
REMARK  status: ('A' for Active; 'I' for Inactive)
REMARK    1  A    between atoms: C_1  and  C_2
REMARK    2  A    between atoms: C_4  and  C_5
REMARK    3  A    between atoms: C_10  and  C_11
REMARK    4  A    between atoms: C_11  and  C_12
REMARK                            x       y       z     vdW  Elec       q    Type
REMARK                         _______ _______ _______ _____ _____    ______ ____
ROOT
ATOM      1  C   UNL     1      45.454   9.473  12.235  0.00  0.00    +0.000 C 
ATOM      2  C   UNL     1      45.545   7.984  12.032  0.00  0.00    +0.000 A 
ATOM      3  C   UNL     1      44.343   7.293  11.804  0.00  0.00    +0.000 A 
ATOM      4  C   UNL     1      44.318   5.910  11.607  0.00  0.00    +0.000 A 
ATOM      5  C   UNL     1      45.532   5.224  11.571  0.00  0.00    +0.000 A 
ATOM      6  C   UNL     1      46.740   5.909  11.798  0.00  0.00    +0.000 A 
ATOM      7  C   UNL     1      46.781   7.291  12.081  0.00  0.00    +0.000 A 
ENDROOT
BRANCH   4   8
ATOM      8  C   UNL     1      42.978   5.260  11.483  0.00  0.00    +0.000 C 
ATOM      9  N   UNL     1      41.859   5.996  11.735  0.00  0.00    +0.000 N 
ATOM     10  O   UNL     1      42.864   4.090  11.131  0.00  0.00    +0.000 OA
ATOM     11  H   UNL     1      41.850   6.965  12.009  0.00  0.00    +0.000 HD
ATOM     12  H   UNL     1      40.975   5.524  11.604  0.00  0.00    +0.000 HD
ENDBRANCH   4   8
BRANCH   7  13
ATOM     13  C   UNL     1      48.089   7.970  12.565  0.00  0.00    +0.000 C 
ATOM     14  C   UNL     1      48.712   9.145  11.795  0.00  0.00    +0.000 C 
ATOM     15  C   UNL     1      49.231   7.774  11.556  0.00  0.00    +0.000 C 
BRANCH  13  16
ATOM     16  C   UNL     1      48.378   8.027  14.071  0.00  0.00    +0.000 A 
ATOM     17  C   UNL     1      48.228   9.209  14.818  0.00  0.00    +0.000 A 
ATOM     18  C   UNL     1      48.451   9.248  16.198  0.00  0.00    +0.000 A 
ATOM     19  C   UNL     1      48.808   8.090  16.876  0.00  0.00    +0.000 A 
ATOM     20  C   UNL     1      48.945   6.897  16.173  0.00  0.00    +0.000 A 
ATOM     21  C   UNL     1      48.740   6.870  14.789  0.00  0.00    +0.000 A 
ENDBRANCH  13  16
ENDBRANCH   7  13
TORSDOF 3
ENDMDL
MODEL 7
REMARK VINA RESULT:    -5.405      4.380      6.758
REMARK INTER + INTRA:          -6.592
REMARK INTER:                  -6.227
REMARK INTRA:                  -0.366
REMARK UNBOUND:                -0.239
REMARK  Name = 
REMARK  4 active torsions:
REMARK  status: ('A' for Active; 'I' for Inactive)
REMARK    1  A    between atoms: C_1  and  C_2
REMARK    2  A    between atoms: C_4  and  C_5
REMARK    3  A    between atoms: C_10  and  C_11
REMARK    4  A    between atoms: C_11  and  C_12
REMARK                            x       y       z     vdW  Elec       q    Type
REMARK                         _______ _______ _______ _____ _____    ______ ____
ROOT
ATOM      1  C   UNL     1      49.271   7.762  14.833  0.00  0.00    +0.000 C 
ATOM      2  C   UNL     1      48.333   7.112  13.851  0.00  0.00    +0.000 A 
ATOM      3  C   UNL     1      47.912   5.802  14.136  0.00  0.00    +0.000 A 
ATOM      4  C   UNL     1      47.044   5.110  13.288  0.00  0.00    +0.000 A 
ATOM      5  C   UNL     1      46.540   5.775  12.171  0.00  0.00    +0.000 A 
ATOM      6  C   UNL     1      46.956   7.086  11.879  0.00  0.00    +0.000 A 
ATOM      7  C   UNL     1      47.895   7.774  12.677  0.00  0.00    +0.000 A 
ENDROOT
BRANCH   4   8
ATOM      8  C   UNL     1      46.748   3.685  13.627  0.00  0.00    +0.000 C 
ATOM      9  N   UNL     1      45.768   3.030  12.942  0.00  0.00    +0.000 N 
ATOM     10  O   UNL     1      47.387   3.086  14.487  0.00  0.00    +0.000 OA
ATOM     11  H   UNL     1      45.205   3.429  12.209  0.00  0.00    +0.000 HD
ATOM     12  H   UNL     1      45.628   2.058  13.183  0.00  0.00    +0.000 HD
ENDBRANCH   4   8
BRANCH   7  13
ATOM     13  C   UNL     1      48.518   9.114  12.204  0.00  0.00    +0.000 C 
ATOM     14  C   UNL     1      48.262  10.426  12.962  0.00  0.00    +0.000 C 
ATOM     15  C   UNL     1      47.436  10.114  11.767  0.00  0.00    +0.000 C 
BRANCH  13  16
ATOM     16  C   UNL     1      49.885   9.087  11.507  0.00  0.00    +0.000 A 
ATOM     17  C   UNL     1      50.615  10.260  11.246  0.00  0.00    +0.000 A 
ATOM     18  C   UNL     1      51.879  10.230  10.649  0.00  0.00    +0.000 A 
ATOM     19  C   UNL     1      52.461   9.013  10.318  0.00  0.00    +0.000 A 
ATOM     20  C   UNL     1      51.777   7.831  10.581  0.00  0.00    +0.000 A 
ATOM     21  C   UNL     1      50.503   7.870  11.160  0.00  0.00    +0.000 A 
ENDBRANCH  13  16
ENDBRANCH   7  13
TORSDOF 3
ENDMDL
MODEL 8
REMARK VINA RESULT:    -5.371      4.691      6.567
REMARK INTER + INTRA:          -6.552
REMARK INTER:                  -6.357
REMARK INTRA:                  -0.195
REMARK UNBOUND:                -0.239
REMARK  Name = 
REMARK  4 active torsions:
REMARK  status: ('A' for Active; 'I' for Inactive)
REMARK    1  A    between atoms: C_1  and  C_2
REMARK    2  A    between atoms: C_4  and  C_5
REMARK    3  A    between atoms: C_10  and  C_11
REMARK    4  A    between atoms: C_11  and  C_12
REMARK                            x       y       z     vdW  Elec       q    Type
REMARK                         _______ _______ _______ _____ _____    ______ ____
ROOT
ATOM      1  C   UNL     1      46.427   8.767  12.395  0.00  0.00    +0.000 C 
ATOM      2  C   UNL     1      46.380   7.371  12.956  0.00  0.00    +0.000 A 
ATOM      3  C   UNL     1      45.201   6.634  12.750  0.00  0.00    +0.000 A 
ATOM      4  C   UNL     1      45.056   5.331  13.232  0.00  0.00    +0.000 A 
ATOM      5  C   UNL     1      46.144   4.737  13.872  0.00  0.00    +0.000 A 
ATOM      6  C   UNL     1      47.327   5.467  14.082  0.00  0.00    +0.000 A 
ATOM      7  C   UNL     1      47.466   6.811  13.677  0.00  0.00    +0.000 A 
ENDROOT
BRANCH   4   8
ATOM      8  C   UNL     1      43.723   4.680  13.054  0.00  0.00    +0.000 C 
ATOM      9  N   UNL     1      42.612   5.463  12.948  0.00  0.00    +0.000 N 
ATOM     10  O   UNL     1      43.612   3.461  12.971  0.00  0.00    +0.000 OA
ATOM     11  H   UNL     1      42.604   6.469  12.984  0.00  0.00    +0.000 HD
ATOM     12  H   UNL     1      41.737   4.979  12.794  0.00  0.00    +0.000 HD
ENDBRANCH   4   8
BRANCH   7  13
ATOM     13  C   UNL     1      48.680   7.663  14.132  0.00  0.00    +0.000 C 
ATOM     14  C   UNL     1      49.106   7.724  15.606  0.00  0.00    +0.000 C 
ATOM     15  C   UNL     1      48.248   8.807  15.062  0.00  0.00    +0.000 C 
BRANCH  13  16
ATOM     16  C   UNL     1      49.859   7.845  13.165  0.00  0.00    +0.000 A 
ATOM     17  C   UNL     1      49.771   7.498  11.805  0.00  0.00    +0.000 A 
ATOM     18  C   UNL     1      50.831   7.702  10.917  0.00  0.00    +0.000 A 
ATOM     19  C   UNL     1      52.008   8.288  11.366  0.00  0.00    +0.000 A 
ATOM     20  C   UNL     1      52.124   8.663  12.700  0.00  0.00    +0.000 A 
ATOM     21  C   UNL     1      51.065   8.436  13.588  0.00  0.00    +0.000 A 
ENDBRANCH  13  16
ENDBRANCH   7  13
TORSDOF 3
ENDMDL
MODEL 9
REMARK VINA RESULT:    -5.173      3.302      5.488
REMARK INTER + INTRA:          -6.320
REMARK INTER:                  -5.756
REMARK INTRA:                  -0.563
REMARK UNBOUND:                -0.239
REMARK  Name = 
REMARK  4 active torsions:
REMARK  status: ('A' for Active; 'I' for Inactive)
REMARK    1  A    between atoms: C_1  and  C_2
REMARK    2  A    between atoms: C_4  and  C_5
REMARK    3  A    between atoms: C_10  and  C_11
REMARK    4  A    between atoms: C_11  and  C_12
REMARK                            x       y       z     vdW  Elec       q    Type
REMARK                         _______ _______ _______ _____ _____    ______ ____
ROOT
ATOM      1  C   UNL     1      47.845   5.860  14.649  0.00  0.00    +0.000 C 
ATOM      2  C   UNL     1      46.988   5.915  13.412  0.00  0.00    +0.000 A 
ATOM      3  C   UNL     1      46.321   4.735  13.040  0.00  0.00    +0.000 A 
ATOM      4  C   UNL     1      45.504   4.680  11.909  0.00  0.00    +0.000 A 
ATOM      5  C   UNL     1      45.301   5.852  11.180  0.00  0.00    +0.000 A 
ATOM      6  C   UNL     1      45.964   7.037  11.547  0.00  0.00    +0.000 A 
ATOM      7  C   UNL     1      46.858   7.095  12.637  0.00  0.00    +0.000 A 
ENDROOT
BRANCH   4   8
ATOM      8  C   UNL     1      44.932   3.348  11.542  0.00  0.00    +0.000 C 
ATOM      9  N   UNL     1      44.305   2.610  12.500  0.00  0.00    +0.000 N 
ATOM     10  O   UNL     1      44.990   2.922  10.392  0.00  0.00    +0.000 OA
ATOM     11  H   UNL     1      44.191   2.882  13.462  0.00  0.00    +0.000 HD
ATOM     12  H   UNL     1      43.904   1.732  12.197  0.00  0.00    +0.000 HD
ENDBRANCH   4   8
BRANCH   7  13
ATOM     13  C   UNL     1      47.756   8.339  12.871  0.00  0.00    +0.000 C 
ATOM     14  C   UNL     1      47.529   9.273  14.069  0.00  0.00    +0.000 C 
ATOM     15  C   UNL     1      46.952   9.643  12.750  0.00  0.00    +0.000 C 
BRANCH  13  16
ATOM     16  C   UNL     1      49.225   8.281  12.431  0.00  0.00    +0.000 A 
ATOM     17  C   UNL     1      50.268   8.765  13.240  0.00  0.00    +0.000 A 
ATOM     18  C   UNL     1      51.610   8.674  12.855  0.00  0.00    +0.000 A 
ATOM     19  C   UNL     1      51.946   8.068  11.651  0.00  0.00    +0.000 A 
ATOM     20  C   UNL     1      50.942   7.560  10.834  0.00  0.00    +0.000 A 
ATOM     21  C   UNL     1      49.600   7.673  11.216  0.00  0.00    +0.000 A 
ENDBRANCH  13  16
ENDBRANCH   7  13
TORSDOF 3
ENDMDL
