MODEL 1
REMARK VINA RESULT:    -8.024      0.000      0.000
REMARK INTER + INTRA:         -12.428
REMARK INTER:                 -11.308
REMARK INTRA:                  -1.120
REMARK UNBOUND:                -1.120
REMARK  Name = 
REMARK  8 active torsions:
REMARK  status: ('A' for Active; 'I' for Inactive)
REMARK    1  A    between atoms: C_1  and  O_2
REMARK    2  A    between atoms: O_2  and  C_3
REMARK    3  A    between atoms: C_5  and  C_6
REMARK    4  A    between atoms: C_6  and  N_7
REMARK    5  A    between atoms: C_8  and  C_10
REMARK    6  A    between atoms: C_17  and  C_18
REMARK    7  A    between atoms: C_18  and  N_19
REMARK    8  A    between atoms: C_20  and  C_22
REMARK                            x       y       z     vdW  Elec       q    Type
REMARK                         _______ _______ _______ _____ _____    ______ ____
ROOT
ATOM      1  C   UNL     1      46.856   5.504  13.042  0.00  0.00    +0.000 A 
ATOM      2  C   UNL     1      45.888   4.823  12.285  0.00  0.00    +0.000 A 
ATOM      3  C   UNL     1      45.048   5.508  11.392  0.00  0.00    +0.000 A 
ATOM      4  C   UNL     1      45.193   6.892  11.263  0.00  0.00    +0.000 A 
ATOM      5  C   UNL     1      46.149   7.577  12.017  0.00  0.00    +0.000 A 
ATOM      6  C   UNL     1      46.989   6.898  12.916  0.00  0.00    +0.000 A 
ENDROOT
BRANCH   1   8
ATOM      7  C   UNL     1      47.058   3.989  14.860  0.00  0.00    +0.000 C 
ATOM      8  O   UNL     1      47.683   4.885  13.945  0.00  0.00    +0.000 OA
ENDBRANCH   1   8
BRANCH   3   9
ATOM      9  C   UNL     1      44.040   4.754  10.561  0.00  0.00    +0.000 C 
BRANCH   9  10
ATOM     10  N   UNL     1      44.662   3.664   9.849  0.00  0.00    +0.000 N 
ATOM     11  C   UNL     1      45.454   3.883   8.744  0.00  0.00    +0.000 C 
ATOM     12  O   UNL     1      45.642   5.002   8.281  0.00  0.00    +0.000 OA
ATOM     13  H   UNL     1      44.601   2.738  10.243  0.00  0.00    +0.000 HD
BRANCH  11  14
ATOM     14  C   UNL     1      46.058   2.692   8.180  0.00  0.00    +0.000 A 
ATOM     15  C   UNL     1      45.844   1.339   8.411  0.00  0.00    +0.000 A 
ATOM     16  C   UNL     1      46.722   0.601   7.579  0.00  0.00    +0.000 A 
ATOM     17  C   UNL     1      47.455   1.510   6.855  0.00  0.00    +0.000 A 
ATOM     18  N   UNL     1      47.048   2.765   7.219  0.00  0.00    +0.000 N 
ATOM     19  H   UNL     1      47.410   3.638   6.851  0.00  0.00    +0.000 HD
ENDBRANCH  11  14
ENDBRANCH   9  10
ENDBRANCH   3   9
BRANCH   6  20
ATOM     20  C   UNL     1      48.042   7.690  13.661  0.00  0.00    +0.000 C 
BRANCH  20  21
ATOM     21  N   UNL     1      47.933   7.475  15.091  0.00  0.00    +0.000 N 
ATOM     22  C   UNL     1      49.005   7.121  15.870  0.00  0.00    +0.000 C 
ATOM     23  O   UNL     1      50.089   6.797  15.395  0.00  0.00    +0.000 OA
ATOM     24  H   UNL     1      47.142   7.930  15.528  0.00  0.00    +0.000 HD
BRANCH  22  25
ATOM     25  C   UNL     1      48.773   7.102  17.323  0.00  0.00    +0.000 A 
ATOM     26  C   UNL     1      48.352   8.253  17.976  0.00  0.00    +0.000 A 
ATOM     27  S   UNL     1      48.120   8.041  19.653  0.00  0.00    +0.000 S 
ATOM     28  C   UNL     1      48.538   6.393  19.558  0.00  0.00    +0.000 A 
ATOM     29  N   UNL     1      48.504   5.597  20.660  0.00  0.00    +0.000 NA
ATOM     30  C   UNL     1      48.806   4.362  20.435  0.00  0.00    +0.000 A 
ATOM     31  N   UNL     1      49.152   3.854  19.210  0.00  0.00    +0.000 N 
ATOM     32  C   UNL     1      49.263   4.634  18.083  0.00  0.00    +0.000 A 
ATOM     33  O   UNL     1      49.685   4.169  17.030  0.00  0.00    +0.000 OA
ATOM     34  C   UNL     1      48.886   6.021  18.271  0.00  0.00    +0.000 A 
ATOM     35  H   UNL     1      49.408   2.884  19.105  0.00  0.00    +0.000 HD
ENDBRANCH  22  25
ENDBRANCH  20  21
ENDBRANCH   6  20
TORSDOF 7
ENDMDL
MODEL 2
REMARK VINA RESULT:    -7.915      1.783      2.533
REMARK INTER + INTRA:         -12.274
REMARK INTER:                 -11.168
REMARK INTRA:                  -1.106
REMARK UNBOUND:                -1.120
REMARK  Name = 
REMARK  8 active torsions:
REMARK  status: ('A' for Active; 'I' for Inactive)
REMARK    1  A    between atoms: C_1  and  O_2
REMARK    2  A    between atoms: O_2  and  C_3
REMARK    3  A    between atoms: C_5  and  C_6
REMARK    4  A    between atoms: C_6  and  N_7
REMARK    5  A    between atoms: C_8  and  C_10
REMARK    6  A    between atoms: C_17  and  C_18
REMARK    7  A    between atoms: C_18  and  N_19
REMARK    8  A    between atoms: C_20  and  C_22
REMARK                            x       y       z     vdW  Elec       q    Type
REMARK                         _______ _______ _______ _____ _____    ______ ____
ROOT
ATOM      1  C   UNL     1      45.416   8.237  12.313  0.00  0.00    +0.000 A 
ATOM      2  C   UNL     1      44.656   7.420  11.460  0.00  0.00    +0.000 A 
ATOM      3  C   UNL     1      45.043   6.098  11.182  0.00  0.00    +0.000 A 
ATOM      4  C   UNL     1      46.204   5.600  11.778  0.00  0.00    +0.000 A 
ATOM      5  C   UNL     1      46.969   6.409  12.624  0.00  0.00    +0.000 A 
ATOM      6  C   UNL     1      46.590   7.734  12.900  0.00  0.00    +0.000 A 
ENDROOT
BRANCH   1   8
ATOM      7  C   UNL     1      45.041  10.431  11.484  0.00  0.00    +0.000 C 
ATOM      8  O   UNL     1      45.096   9.541  12.595  0.00  0.00    +0.000 OA
ENDBRANCH   1   8
BRANCH   3   9
ATOM      9  C   UNL     1      44.193   5.225  10.292  0.00  0.00    +0.000 C 
BRANCH   9  10
ATOM     10  N   UNL     1      44.990   4.587   9.272  0.00  0.00    +0.000 N 
ATOM     11  C   UNL     1      45.048   3.216   9.155  0.00  0.00    +0.000 C 
ATOM     12  O   UNL     1      44.465   2.465   9.928  0.00  0.00    +0.000 OA
ATOM     13  H   UNL     1      45.419   5.166   8.568  0.00  0.00    +0.000 HD
BRANCH  11  14
ATOM     14  C   UNL     1      45.841   2.732   8.042  0.00  0.00    +0.000 A 
ATOM     15  C   UNL     1      46.175   3.299   6.819  0.00  0.00    +0.000 A 
ATOM     16  C   UNL     1      46.977   2.376   6.105  0.00  0.00    +0.000 A 
ATOM     17  C   UNL     1      47.123   1.263   6.899  0.00  0.00    +0.000 A 
ATOM     18  N   UNL     1      46.438   1.487   8.064  0.00  0.00    +0.000 N 
ATOM     19  H   UNL     1      46.366   0.842   8.843  0.00  0.00    +0.000 HD
ENDBRANCH  11  14
ENDBRANCH   9  10
ENDBRANCH   3   9
BRANCH   6  20
ATOM     20  C   UNL     1      47.430   8.539  13.869  0.00  0.00    +0.000 C 
BRANCH  20  21
ATOM     21  N   UNL     1      47.876   7.713  14.974  0.00  0.00    +0.000 N 
ATOM     22  C   UNL     1      49.181   7.324  15.129  0.00  0.00    +0.000 C 
ATOM     23  O   UNL     1      50.032   7.504  14.263  0.00  0.00    +0.000 OA
ATOM     24  H   UNL     1      47.273   7.733  15.788  0.00  0.00    +0.000 HD
BRANCH  22  25
ATOM     25  C   UNL     1      49.508   6.630  16.385  0.00  0.00    +0.000 A 
ATOM     26  C   UNL     1      50.431   7.180  17.265  0.00  0.00    +0.000 A 
ATOM     27  S   UNL     1      50.671   6.247  18.674  0.00  0.00    +0.000 S 
ATOM     28  C   UNL     1      49.522   5.096  18.173  0.00  0.00    +0.000 A 
ATOM     29  N   UNL     1      49.210   4.030  18.958  0.00  0.00    +0.000 NA
ATOM     30  C   UNL     1      48.295   3.260  18.473  0.00  0.00    +0.000 A 
ATOM     31  N   UNL     1      47.673   3.451  17.267  0.00  0.00    +0.000 N 
ATOM     32  C   UNL     1      48.002   4.476  16.412  0.00  0.00    +0.000 A 
ATOM     33  O   UNL     1      47.507   4.551  15.293  0.00  0.00    +0.000 OA
ATOM     34  C   UNL     1      48.992   5.400  16.931  0.00  0.00    +0.000 A 
ATOM     35  H   UNL     1      46.985   2.795  16.929  0.00  0.00    +0.000 HD
ENDBRANCH  22  25
ENDBRANCH  20  21
ENDBRANCH   6  20
TORSDOF 7
ENDMDL
MODEL 3
REMARK VINA RESULT:    -7.664      1.358      2.063
REMARK INTER + INTRA:         -11.920
REMARK INTER:                 -10.728
REMARK INTRA:                  -1.192
REMARK UNBOUND:                -1.120
REMARK  Name = 
REMARK  8 active torsions:
REMARK  status: ('A' for Active; 'I' for Inactive)
REMARK    1  A    between atoms: C_1  and  O_2
REMARK    2  A    between atoms: O_2  and  C_3
REMARK    3  A    between atoms: C_5  and  C_6
REMARK    4  A    between atoms: C_6  and  N_7
REMARK    5  A    between atoms: C_8  and  C_10
REMARK    6  A    between atoms: C_17  and  C_18
REMARK    7  A    between atoms: C_18  and  N_19
REMARK    8  A    between atoms: C_20  and  C_22
REMARK                            x       y       z     vdW  Elec       q    Type
REMARK                         _______ _______ _______ _____ _____    ______ ____
ROOT
ATOM      1  C   UNL     1      46.805   5.425  13.056  0.00  0.00    +0.000 A 
ATOM      2  C   UNL     1      45.858   4.808  12.222  0.00  0.00    +0.000 A 
ATOM      3  C   UNL     1      45.056   5.561  11.349  0.00  0.00    +0.000 A 
ATOM      4  C   UNL     1      45.221   6.948  11.316  0.00  0.00    +0.000 A 
ATOM      5  C   UNL     1      46.158   7.570  12.146  0.00  0.00    +0.000 A 
ATOM      6  C   UNL     1      46.957   6.822  13.027  0.00  0.00    +0.000 A 
ENDROOT
BRANCH   1   8
ATOM      7  C   UNL     1      47.129   3.446  14.328  0.00  0.00    +0.000 C 
ATOM      8  O   UNL     1      47.593   4.737  13.944  0.00  0.00    +0.000 OA
ENDBRANCH   1   8
BRANCH   3   9
ATOM      9  C   UNL     1      44.070   4.876  10.435  0.00  0.00    +0.000 C 
BRANCH   9  10
ATOM     10  N   UNL     1      44.689   3.783   9.725  0.00  0.00    +0.000 N 
ATOM     11  C   UNL     1      45.568   4.002   8.687  0.00  0.00    +0.000 C 
ATOM     12  O   UNL     1      45.841   5.127   8.284  0.00  0.00    +0.000 OA
ATOM     13  H   UNL     1      44.556   2.848  10.077  0.00  0.00    +0.000 HD
BRANCH  11  14
ATOM     14  C   UNL     1      46.153   2.804   8.119  0.00  0.00    +0.000 A 
ATOM     15  C   UNL     1      45.940   1.454   8.369  0.00  0.00    +0.000 A 
ATOM     16  C   UNL     1      46.794   0.705   7.522  0.00  0.00    +0.000 A 
ATOM     17  C   UNL     1      47.511   1.604   6.770  0.00  0.00    +0.000 A 
ATOM     18  N   UNL     1      47.118   2.864   7.133  0.00  0.00    +0.000 N 
ATOM     19  H   UNL     1      47.473   3.732   6.747  0.00  0.00    +0.000 HD
ENDBRANCH  11  14
ENDBRANCH   9  10
ENDBRANCH   3   9
BRANCH   6  20
ATOM     20  C   UNL     1      47.992   7.550  13.858  0.00  0.00    +0.000 C 
BRANCH  20  21
ATOM     21  N   UNL     1      47.911   7.148  15.249  0.00  0.00    +0.000 N 
ATOM     22  C   UNL     1      49.015   6.800  15.985  0.00  0.00    +0.000 C 
ATOM     23  O   UNL     1      50.122   6.641  15.480  0.00  0.00    +0.000 OA
ATOM     24  H   UNL     1      47.083   7.469  15.735  0.00  0.00    +0.000 HD
BRANCH  22  25
ATOM     25  C   UNL     1      48.793   6.578  17.423  0.00  0.00    +0.000 A 
ATOM     26  C   UNL     1      49.116   5.355  17.996  0.00  0.00    +0.000 A 
ATOM     27  S   UNL     1      48.807   5.285  19.673  0.00  0.00    +0.000 S 
ATOM     28  C   UNL     1      48.269   6.900  19.697  0.00  0.00    +0.000 A 
ATOM     29  N   UNL     1      47.885   7.494  20.860  0.00  0.00    +0.000 NA
ATOM     30  C   UNL     1      47.539   8.731  20.737  0.00  0.00    +0.000 A 
ATOM     31  N   UNL     1      47.528   9.425  19.555  0.00  0.00    +0.000 N 
ATOM     32  C   UNL     1      47.844   8.848  18.348  0.00  0.00    +0.000 A 
ATOM     33  O   UNL     1      47.714   9.465  17.297  0.00  0.00    +0.000 OA
ATOM     34  C   UNL     1      48.288   7.470  18.436  0.00  0.00    +0.000 A 
ATOM     35  H   UNL     1      47.217  10.384  19.520  0.00  0.00    +0.000 HD
ENDBRANCH  22  25
ENDBRANCH  20  21
ENDBRANCH   6  20
TORSDOF 7
ENDMDL
MODEL 4
REMARK VINA RESULT:    -7.363      1.628      2.549
REMARK INTER + INTRA:         -11.496
REMARK INTER:                 -10.330
REMARK INTRA:                  -1.165
REMARK UNBOUND:                -1.120
REMARK  Name = 
REMARK  8 active torsions:
REMARK  status: ('A' for Active; 'I' for Inactive)
REMARK    1  A    between atoms: C_1  and  O_2
REMARK    2  A    between atoms: O_2  and  C_3
REMARK    3  A    between atoms: C_5  and  C_6
REMARK    4  A    between atoms: C_6  and  N_7
REMARK    5  A    between atoms: C_8  and  C_10
REMARK    6  A    between atoms: C_17  and  C_18
REMARK    7  A    between atoms: C_18  and  N_19
REMARK    8  A    between atoms: C_20  and  C_22
REMARK                            x       y       z     vdW  Elec       q    Type
REMARK                         _______ _______ _______ _____ _____    ______ ____
ROOT
ATOM      1  C   UNL     1      46.183   7.088  12.177  0.00  0.00    +0.000 A 
ATOM      2  C   UNL     1      45.332   6.239  11.450  0.00  0.00    +0.000 A 
ATOM      3  C   UNL     1      45.210   4.878  11.773  0.00  0.00    +0.000 A 
ATOM      4  C   UNL     1      45.953   4.375  12.844  0.00  0.00    +0.000 A 
ATOM      5  C   UNL     1      46.807   5.211  13.569  0.00  0.00    +0.000 A 
ATOM      6  C   UNL     1      46.937   6.572  13.245  0.00  0.00    +0.000 A 
ENDROOT
BRANCH   1   8
ATOM      7  C   UNL     1      45.232   9.263  12.107  0.00  0.00    +0.000 C 
ATOM      8  O   UNL     1      46.356   8.417  11.884  0.00  0.00    +0.000 OA
ENDBRANCH   1   8
BRANCH   3   9
ATOM      9  C   UNL     1      44.262   3.992  11.004  0.00  0.00    +0.000 C 
BRANCH   9  10
ATOM     10  N   UNL     1      44.977   3.132  10.091  0.00  0.00    +0.000 N 
ATOM     11  C   UNL     1      45.277   3.534   8.808  0.00  0.00    +0.000 C 
ATOM     12  O   UNL     1      44.923   4.617   8.358  0.00  0.00    +0.000 OA
ATOM     13  H   UNL     1      45.357   2.269  10.445  0.00  0.00    +0.000 HD
BRANCH  11  14
ATOM     14  C   UNL     1      46.054   2.583   8.037  0.00  0.00    +0.000 A 
ATOM     15  C   UNL     1      46.913   2.738   6.956  0.00  0.00    +0.000 A 
ATOM     16  C   UNL     1      47.404   1.461   6.591  0.00  0.00    +0.000 A 
ATOM     17  C   UNL     1      46.842   0.548   7.451  0.00  0.00    +0.000 A 
ATOM     18  N   UNL     1      46.034   1.231   8.320  0.00  0.00    +0.000 N 
ATOM     19  H   UNL     1      45.487   0.822   9.069  0.00  0.00    +0.000 HD
ENDBRANCH  11  14
ENDBRANCH   9  10
ENDBRANCH   3   9
BRANCH   6  20
ATOM     20  C   UNL     1      47.835   7.437  14.105  0.00  0.00    +0.000 C 
BRANCH  20  21
ATOM     21  N   UNL     1      48.103   6.797  15.377  0.00  0.00    +0.000 N 
ATOM     22  C   UNL     1      49.371   6.637  15.874  0.00  0.00    +0.000 C 
ATOM     23  O   UNL     1      50.375   6.872  15.209  0.00  0.00    +0.000 OA
ATOM     24  H   UNL     1      47.323   6.794  16.023  0.00  0.00    +0.000 HD
BRANCH  22  25
ATOM     25  C   UNL     1      49.471   6.121  17.249  0.00  0.00    +0.000 A 
ATOM     26  C   UNL     1      50.113   4.915  17.495  0.00  0.00    +0.000 A 
ATOM     27  S   UNL     1      50.146   4.483  19.146  0.00  0.00    +0.000 S 
ATOM     28  C   UNL     1      49.337   5.913  19.592  0.00  0.00    +0.000 A 
ATOM     29  N   UNL     1      49.079   6.194  20.898  0.00  0.00    +0.000 NA
ATOM     30  C   UNL     1      48.497   7.329  21.094  0.00  0.00    +0.000 A 
ATOM     31  N   UNL     1      48.136   8.202  20.102  0.00  0.00    +0.000 N 
ATOM     32  C   UNL     1      48.317   7.932  18.766  0.00  0.00    +0.000 A 
ATOM     33  O   UNL     1      47.880   8.683  17.902  0.00  0.00    +0.000 OA
ATOM     34  C   UNL     1      49.013   6.689  18.493  0.00  0.00    +0.000 A 
ATOM     35  H   UNL     1      47.654   9.062  20.319  0.00  0.00    +0.000 HD
ENDBRANCH  22  25
ENDBRANCH  20  21
ENDBRANCH   6  20
TORSDOF 7
ENDMDL
MODEL 5
REMARK VINA RESULT:    -7.343      3.802      5.287
REMARK INTER + INTRA:         -11.467
REMARK INTER:                 -10.067
REMARK INTRA:                  -1.400
REMARK UNBOUND:                -1.120
REMARK  Name = 
REMARK  8 active torsions:
REMARK  status: ('A' for Active; 'I' for Inactive)
REMARK    1  A    between atoms: C_1  and  O_2
REMARK    2  A    between atoms: O_2  and  C_3
REMARK    3  A    between atoms: C_5  and  C_6
REMARK    4  A    between atoms: C_6  and  N_7
REMARK    5  A    between atoms: C_8  and  C_10
REMARK    6  A    between atoms: C_17  and  C_18
REMARK    7  A    between atoms: C_18  and  N_19
REMARK    8  A    between atoms: C_20  and  C_22
REMARK                            x       y       z     vdW  Elec       q    Type
REMARK                         _______ _______ _______ _____ _____    ______ ____
ROOT
ATOM      1  C   UNL     1      46.203   5.889  13.039  0.00  0.00    +0.000 A 
ATOM      2  C   UNL     1      45.646   4.715  12.506  0.00  0.00    +0.000 A 
ATOM      3  C   UNL     1      44.532   4.759  11.652  0.00  0.00    +0.000 A 
ATOM      4  C   UNL     1      43.982   6.003  11.332  0.00  0.00    +0.000 A 
ATOM      5  C   UNL     1      44.527   7.176  11.862  0.00  0.00    +0.000 A 
ATOM      6  C   UNL     1      45.637   7.137  12.723  0.00  0.00    +0.000 A 
ENDROOT
BRANCH   1   8
ATOM      7  C   UNL     1      47.235   4.949  14.960  0.00  0.00    +0.000 C 
ATOM      8  O   UNL     1      47.273   5.896  13.897  0.00  0.00    +0.000 OA
ENDBRANCH   1   8
BRANCH   3   9
ATOM      9  C   UNL     1      43.972   3.490  11.060  0.00  0.00    +0.000 C 
BRANCH   9  10
ATOM     10  N   UNL     1      44.910   2.880  10.149  0.00  0.00    +0.000 N 
ATOM     11  C   UNL     1      45.031   3.308   8.845  0.00  0.00    +0.000 C 
ATOM     12  O   UNL     1      44.327   4.195   8.376  0.00  0.00    +0.000 OA
ATOM     13  H   UNL     1      45.563   2.205  10.515  0.00  0.00    +0.000 HD
BRANCH  11  14
ATOM     14  C   UNL     1      46.062   2.638   8.076  0.00  0.00    +0.000 A 
ATOM     15  C   UNL     1      46.428   1.303   7.972  0.00  0.00    +0.000 A 
ATOM     16  C   UNL     1      47.517   1.209   7.071  0.00  0.00    +0.000 A 
ATOM     17  C   UNL     1      47.798   2.483   6.639  0.00  0.00    +0.000 A 
ATOM     18  N   UNL     1      46.917   3.337   7.246  0.00  0.00    +0.000 N 
ATOM     19  H   UNL     1      46.880   4.342   7.119  0.00  0.00    +0.000 HD
ENDBRANCH  11  14
ENDBRANCH   9  10
ENDBRANCH   3   9
BRANCH   6  20
ATOM     20  C   UNL     1      46.215   8.445  13.219  0.00  0.00    +0.000 C 
BRANCH  20  21
ATOM     21  N   UNL     1      47.305   8.882  12.368  0.00  0.00    +0.000 N 
ATOM     22  C   UNL     1      48.263   9.769  12.789  0.00  0.00    +0.000 C 
ATOM     23  O   UNL     1      48.175  10.383  13.848  0.00  0.00    +0.000 OA
ATOM     24  H   UNL     1      47.524   8.256  11.604  0.00  0.00    +0.000 HD
BRANCH  22  25
ATOM     25  C   UNL     1      49.394   9.987  11.874  0.00  0.00    +0.000 A 
ATOM     26  C   UNL     1      49.671  11.263  11.399  0.00  0.00    +0.000 A 
ATOM     27  S   UNL     1      51.026  11.327  10.364  0.00  0.00    +0.000 S 
ATOM     28  C   UNL     1      51.312   9.659  10.545  0.00  0.00    +0.000 A 
ATOM     29  N   UNL     1      52.374   9.060   9.940  0.00  0.00    +0.000 NA
ATOM     30  C   UNL     1      52.492   7.801  10.196  0.00  0.00    +0.000 A 
ATOM     31  N   UNL     1      51.638   7.082  10.991  0.00  0.00    +0.000 N 
ATOM     32  C   UNL     1      50.518   7.630  11.570  0.00  0.00    +0.000 A 
ATOM     33  O   UNL     1      49.715   6.934  12.180  0.00  0.00    +0.000 OA
ATOM     34  C   UNL     1      50.364   9.056  11.353  0.00  0.00    +0.000 A 
ATOM     35  H   UNL     1      51.768   6.091  11.128  0.00  0.00    +0.000 HD
ENDBRANCH  22  25
ENDBRANCH  20  21
ENDBRANCH   6  20
TORSDOF 7
ENDMDL
MODEL 6
REMARK VINA RESULT:    -7.092      2.083      3.014
REMARK INTER + INTRA:         -11.114
REMARK INTER:                  -9.901
REMARK INTRA:                  -1.213
REMARK UNBOUND:                -1.120
REMARK  Name = 
REMARK  8 active torsions:
REMARK  status: ('A' for Active; 'I' for Inactive)
REMARK    1  A    between atoms: C_1  and  O_2
REMARK    2  A    between atoms: O_2  and  C_3
REMARK    3  A    between atoms: C_5  and  C_6
REMARK    4  A    between atoms: C_6  and  N_7
REMARK    5  A    between atoms: C_8  and  C_10
REMARK    6  A    between atoms: C_17  and  C_18
REMARK    7  A    between atoms: C_18  and  N_19
REMARK    8  A    between atoms: C_20  and  C_22
REMARK                            x       y       z     vdW  Elec       q    Type
REMARK                         _______ _______ _______ _____ _____    ______ ____
ROOT
ATOM      1  C   UNL     1      47.492   5.755  13.208  0.00  0.00    +0.000 A 
ATOM      2  C   UNL     1      46.828   5.949  11.985  0.00  0.00    +0.000 A 
ATOM      3  C   UNL     1      45.585   5.349  11.728  0.00  0.00    +0.000 A 
ATOM      4  C   UNL     1      45.007   4.553  12.720  0.00  0.00    +0.000 A 
ATOM      5  C   UNL     1      45.663   4.351  13.937  0.00  0.00    +0.000 A 
ATOM      6  C   UNL     1      46.911   4.943  14.197  0.00  0.00    +0.000 A 
ENDROOT
BRANCH   1   8
ATOM      7  C   UNL     1      49.202   7.282  12.589  0.00  0.00    +0.000 C 
ATOM      8  O   UNL     1      48.719   6.297  13.497  0.00  0.00    +0.000 OA
ENDBRANCH   1   8
BRANCH   3   9
ATOM      9  C   UNL     1      44.872   5.600  10.422  0.00  0.00    +0.000 C 
BRANCH   9  10
ATOM     10  N   UNL     1      45.526   4.918   9.331  0.00  0.00    +0.000 N 
ATOM     11  C   UNL     1      45.305   3.581   9.080  0.00  0.00    +0.000 C 
ATOM     12  O   UNL     1      44.578   2.891   9.785  0.00  0.00    +0.000 OA
ATOM     13  H   UNL     1      46.066   5.465   8.680  0.00  0.00    +0.000 HD
BRANCH  11  14
ATOM     14  C   UNL     1      45.986   3.060   7.911  0.00  0.00    +0.000 A 
ATOM     15  C   UNL     1      46.360   3.648   6.709  0.00  0.00    +0.000 A 
ATOM     16  C   UNL     1      47.001   2.667   5.914  0.00  0.00    +0.000 A 
ATOM     17  C   UNL     1      47.010   1.499   6.638  0.00  0.00    +0.000 A 
ATOM     18  N   UNL     1      46.401   1.744   7.839  0.00  0.00    +0.000 N 
ATOM     19  H   UNL     1      46.261   1.070   8.584  0.00  0.00    +0.000 HD
ENDBRANCH  11  14
ENDBRANCH   9  10
ENDBRANCH   3   9
BRANCH   6  20
ATOM     20  C   UNL     1      47.542   4.731  15.556  0.00  0.00    +0.000 C 
BRANCH  20  21
ATOM     21  N   UNL     1      47.891   5.999  16.166  0.00  0.00    +0.000 N 
ATOM     22  C   UNL     1      49.161   6.291  16.594  0.00  0.00    +0.000 C 
ATOM     23  O   UNL     1      50.050   5.447  16.647  0.00  0.00    +0.000 OA
ATOM     24  H   UNL     1      47.265   6.763  15.943  0.00  0.00    +0.000 HD
BRANCH  22  25
ATOM     25  C   UNL     1      49.396   7.675  17.037  0.00  0.00    +0.000 A 
ATOM     26  C   UNL     1      50.374   8.446  16.422  0.00  0.00    +0.000 A 
ATOM     27  S   UNL     1      50.494  10.026  17.054  0.00  0.00    +0.000 S 
ATOM     28  C   UNL     1      49.217   9.746  18.144  0.00  0.00    +0.000 A 
ATOM     29  N   UNL     1      48.776  10.730  18.974  0.00  0.00    +0.000 NA
ATOM     30  C   UNL     1      47.777  10.391  19.717  0.00  0.00    +0.000 A 
ATOM     31  N   UNL     1      47.188   9.154  19.718  0.00  0.00    +0.000 N 
ATOM     32  C   UNL     1      47.641   8.111  18.945  0.00  0.00    +0.000 A 
ATOM     33  O   UNL     1      47.165   6.987  19.053  0.00  0.00    +0.000 OA
ATOM     34  C   UNL     1      48.733   8.453  18.053  0.00  0.00    +0.000 A 
ATOM     35  H   UNL     1      46.428   8.942  20.346  0.00  0.00    +0.000 HD
ENDBRANCH  22  25
ENDBRANCH  20  21
ENDBRANCH   6  20
TORSDOF 7
ENDMDL
MODEL 7
REMARK VINA RESULT:    -6.943      3.265      5.021
REMARK INTER + INTRA:         -10.904
REMARK INTER:                  -9.321
REMARK INTRA:                  -1.582
REMARK UNBOUND:                -1.120
REMARK  Name = 
REMARK  8 active torsions:
REMARK  status: ('A' for Active; 'I' for Inactive)
REMARK    1  A    between atoms: C_1  and  O_2
REMARK    2  A    between atoms: O_2  and  C_3
REMARK    3  A    between atoms: C_5  and  C_6
REMARK    4  A    between atoms: C_6  and  N_7
REMARK    5  A    between atoms: C_8  and  C_10
REMARK    6  A    between atoms: C_17  and  C_18
REMARK    7  A    between atoms: C_18  and  N_19
REMARK    8  A    between atoms: C_20  and  C_22
REMARK                            x       y       z     vdW  Elec       q    Type
REMARK                         _______ _______ _______ _____ _____    ______ ____
ROOT
ATOM      1  C   UNL     1      46.307   6.311  12.520  0.00  0.00    +0.000 A 
ATOM      2  C   UNL     1      45.508   5.606  11.604  0.00  0.00    +0.000 A 
ATOM      3  C   UNL     1      45.297   4.224  11.735  0.00  0.00    +0.000 A 
ATOM      4  C   UNL     1      45.894   3.553  12.806  0.00  0.00    +0.000 A 
ATOM      5  C   UNL     1      46.694   4.247  13.718  0.00  0.00    +0.000 A 
ATOM      6  C   UNL     1      46.915   5.628  13.587  0.00  0.00    +0.000 A 
ENDROOT
BRANCH   1   8
ATOM      7  C   UNL     1      45.473   8.528  12.694  0.00  0.00    +0.000 C 
ATOM      8  O   UNL     1      46.565   7.655  12.420  0.00  0.00    +0.000 OA
ENDBRANCH   1   8
BRANCH   3   9
ATOM      9  C   UNL     1      44.406   3.491  10.762  0.00  0.00    +0.000 C 
BRANCH   9  10
ATOM     10  N   UNL     1      45.179   2.875   9.710  0.00  0.00    +0.000 N 
ATOM     11  C   UNL     1      45.459   3.541   8.537  0.00  0.00    +0.000 C 
ATOM     12  O   UNL     1      45.038   4.668   8.303  0.00  0.00    +0.000 OA
ATOM     13  H   UNL     1      45.612   1.984   9.894  0.00  0.00    +0.000 HD
BRANCH  11  14
ATOM     14  C   UNL     1      46.299   2.811   7.607  0.00  0.00    +0.000 A 
ATOM     15  C   UNL     1      46.782   1.509   7.612  0.00  0.00    +0.000 A 
ATOM     16  C   UNL     1      47.568   1.321   6.448  0.00  0.00    +0.000 A 
ATOM     17  C   UNL     1      47.551   2.506   5.752  0.00  0.00    +0.000 A 
ATOM     18  N   UNL     1      46.784   3.396   6.454  0.00  0.00    +0.000 N 
ATOM     19  H   UNL     1      46.588   4.353   6.185  0.00  0.00    +0.000 HD
ENDBRANCH  11  14
ENDBRANCH   9  10
ENDBRANCH   3   9
BRANCH   6  20
ATOM     20  C   UNL     1      47.745   6.331  14.641  0.00  0.00    +0.000 C 
BRANCH  20  21
ATOM     21  N   UNL     1      48.982   6.831  14.073  0.00  0.00    +0.000 N 
ATOM     22  C   UNL     1      49.434   8.107  14.292  0.00  0.00    +0.000 C 
ATOM     23  O   UNL     1      48.750   8.965  14.840  0.00  0.00    +0.000 OA
ATOM     24  H   UNL     1      49.649   6.115  13.814  0.00  0.00    +0.000 HD
BRANCH  22  25
ATOM     25  C   UNL     1      50.783   8.414  13.788  0.00  0.00    +0.000 A 
ATOM     26  C   UNL     1      51.748   8.923  14.647  0.00  0.00    +0.000 A 
ATOM     27  S   UNL     1      53.253   9.202  13.893  0.00  0.00    +0.000 S 
ATOM     28  C   UNL     1      52.678   8.616  12.403  0.00  0.00    +0.000 A 
ATOM     29  N   UNL     1      53.494   8.541  11.317  0.00  0.00    +0.000 NA
ATOM     30  C   UNL     1      52.938   8.040  10.266  0.00  0.00    +0.000 A 
ATOM     31  N   UNL     1      51.635   7.620  10.197  0.00  0.00    +0.000 N 
ATOM     32  C   UNL     1      50.757   7.736  11.248  0.00  0.00    +0.000 A 
ATOM     33  O   UNL     1      49.571   7.457  11.117  0.00  0.00    +0.000 OA
ATOM     34  C   UNL     1      51.345   8.248  12.471  0.00  0.00    +0.000 A 
ATOM     35  H   UNL     1      51.250   7.265   9.334  0.00  0.00    +0.000 HD
ENDBRANCH  22  25
ENDBRANCH  20  21
ENDBRANCH   6  20
TORSDOF 7
ENDMDL
MODEL 8
REMARK VINA RESULT:    -6.837      2.030      2.510
REMARK INTER + INTRA:         -10.755
REMARK INTER:                 -10.325
REMARK INTRA:                  -0.431
REMARK UNBOUND:                -1.120
REMARK  Name = 
REMARK  8 active torsions:
REMARK  status: ('A' for Active; 'I' for Inactive)
REMARK    1  A    between atoms: C_1  and  O_2
REMARK    2  A    between atoms: O_2  and  C_3
REMARK    3  A    between atoms: C_5  and  C_6
REMARK    4  A    between atoms: C_6  and  N_7
REMARK    5  A    between atoms: C_8  and  C_10
REMARK    6  A    between atoms: C_17  and  C_18
REMARK    7  A    between atoms: C_18  and  N_19
REMARK    8  A    between atoms: C_20  and  C_22
REMARK                            x       y       z     vdW  Elec       q    Type
REMARK                         _______ _______ _______ _____ _____    ______ ____
ROOT
ATOM      1  C   UNL     1      46.657   5.807  12.994  0.00  0.00    +0.000 A 
ATOM      2  C   UNL     1      45.826   5.145  12.075  0.00  0.00    +0.000 A 
ATOM      3  C   UNL     1      44.913   5.853  11.276  0.00  0.00    +0.000 A 
ATOM      4  C   UNL     1      44.847   7.243  11.405  0.00  0.00    +0.000 A 
ATOM      5  C   UNL     1      45.667   7.909  12.321  0.00  0.00    +0.000 A 
ATOM      6  C   UNL     1      46.577   7.205  13.127  0.00  0.00    +0.000 A 
ENDROOT
BRANCH   1   8
ATOM      7  C   UNL     1      47.087   3.947  14.405  0.00  0.00    +0.000 C 
ATOM      8  O   UNL     1      47.545   5.159  13.814  0.00  0.00    +0.000 OA
ENDBRANCH   1   8
BRANCH   3   9
ATOM      9  C   UNL     1      44.055   5.127  10.270  0.00  0.00    +0.000 C 
BRANCH   9  10
ATOM     10  N   UNL     1      44.859   4.545   9.223  0.00  0.00    +0.000 N 
ATOM     11  C   UNL     1      45.089   3.188   9.160  0.00  0.00    +0.000 C 
ATOM     12  O   UNL     1      44.663   2.409  10.005  0.00  0.00    +0.000 OA
ATOM     13  H   UNL     1      45.159   5.137   8.465  0.00  0.00    +0.000 HD
BRANCH  11  14
ATOM     14  C   UNL     1      45.861   2.752   8.013  0.00  0.00    +0.000 A 
ATOM     15  C   UNL     1      46.165   3.367   6.805  0.00  0.00    +0.000 A 
ATOM     16  C   UNL     1      46.959   2.478   6.041  0.00  0.00    +0.000 A 
ATOM     17  C   UNL     1      47.130   1.339   6.790  0.00  0.00    +0.000 A 
ATOM     18  N   UNL     1      46.469   1.512   7.976  0.00  0.00    +0.000 N 
ATOM     19  H   UNL     1      46.419   0.839   8.732  0.00  0.00    +0.000 HD
ENDBRANCH  11  14
ENDBRANCH   9  10
ENDBRANCH   3   9
BRANCH   6  20
ATOM     20  C   UNL     1      47.477   7.990  14.058  0.00  0.00    +0.000 C 
BRANCH  20  21
ATOM     21  N   UNL     1      48.282   7.099  14.869  0.00  0.00    +0.000 N 
ATOM     22  C   UNL     1      48.852   7.488  16.054  0.00  0.00    +0.000 C 
ATOM     23  O   UNL     1      48.863   8.657  16.430  0.00  0.00    +0.000 OA
ATOM     24  H   UNL     1      48.115   6.113  14.710  0.00  0.00    +0.000 HD
BRANCH  22  25
ATOM     25  C   UNL     1      49.499   6.428  16.844  0.00  0.00    +0.000 A 
ATOM     26  C   UNL     1      48.730   5.564  17.613  0.00  0.00    +0.000 A 
ATOM     27  S   UNL     1      49.648   4.391  18.446  0.00  0.00    +0.000 S 
ATOM     28  C   UNL     1      51.101   4.974  17.777  0.00  0.00    +0.000 A 
ATOM     29  N   UNL     1      52.290   4.374  18.055  0.00  0.00    +0.000 NA
ATOM     30  C   UNL     1      53.304   4.895  17.449  0.00  0.00    +0.000 A 
ATOM     31  N   UNL     1      53.239   5.969  16.601  0.00  0.00    +0.000 N 
ATOM     32  C   UNL     1      52.070   6.646  16.342  0.00  0.00    +0.000 A 
ATOM     33  O   UNL     1      52.067   7.671  15.670  0.00  0.00    +0.000 OA
ATOM     34  C   UNL     1      50.892   6.071  16.960  0.00  0.00    +0.000 A 
ATOM     35  H   UNL     1      54.074   6.349  16.180  0.00  0.00    +0.000 HD
ENDBRANCH  22  25
ENDBRANCH  20  21
ENDBRANCH   6  20
TORSDOF 7
ENDMDL
MODEL 9
REMARK VINA RESULT:    -6.741      4.370      7.751
REMARK INTER + INTRA:         -10.619
REMARK INTER:                  -9.329
REMARK INTRA:                  -1.290
REMARK UNBOUND:                -1.120
REMARK  Name = 
REMARK  8 active torsions:
REMARK  status: ('A' for Active; 'I' for Inactive)
REMARK    1  A    between atoms: C_1  and  O_2
REMARK    2  A    between atoms: O_2  and  C_3
REMARK    3  A    between atoms: C_5  and  C_6
REMARK    4  A    between atoms: C_6  and  N_7
REMARK    5  A    between atoms: C_8  and  C_10
REMARK    6  A    between atoms: C_17  and  C_18
REMARK    7  A    between atoms: C_18  and  N_19
REMARK    8  A    between atoms: C_20  and  C_22
REMARK                            x       y       z     vdW  Elec       q    Type
REMARK                         _______ _______ _______ _____ _____    ______ ____
ROOT
ATOM      1  C   UNL     1      48.742   7.507  13.709  0.00  0.00    +0.000 A 
ATOM      2  C   UNL     1      50.104   7.600  13.377  0.00  0.00    +0.000 A 
ATOM      3  C   UNL     1      50.538   8.368  12.284  0.00  0.00    +0.000 A 
ATOM      4  C   UNL     1      49.584   9.051  11.525  0.00  0.00    +0.000 A 
ATOM      5  C   UNL     1      48.227   8.959  11.844  0.00  0.00    +0.000 A 
ATOM      6  C   UNL     1      47.787   8.187  12.933  0.00  0.00    +0.000 A 
ENDROOT
BRANCH   1   8
ATOM      7  C   UNL     1      49.114   6.643  15.889  0.00  0.00    +0.000 C 
ATOM      8  O   UNL     1      48.266   6.751  14.749  0.00  0.00    +0.000 OA
ENDBRANCH   1   8
BRANCH   3   9
ATOM      9  C   UNL     1      52.008   8.483  11.968  0.00  0.00    +0.000 C 
BRANCH   9  10
ATOM     10  N   UNL     1      52.413   7.493  10.999  0.00  0.00    +0.000 N 
ATOM     11  C   UNL     1      52.722   7.838   9.702  0.00  0.00    +0.000 C 
ATOM     12  O   UNL     1      52.633   8.987   9.288  0.00  0.00    +0.000 OA
ATOM     13  H   UNL     1      52.579   6.552  11.318  0.00  0.00    +0.000 HD
BRANCH  11  14
ATOM     14  C   UNL     1      53.173   6.739   8.870  0.00  0.00    +0.000 A 
ATOM     15  C   UNL     1      54.081   5.712   9.093  0.00  0.00    +0.000 A 
ATOM     16  C   UNL     1      54.143   4.911   7.926  0.00  0.00    +0.000 A 
ATOM     17  C   UNL     1      53.274   5.458   7.012  0.00  0.00    +0.000 A 
ATOM     18  N   UNL     1      52.693   6.555   7.588  0.00  0.00    +0.000 N 
ATOM     19  H   UNL     1      52.007   7.161   7.152  0.00  0.00    +0.000 HD
ENDBRANCH  11  14
ENDBRANCH   9  10
ENDBRANCH   3   9
BRANCH   6  20
ATOM     20  C   UNL     1      46.309   8.175  13.260  0.00  0.00    +0.000 C 
BRANCH  20  21
ATOM     21  N   UNL     1      45.725   6.882  12.960  0.00  0.00    +0.000 N 
ATOM     22  C   UNL     1      44.831   6.693  11.938  0.00  0.00    +0.000 C 
ATOM     23  O   UNL     1      44.334   7.625  11.313  0.00  0.00    +0.000 OA
ATOM     24  H   UNL     1      46.257   6.089  13.296  0.00  0.00    +0.000 HD
BRANCH  22  25
ATOM     25  C   UNL     1      44.456   5.298  11.653  0.00  0.00    +0.000 A 
ATOM     26  C   UNL     1      43.691   4.583  12.564  0.00  0.00    +0.000 A 
ATOM     27  S   UNL     1      43.340   2.991  12.059  0.00  0.00    +0.000 S 
ATOM     28  C   UNL     1      44.166   3.216  10.588  0.00  0.00    +0.000 A 
ATOM     29  N   UNL     1      44.214   2.229   9.653  0.00  0.00    +0.000 NA
ATOM     30  C   UNL     1      44.839   2.551   8.571  0.00  0.00    +0.000 A 
ATOM     31  N   UNL     1      45.432   3.766   8.343  0.00  0.00    +0.000 N 
ATOM     32  C   UNL     1      45.464   4.768   9.284  0.00  0.00    +0.000 A 
ATOM     33  O   UNL     1      46.101   5.798   9.091  0.00  0.00    +0.000 OA
ATOM     34  C   UNL     1      44.733   4.475  10.501  0.00  0.00    +0.000 A 
ATOM     35  H   UNL     1      45.933   3.945   7.486  0.00  0.00    +0.000 HD
ENDBRANCH  22  25
ENDBRANCH  20  21
ENDBRANCH   6  20
TORSDOF 7
ENDMDL
