MODEL 1
REMARK VINA RESULT:    -8.119      0.000      0.000
REMARK INTER + INTRA:         -12.394
REMARK INTER:                 -11.204
REMARK INTRA:                  -1.190
REMARK UNBOUND:                -1.190
REMARK  Name = 
REMARK  7 active torsions:
REMARK  status: ('A' for Active; 'I' for Inactive)
REMARK    1  A    between atoms: C_2  and  C_21
REMARK    2  A    between atoms: N_3  and  C_4
REMARK    3  A    between atoms: C_4  and  C_5
REMARK    4  A    between atoms: C_8  and  C_9
REMARK    5  A    between atoms: C_9  and  N_10
REMARK    6  A    between atoms: C_11  and  C_13
REMARK    7  A    between atoms: C_15  and  O_16
REMARK                            x       y       z     vdW  Elec       q    Type
REMARK                         _______ _______ _______ _____ _____    ______ ____
ROOT
ATOM      1  C   UNL     1      46.002   6.969  12.229  0.00  0.00    +0.000 A 
ATOM      2  C   UNL     1      44.771   6.456  12.661  0.00  0.00    +0.000 A 
ATOM      3  C   UNL     1      44.051   5.556  11.867  0.00  0.00    +0.000 A 
ATOM      4  C   UNL     1      44.557   5.129  10.633  0.00  0.00    +0.000 A 
ATOM      5  C   UNL     1      45.794   5.634  10.205  0.00  0.00    +0.000 A 
ATOM      6  C   UNL     1      46.512   6.537  10.999  0.00  0.00    +0.000 A 
ENDROOT
BRANCH   1   7
ATOM      7  C   UNL     1      46.776   7.934  13.095  0.00  0.00    +0.000 C 
BRANCH   7  10
ATOM      8  O   UNL     1      49.226   6.627  13.329  0.00  0.00    +0.000 OA
ATOM      9  C   UNL     1      48.518   6.724  14.329  0.00  0.00    +0.000 C 
ATOM     10  N   UNL     1      47.267   7.291  14.286  0.00  0.00    +0.000 N 
ATOM     11  H   UNL     1      46.810   7.539  15.157  0.00  0.00    +0.000 HD
BRANCH   9  12
ATOM     12  C   UNL     1      48.950   6.194  15.628  0.00  0.00    +0.000 A 
ATOM     13  C   UNL     1      49.994   6.798  16.315  0.00  0.00    +0.000 A 
ATOM     14  S   UNL     1      50.380   6.024  17.787  0.00  0.00    +0.000 S 
ATOM     15  C   UNL     1      49.131   4.888  17.580  0.00  0.00    +0.000 A 
ATOM     16  N   UNL     1      48.895   3.928  18.516  0.00  0.00    +0.000 NA
ATOM     17  C   UNL     1      47.893   3.159  18.249  0.00  0.00    +0.000 A 
ATOM     18  N   UNL     1      47.110   3.258  17.129  0.00  0.00    +0.000 N 
ATOM     19  C   UNL     1      47.332   4.184  16.139  0.00  0.00    +0.000 A 
ATOM     20  O   UNL     1      46.650   4.205  15.124  0.00  0.00    +0.000 OA
ATOM     21  C   UNL     1      48.441   5.085  16.400  0.00  0.00    +0.000 A 
ATOM     22  H   UNL     1      46.347   2.614  16.971  0.00  0.00    +0.000 HD
ENDBRANCH   9  12
ENDBRANCH   7  10
ENDBRANCH   1   7
BRANCH   4  23
ATOM     23  C   UNL     1      43.803   4.130   9.793  0.00  0.00    +0.000 C 
BRANCH  23  24
ATOM     24  N   UNL     1      44.493   3.790   8.567  0.00  0.00    +0.000 N 
ATOM     25  C   UNL     1      44.901   2.486   8.363  0.00  0.00    +0.000 C 
ATOM     26  O   UNL     1      44.591   1.567   9.122  0.00  0.00    +0.000 OA
ATOM     27  H   UNL     1      44.925   4.536   8.039  0.00  0.00    +0.000 HD
BRANCH  25  28
ATOM     28  C   UNL     1      45.826   2.266   7.150  0.00  0.00    +0.000 C 
ATOM     29  C   UNL     1      47.094   1.477   7.471  0.00  0.00    +0.000 C 
ATOM     30  C   UNL     1      48.191   2.265   6.772  0.00  0.00    +0.000 C 
ATOM     31  C   UNL     1      47.712   3.697   6.948  0.00  0.00    +0.000 C 
ATOM     32  N   UNL     1      46.284   3.580   6.602  0.00  0.00    +0.000 NA
ATOM     33  H   UNL     1      45.758   4.325   7.078  0.00  0.00    +0.000 HD
BRANCH  30  34
ATOM     34  O   UNL     1      48.206   1.923   5.381  0.00  0.00    +0.000 OA
ATOM     35  H   UNL     1      48.852   2.535   4.971  0.00  0.00    +0.000 HD
ENDBRANCH  30  34
ENDBRANCH  25  28
ENDBRANCH  23  24
ENDBRANCH   4  23
TORSDOF 7
ENDMDL
MODEL 2
REMARK VINA RESULT:    -7.658      1.935      2.219
REMARK INTER + INTRA:         -11.757
REMARK INTER:                 -10.925
REMARK INTRA:                  -0.832
REMARK UNBOUND:                -1.190
REMARK  Name = 
REMARK  7 active torsions:
REMARK  status: ('A' for Active; 'I' for Inactive)
REMARK    1  A    between atoms: C_2  and  C_21
REMARK    2  A    between atoms: N_3  and  C_4
REMARK    3  A    between atoms: C_4  and  C_5
REMARK    4  A    between atoms: C_8  and  C_9
REMARK    5  A    between atoms: C_9  and  N_10
REMARK    6  A    between atoms: C_11  and  C_13
REMARK    7  A    between atoms: C_15  and  O_16
REMARK                            x       y       z     vdW  Elec       q    Type
REMARK                         _______ _______ _______ _____ _____    ______ ____
ROOT
ATOM      1  C   UNL     1      47.188   6.241  13.098  0.00  0.00    +0.000 A 
ATOM      2  C   UNL     1      46.313   5.269  13.600  0.00  0.00    +0.000 A 
ATOM      3  C   UNL     1      45.167   4.897  12.886  0.00  0.00    +0.000 A 
ATOM      4  C   UNL     1      44.884   5.473  11.641  0.00  0.00    +0.000 A 
ATOM      5  C   UNL     1      45.765   6.438  11.133  0.00  0.00    +0.000 A 
ATOM      6  C   UNL     1      46.910   6.811  11.850  0.00  0.00    +0.000 A 
ENDROOT
BRANCH   1   7
ATOM      7  C   UNL     1      48.424   6.631  13.872  0.00  0.00    +0.000 C 
BRANCH   7  10
ATOM      8  O   UNL     1      50.253   6.151  15.919  0.00  0.00    +0.000 OA
ATOM      9  C   UNL     1      49.130   6.549  16.221  0.00  0.00    +0.000 C 
ATOM     10  N   UNL     1      48.147   6.745  15.281  0.00  0.00    +0.000 N 
ATOM     11  H   UNL     1      47.316   7.266  15.539  0.00  0.00    +0.000 HD
BRANCH   9  12
ATOM     12  C   UNL     1      48.754   6.797  17.618  0.00  0.00    +0.000 A 
ATOM     13  C   UNL     1      48.394   8.073  18.028  0.00  0.00    +0.000 A 
ATOM     14  S   UNL     1      48.025   8.177  19.692  0.00  0.00    +0.000 S 
ATOM     15  C   UNL     1      48.285   6.510  19.909  0.00  0.00    +0.000 A 
ATOM     16  N   UNL     1      48.114   5.927  21.127  0.00  0.00    +0.000 NA
ATOM     17  C   UNL     1      48.307   4.651  21.139  0.00  0.00    +0.000 A 
ATOM     18  N   UNL     1      48.661   3.905  20.045  0.00  0.00    +0.000 N 
ATOM     19  C   UNL     1      48.882   4.453  18.804  0.00  0.00    +0.000 A 
ATOM     20  O   UNL     1      49.255   3.765  17.864  0.00  0.00    +0.000 OA
ATOM     21  C   UNL     1      48.663   5.887  18.735  0.00  0.00    +0.000 A 
ATOM     22  H   UNL     1      48.812   2.909  20.123  0.00  0.00    +0.000 HD
ENDBRANCH   9  12
ENDBRANCH   7  10
ENDBRANCH   1   7
BRANCH   4  23
ATOM     23  C   UNL     1      43.673   5.046  10.851  0.00  0.00    +0.000 C 
BRANCH  23  24
ATOM     24  N   UNL     1      44.010   4.503   9.553  0.00  0.00    +0.000 N 
ATOM     25  C   UNL     1      44.394   3.180   9.455  0.00  0.00    +0.000 C 
ATOM     26  O   UNL     1      44.340   2.401  10.407  0.00  0.00    +0.000 OA
ATOM     27  H   UNL     1      44.252   5.148   8.812  0.00  0.00    +0.000 HD
BRANCH  25  28
ATOM     28  C   UNL     1      44.956   2.755   8.084  0.00  0.00    +0.000 C 
ATOM     29  C   UNL     1      46.106   1.753   8.169  0.00  0.00    +0.000 C 
ATOM     30  C   UNL     1      47.128   2.302   7.185  0.00  0.00    +0.000 C 
ATOM     31  C   UNL     1      46.961   3.802   7.360  0.00  0.00    +0.000 C 
ATOM     32  N   UNL     1      45.494   3.943   7.354  0.00  0.00    +0.000 NA
ATOM     33  H   UNL     1      45.233   4.787   7.880  0.00  0.00    +0.000 HD
BRANCH  30  34
ATOM     34  O   UNL     1      46.757   1.921   5.855  0.00  0.00    +0.000 OA
ATOM     35  H   UNL     1      46.135   1.172   5.965  0.00  0.00    +0.000 HD
ENDBRANCH  30  34
ENDBRANCH  25  28
ENDBRANCH  23  24
ENDBRANCH   4  23
TORSDOF 7
ENDMDL
MODEL 3
REMARK VINA RESULT:    -7.459      2.534      3.107
REMARK INTER + INTRA:         -11.483
REMARK INTER:                 -10.445
REMARK INTRA:                  -1.038
REMARK UNBOUND:                -1.190
REMARK  Name = 
REMARK  7 active torsions:
REMARK  status: ('A' for Active; 'I' for Inactive)
REMARK    1  A    between atoms: C_2  and  C_21
REMARK    2  A    between atoms: N_3  and  C_4
REMARK    3  A    between atoms: C_4  and  C_5
REMARK    4  A    between atoms: C_8  and  C_9
REMARK    5  A    between atoms: C_9  and  N_10
REMARK    6  A    between atoms: C_11  and  C_13
REMARK    7  A    between atoms: C_15  and  O_16
REMARK                            x       y       z     vdW  Elec       q    Type
REMARK                         _______ _______ _______ _____ _____    ______ ____
ROOT
ATOM      1  C   UNL     1      47.202   6.249  13.139  0.00  0.00    +0.000 A 
ATOM      2  C   UNL     1      46.979   6.798  11.868  0.00  0.00    +0.000 A 
ATOM      3  C   UNL     1      45.877   6.402  11.100  0.00  0.00    +0.000 A 
ATOM      4  C   UNL     1      44.960   5.468  11.596  0.00  0.00    +0.000 A 
ATOM      5  C   UNL     1      45.176   4.927  12.871  0.00  0.00    +0.000 A 
ATOM      6  C   UNL     1      46.281   5.321  13.638  0.00  0.00    +0.000 A 
ENDROOT
BRANCH   1   7
ATOM      7  C   UNL     1      48.389   6.686  13.964  0.00  0.00    +0.000 C 
BRANCH   7  10
ATOM      8  O   UNL     1      50.247   6.242  15.993  0.00  0.00    +0.000 OA
ATOM      9  C   UNL     1      49.084   6.483  16.309  0.00  0.00    +0.000 C 
ATOM     10  N   UNL     1      48.092   6.646  15.372  0.00  0.00    +0.000 N 
ATOM     11  H   UNL     1      47.205   7.045  15.660  0.00  0.00    +0.000 HD
BRANCH   9  12
ATOM     12  C   UNL     1      48.674   6.566  17.715  0.00  0.00    +0.000 A 
ATOM     13  C   UNL     1      48.797   5.459  18.544  0.00  0.00    +0.000 A 
ATOM     14  S   UNL     1      48.236   5.731  20.134  0.00  0.00    +0.000 S 
ATOM     15  C   UNL     1      47.858   7.352  19.781  0.00  0.00    +0.000 A 
ATOM     16  N   UNL     1      47.347   8.176  20.736  0.00  0.00    +0.000 NA
ATOM     17  C   UNL     1      47.145   9.388  20.341  0.00  0.00    +0.000 A 
ATOM     18  N   UNL     1      47.401   9.851  19.077  0.00  0.00    +0.000 N 
ATOM     19  C   UNL     1      47.881   9.049  18.069  0.00  0.00    +0.000 A 
ATOM     20  O   UNL     1      48.042   9.481  16.936  0.00  0.00    +0.000 OA
ATOM     21  C   UNL     1      48.140   7.676  18.468  0.00  0.00    +0.000 A 
ATOM     22  H   UNL     1      47.207  10.809  18.826  0.00  0.00    +0.000 HD
ENDBRANCH   9  12
ENDBRANCH   7  10
ENDBRANCH   1   7
BRANCH   4  23
ATOM     23  C   UNL     1      43.751   5.069  10.788  0.00  0.00    +0.000 C 
BRANCH  23  24
ATOM     24  N   UNL     1      44.095   4.517   9.495  0.00  0.00    +0.000 N 
ATOM     25  C   UNL     1      44.467   3.190   9.407  0.00  0.00    +0.000 C 
ATOM     26  O   UNL     1      44.396   2.416  10.361  0.00  0.00    +0.000 OA
ATOM     27  H   UNL     1      44.350   5.157   8.754  0.00  0.00    +0.000 HD
BRANCH  25  28
ATOM     28  C   UNL     1      45.038   2.753   8.043  0.00  0.00    +0.000 C 
ATOM     29  C   UNL     1      46.190   1.755   8.144  0.00  0.00    +0.000 C 
ATOM     30  C   UNL     1      47.217   2.298   7.161  0.00  0.00    +0.000 C 
ATOM     31  C   UNL     1      47.045   3.800   7.321  0.00  0.00    +0.000 C 
ATOM     32  N   UNL     1      45.577   3.936   7.305  0.00  0.00    +0.000 NA
ATOM     33  H   UNL     1      45.310   4.784   7.821  0.00  0.00    +0.000 HD
BRANCH  30  34
ATOM     34  O   UNL     1      46.855   1.903   5.833  0.00  0.00    +0.000 OA
ATOM     35  H   UNL     1      46.331   1.082   5.940  0.00  0.00    +0.000 HD
ENDBRANCH  30  34
ENDBRANCH  25  28
ENDBRANCH  23  24
ENDBRANCH   4  23
TORSDOF 7
ENDMDL
MODEL 4
REMARK VINA RESULT:    -7.267      2.108      3.175
REMARK INTER + INTRA:         -11.218
REMARK INTER:                  -9.941
REMARK INTRA:                  -1.277
REMARK UNBOUND:                -1.190
REMARK  Name = 
REMARK  7 active torsions:
REMARK  status: ('A' for Active; 'I' for Inactive)
REMARK    1  A    between atoms: C_2  and  C_21
REMARK    2  A    between atoms: N_3  and  C_4
REMARK    3  A    between atoms: C_4  and  C_5
REMARK    4  A    between atoms: C_8  and  C_9
REMARK    5  A    between atoms: C_9  and  N_10
REMARK    6  A    between atoms: C_11  and  C_13
REMARK    7  A    between atoms: C_15  and  O_16
REMARK                            x       y       z     vdW  Elec       q    Type
REMARK                         _______ _______ _______ _____ _____    ______ ____
ROOT
ATOM      1  C   UNL     1      48.444   7.942  13.225  0.00  0.00    +0.000 A 
ATOM      2  C   UNL     1      47.492   8.939  13.481  0.00  0.00    +0.000 A 
ATOM      3  C   UNL     1      46.229   8.897  12.878  0.00  0.00    +0.000 A 
ATOM      4  C   UNL     1      45.880   7.843  12.024  0.00  0.00    +0.000 A 
ATOM      5  C   UNL     1      46.828   6.840  11.776  0.00  0.00    +0.000 A 
ATOM      6  C   UNL     1      48.093   6.885  12.378  0.00  0.00    +0.000 A 
ENDROOT
BRANCH   1   7
ATOM      7  C   UNL     1      49.801   7.992  13.884  0.00  0.00    +0.000 C 
BRANCH   7  10
ATOM      8  O   UNL     1      49.131   8.499  16.541  0.00  0.00    +0.000 OA
ATOM      9  C   UNL     1      49.481   7.362  16.235  0.00  0.00    +0.000 C 
ATOM     10  N   UNL     1      49.894   7.043  14.963  0.00  0.00    +0.000 N 
ATOM     11  H   UNL     1      49.972   6.065  14.703  0.00  0.00    +0.000 HD
BRANCH   9  12
ATOM     12  C   UNL     1      49.524   6.280  17.226  0.00  0.00    +0.000 A 
ATOM     13  C   UNL     1      50.362   6.376  18.328  0.00  0.00    +0.000 A 
ATOM     14  S   UNL     1      50.305   5.010  19.350  0.00  0.00    +0.000 S 
ATOM     15  C   UNL     1      49.121   4.267  18.381  0.00  0.00    +0.000 A 
ATOM     16  N   UNL     1      48.605   3.052  18.713  0.00  0.00    +0.000 NA
ATOM     17  C   UNL     1      47.688   2.625  17.912  0.00  0.00    +0.000 A 
ATOM     18  N   UNL     1      47.243   3.300  16.805  0.00  0.00    +0.000 N 
ATOM     19  C   UNL     1      47.759   4.510  16.407  0.00  0.00    +0.000 A 
ATOM     20  O   UNL     1      47.380   5.055  15.380  0.00  0.00    +0.000 OA
ATOM     21  C   UNL     1      48.786   5.041  17.287  0.00  0.00    +0.000 A 
ATOM     22  H   UNL     1      46.530   2.904  16.208  0.00  0.00    +0.000 HD
ENDBRANCH   9  12
ENDBRANCH   7  10
ENDBRANCH   1   7
BRANCH   4  23
ATOM     23  C   UNL     1      44.508   7.774  11.405  0.00  0.00    +0.000 C 
BRANCH  23  24
ATOM     24  N   UNL     1      44.266   6.528  10.709  0.00  0.00    +0.000 N 
ATOM     25  C   UNL     1      43.615   5.504  11.369  0.00  0.00    +0.000 C 
ATOM     26  O   UNL     1      43.114   5.645  12.484  0.00  0.00    +0.000 OA
ATOM     27  H   UNL     1      44.826   6.319   9.894  0.00  0.00    +0.000 HD
BRANCH  25  28
ATOM     28  C   UNL     1      43.611   4.146  10.638  0.00  0.00    +0.000 C 
ATOM     29  C   UNL     1      44.767   3.227  11.029  0.00  0.00    +0.000 C 
ATOM     30  C   UNL     1      45.269   2.700   9.694  0.00  0.00    +0.000 C 
ATOM     31  C   UNL     1      45.078   3.904   8.786  0.00  0.00    +0.000 C 
ATOM     32  N   UNL     1      43.725   4.352   9.162  0.00  0.00    +0.000 NA
ATOM     33  H   UNL     1      43.637   5.358   8.972  0.00  0.00    +0.000 HD
BRANCH  30  34
ATOM     34  O   UNL     1      44.425   1.625   9.263  0.00  0.00    +0.000 OA
ATOM     35  H   UNL     1      43.708   1.575   9.929  0.00  0.00    +0.000 HD
ENDBRANCH  30  34
ENDBRANCH  25  28
ENDBRANCH  23  24
ENDBRANCH   4  23
TORSDOF 7
ENDMDL
MODEL 5
REMARK VINA RESULT:    -6.975      1.484      1.936
REMARK INTER + INTRA:         -10.814
REMARK INTER:                  -9.569
REMARK INTRA:                  -1.245
REMARK UNBOUND:                -1.190
REMARK  Name = 
REMARK  7 active torsions:
REMARK  status: ('A' for Active; 'I' for Inactive)
REMARK    1  A    between atoms: C_2  and  C_21
REMARK    2  A    between atoms: N_3  and  C_4
REMARK    3  A    between atoms: C_4  and  C_5
REMARK    4  A    between atoms: C_8  and  C_9
REMARK    5  A    between atoms: C_9  and  N_10
REMARK    6  A    between atoms: C_11  and  C_13
REMARK    7  A    between atoms: C_15  and  O_16
REMARK                            x       y       z     vdW  Elec       q    Type
REMARK                         _______ _______ _______ _____ _____    ______ ____
ROOT
ATOM      1  C   UNL     1      47.277   7.721  12.694  0.00  0.00    +0.000 A 
ATOM      2  C   UNL     1      47.428   6.601  11.865  0.00  0.00    +0.000 A 
ATOM      3  C   UNL     1      46.309   5.920  11.370  0.00  0.00    +0.000 A 
ATOM      4  C   UNL     1      45.014   6.358  11.674  0.00  0.00    +0.000 A 
ATOM      5  C   UNL     1      44.863   7.485  12.495  0.00  0.00    +0.000 A 
ATOM      6  C   UNL     1      45.983   8.164  12.992  0.00  0.00    +0.000 A 
ENDROOT
BRANCH   1   7
ATOM      7  C   UNL     1      48.489   8.453  13.218  0.00  0.00    +0.000 C 
BRANCH   7  10
ATOM      8  O   UNL     1      47.930   9.212  15.841  0.00  0.00    +0.000 OA
ATOM      9  C   UNL     1      48.634   8.222  15.657  0.00  0.00    +0.000 C 
ATOM     10  N   UNL     1      49.014   7.820  14.400  0.00  0.00    +0.000 N 
ATOM     11  H   UNL     1      49.412   6.894  14.280  0.00  0.00    +0.000 HD
BRANCH   9  12
ATOM     12  C   UNL     1      49.152   7.432  16.780  0.00  0.00    +0.000 A 
ATOM     13  C   UNL     1      49.880   8.047  17.790  0.00  0.00    +0.000 A 
ATOM     14  S   UNL     1      50.431   6.966  18.990  0.00  0.00    +0.000 S 
ATOM     15  C   UNL     1      49.673   5.648  18.228  0.00  0.00    +0.000 A 
ATOM     16  N   UNL     1      49.736   4.398  18.763  0.00  0.00    +0.000 NA
ATOM     17  C   UNL     1      49.084   3.502  18.102  0.00  0.00    +0.000 A 
ATOM     18  N   UNL     1      48.377   3.740  16.952  0.00  0.00    +0.000 N 
ATOM     19  C   UNL     1      48.315   4.975  16.353  0.00  0.00    +0.000 A 
ATOM     20  O   UNL     1      47.725   5.139  15.295  0.00  0.00    +0.000 OA
ATOM     21  C   UNL     1      49.022   6.023  17.068  0.00  0.00    +0.000 A 
ATOM     22  H   UNL     1      47.898   2.990  16.473  0.00  0.00    +0.000 HD
ENDBRANCH   9  12
ENDBRANCH   7  10
ENDBRANCH   1   7
BRANCH   4  23
ATOM     23  C   UNL     1      43.807   5.651  11.111  0.00  0.00    +0.000 C 
BRANCH  23  24
ATOM     24  N   UNL     1      44.064   5.035   9.827  0.00  0.00    +0.000 N 
ATOM     25  C   UNL     1      44.234   3.667   9.757  0.00  0.00    +0.000 C 
ATOM     26  O   UNL     1      44.049   2.925  10.723  0.00  0.00    +0.000 OA
ATOM     27  H   UNL     1      44.411   5.619   9.077  0.00  0.00    +0.000 HD
BRANCH  25  28
ATOM     28  C   UNL     1      44.732   3.131   8.400  0.00  0.00    +0.000 C 
ATOM     29  C   UNL     1      45.787   2.031   8.517  0.00  0.00    +0.000 C 
ATOM     30  C   UNL     1      46.840   2.439   7.498  0.00  0.00    +0.000 C 
ATOM     31  C   UNL     1      46.813   3.955   7.605  0.00  0.00    +0.000 C 
ATOM     32  N   UNL     1      45.365   4.230   7.610  0.00  0.00    +0.000 NA
ATOM     33  H   UNL     1      45.191   5.117   8.100  0.00  0.00    +0.000 HD
BRANCH  30  34
ATOM     34  O   UNL     1      46.414   2.035   6.191  0.00  0.00    +0.000 OA
ATOM     35  H   UNL     1      45.504   2.386   6.095  0.00  0.00    +0.000 HD
ENDBRANCH  30  34
ENDBRANCH  25  28
ENDBRANCH  23  24
ENDBRANCH   4  23
TORSDOF 7
ENDMDL
MODEL 6
REMARK VINA RESULT:    -6.908      5.003      9.863
REMARK INTER + INTRA:         -10.723
REMARK INTER:                  -9.874
REMARK INTRA:                  -0.849
REMARK UNBOUND:                -1.190
REMARK  Name = 
REMARK  7 active torsions:
REMARK  status: ('A' for Active; 'I' for Inactive)
REMARK    1  A    between atoms: C_2  and  C_21
REMARK    2  A    between atoms: N_3  and  C_4
REMARK    3  A    between atoms: C_4  and  C_5
REMARK    4  A    between atoms: C_8  and  C_9
REMARK    5  A    between atoms: C_9  and  N_10
REMARK    6  A    between atoms: C_11  and  C_13
REMARK    7  A    between atoms: C_15  and  O_16
REMARK                            x       y       z     vdW  Elec       q    Type
REMARK                         _______ _______ _______ _____ _____    ______ ____
ROOT
ATOM      1  C   UNL     1      48.602   3.422  17.125  0.00  0.00    +0.000 A 
ATOM      2  C   UNL     1      49.380   2.260  17.034  0.00  0.00    +0.000 A 
ATOM      3  C   UNL     1      50.744   2.283  17.352  0.00  0.00    +0.000 A 
ATOM      4  C   UNL     1      51.354   3.465  17.792  0.00  0.00    +0.000 A 
ATOM      5  C   UNL     1      50.573   4.625  17.893  0.00  0.00    +0.000 A 
ATOM      6  C   UNL     1      49.210   4.601  17.572  0.00  0.00    +0.000 A 
ENDROOT
BRANCH   1   7
ATOM      7  C   UNL     1      47.131   3.387  16.786  0.00  0.00    +0.000 C 
BRANCH   7  10
ATOM      8  O   UNL     1      47.210   3.070  14.019  0.00  0.00    +0.000 OA
ATOM      9  C   UNL     1      46.798   4.135  14.473  0.00  0.00    +0.000 C 
ATOM     10  N   UNL     1      46.791   4.400  15.821  0.00  0.00    +0.000 N 
ATOM     11  H   UNL     1      46.257   5.192  16.163  0.00  0.00    +0.000 HD
BRANCH   9  12
ATOM     12  C   UNL     1      46.330   5.213  13.593  0.00  0.00    +0.000 A 
ATOM     13  C   UNL     1      47.146   6.305  13.333  0.00  0.00    +0.000 A 
ATOM     14  S   UNL     1      46.421   7.473  12.321  0.00  0.00    +0.000 S 
ATOM     15  C   UNL     1      45.012   6.534  12.156  0.00  0.00    +0.000 A 
ATOM     16  N   UNL     1      43.975   6.957  11.382  0.00  0.00    +0.000 NA
ATOM     17  C   UNL     1      42.988   6.129  11.315  0.00  0.00    +0.000 A 
ATOM     18  N   UNL     1      42.940   4.918  11.956  0.00  0.00    +0.000 N 
ATOM     19  C   UNL     1      43.944   4.465  12.777  0.00  0.00    +0.000 A 
ATOM     20  O   UNL     1      43.842   3.406  13.380  0.00  0.00    +0.000 OA
ATOM     21  C   UNL     1      45.087   5.356  12.873  0.00  0.00    +0.000 A 
ATOM     22  H   UNL     1      42.130   4.320  11.875  0.00  0.00    +0.000 HD
ENDBRANCH   9  12
ENDBRANCH   7  10
ENDBRANCH   1   7
BRANCH   4  23
ATOM     23  C   UNL     1      52.813   3.485  18.173  0.00  0.00    +0.000 C 
BRANCH  23  24
ATOM     24  N   UNL     1      53.219   2.306  18.908  0.00  0.00    +0.000 N 
ATOM     25  C   UNL     1      54.169   1.465  18.363  0.00  0.00    +0.000 C 
ATOM     26  O   UNL     1      54.785   1.740  17.332  0.00  0.00    +0.000 OA
ATOM     27  H   UNL     1      52.605   1.960  19.634  0.00  0.00    +0.000 HD
BRANCH  25  28
ATOM     28  C   UNL     1      54.365   0.125  19.098  0.00  0.00    +0.000 C 
ATOM     29  C   UNL     1      55.775  -0.451  18.971  0.00  0.00    +0.000 C 
ATOM     30  C   UNL     1      55.532  -1.919  18.657  0.00  0.00    +0.000 C 
ATOM     31  C   UNL     1      54.287  -1.855  17.787  0.00  0.00    +0.000 C 
ATOM     32  N   UNL     1      53.443  -0.912  18.542  0.00  0.00    +0.000 NA
ATOM     33  H   UNL     1      52.793  -0.446  17.895  0.00  0.00    +0.000 HD
BRANCH  30  34
ATOM     34  O   UNL     1      55.243  -2.621  19.872  0.00  0.00    +0.000 OA
ATOM     35  H   UNL     1      56.115  -2.873  20.240  0.00  0.00    +0.000 HD
ENDBRANCH  30  34
ENDBRANCH  25  28
ENDBRANCH  23  24
ENDBRANCH   4  23
TORSDOF 7
ENDMDL
MODEL 7
REMARK VINA RESULT:    -6.826      2.984      8.776
REMARK INTER + INTRA:         -10.609
REMARK INTER:                  -9.498
REMARK INTRA:                  -1.111
REMARK UNBOUND:                -1.190
REMARK  Name = 
REMARK  7 active torsions:
REMARK  status: ('A' for Active; 'I' for Inactive)
REMARK    1  A    between atoms: C_2  and  C_21
REMARK    2  A    between atoms: N_3  and  C_4
REMARK    3  A    between atoms: C_4  and  C_5
REMARK    4  A    between atoms: C_8  and  C_9
REMARK    5  A    between atoms: C_9  and  N_10
REMARK    6  A    between atoms: C_11  and  C_13
REMARK    7  A    between atoms: C_15  and  O_16
REMARK                            x       y       z     vdW  Elec       q    Type
REMARK                         _______ _______ _______ _____ _____    ______ ____
ROOT
ATOM      1  C   UNL     1      48.397   8.072  12.937  0.00  0.00    +0.000 A 
ATOM      2  C   UNL     1      49.760   7.746  12.975  0.00  0.00    +0.000 A 
ATOM      3  C   UNL     1      50.492   7.859  14.163  0.00  0.00    +0.000 A 
ATOM      4  C   UNL     1      49.871   8.279  15.347  0.00  0.00    +0.000 A 
ATOM      5  C   UNL     1      48.505   8.595  15.311  0.00  0.00    +0.000 A 
ATOM      6  C   UNL     1      47.775   8.484  14.121  0.00  0.00    +0.000 A 
ENDROOT
BRANCH   1   7
ATOM      7  C   UNL     1      47.614   7.940  11.653  0.00  0.00    +0.000 C 
BRANCH   7  10
ATOM      8  O   UNL     1      44.862   7.634  11.964  0.00  0.00    +0.000 OA
ATOM      9  C   UNL     1      45.533   6.640  11.701  0.00  0.00    +0.000 C 
ATOM     10  N   UNL     1      46.903   6.689  11.599  0.00  0.00    +0.000 N 
ATOM     11  H   UNL     1      47.393   5.906  11.180  0.00  0.00    +0.000 HD
BRANCH   9  12
ATOM     12  C   UNL     1      44.913   5.321  11.524  0.00  0.00    +0.000 A 
ATOM     13  C   UNL     1      44.165   4.758  12.549  0.00  0.00    +0.000 A 
ATOM     14  S   UNL     1      43.554   3.209  12.176  0.00  0.00    +0.000 S 
ATOM     15  C   UNL     1      44.225   3.260  10.614  0.00  0.00    +0.000 A 
ATOM     16  N   UNL     1      44.050   2.229   9.742  0.00  0.00    +0.000 NA
ATOM     17  C   UNL     1      44.579   2.418   8.581  0.00  0.00    +0.000 A 
ATOM     18  N   UNL     1      45.272   3.542   8.211  0.00  0.00    +0.000 N 
ATOM     19  C   UNL     1      45.507   4.592   9.067  0.00  0.00    +0.000 A 
ATOM     20  O   UNL     1      46.180   5.553   8.723  0.00  0.00    +0.000 OA
ATOM     21  C   UNL     1      44.917   4.433  10.385  0.00  0.00    +0.000 A 
ATOM     22  H   UNL     1      45.675   3.624   7.289  0.00  0.00    +0.000 HD
ENDBRANCH   9  12
ENDBRANCH   7  10
ENDBRANCH   1   7
BRANCH   4  23
ATOM     23  C   UNL     1      50.647   8.364  16.637  0.00  0.00    +0.000 C 
BRANCH  23  24
ATOM     24  N   UNL     1      50.179   7.430  17.638  0.00  0.00    +0.000 N 
ATOM     25  C   UNL     1      50.516   6.096  17.524  0.00  0.00    +0.000 C 
ATOM     26  O   UNL     1      51.307   5.681  16.677  0.00  0.00    +0.000 OA
ATOM     27  H   UNL     1      49.388   7.698  18.209  0.00  0.00    +0.000 HD
BRANCH  25  28
ATOM     28  C   UNL     1      49.786   5.145  18.494  0.00  0.00    +0.000 C 
ATOM     29  C   UNL     1      49.834   3.676  18.077  0.00  0.00    +0.000 C 
ATOM     30  C   UNL     1      48.403   3.203  18.278  0.00  0.00    +0.000 C 
ATOM     31  C   UNL     1      47.604   4.434  17.881  0.00  0.00    +0.000 C 
ATOM     32  N   UNL     1      48.338   5.505  18.580  0.00  0.00    +0.000 NA
ATOM     33  H   UNL     1      48.199   6.392  18.080  0.00  0.00    +0.000 HD
BRANCH  30  34
ATOM     34  O   UNL     1      48.192   2.909  19.664  0.00  0.00    +0.000 OA
ATOM     35  H   UNL     1      49.062   3.046  20.093  0.00  0.00    +0.000 HD
ENDBRANCH  30  34
ENDBRANCH  25  28
ENDBRANCH  23  24
ENDBRANCH   4  23
TORSDOF 7
ENDMDL
MODEL 8
REMARK VINA RESULT:    -6.807      4.480      6.711
REMARK INTER + INTRA:         -10.583
REMARK INTER:                  -9.559
REMARK INTRA:                  -1.025
REMARK UNBOUND:                -1.190
REMARK  Name = 
REMARK  7 active torsions:
REMARK  status: ('A' for Active; 'I' for Inactive)
REMARK    1  A    between atoms: C_2  and  C_21
REMARK    2  A    between atoms: N_3  and  C_4
REMARK    3  A    between atoms: C_4  and  C_5
REMARK    4  A    between atoms: C_8  and  C_9
REMARK    5  A    between atoms: C_9  and  N_10
REMARK    6  A    between atoms: C_11  and  C_13
REMARK    7  A    between atoms: C_15  and  O_16
REMARK                            x       y       z     vdW  Elec       q    Type
REMARK                         _______ _______ _______ _____ _____    ______ ____
ROOT
ATOM      1  C   UNL     1      45.626   5.903  12.873  0.00  0.00    +0.000 A 
ATOM      2  C   UNL     1      46.377   7.060  13.127  0.00  0.00    +0.000 A 
ATOM      3  C   UNL     1      46.056   8.274  12.506  0.00  0.00    +0.000 A 
ATOM      4  C   UNL     1      44.962   8.363  11.636  0.00  0.00    +0.000 A 
ATOM      5  C   UNL     1      44.205   7.209  11.390  0.00  0.00    +0.000 A 
ATOM      6  C   UNL     1      44.528   5.995  12.010  0.00  0.00    +0.000 A 
ENDROOT
BRANCH   1   7
ATOM      7  C   UNL     1      45.975   4.601  13.551  0.00  0.00    +0.000 C 
BRANCH   7  10
ATOM      8  O   UNL     1      47.761   2.894  14.841  0.00  0.00    +0.000 OA
ATOM      9  C   UNL     1      47.473   3.958  15.385  0.00  0.00    +0.000 C 
ATOM     10  N   UNL     1      46.550   4.825  14.852  0.00  0.00    +0.000 N 
ATOM     11  H   UNL     1      46.497   5.771  15.215  0.00  0.00    +0.000 HD
BRANCH   9  12
ATOM     12  C   UNL     1      48.068   4.347  16.670  0.00  0.00    +0.000 A 
ATOM     13  C   UNL     1      47.828   3.590  17.808  0.00  0.00    +0.000 A 
ATOM     14  S   UNL     1      48.571   4.215  19.212  0.00  0.00    +0.000 S 
ATOM     15  C   UNL     1      49.280   5.489  18.336  0.00  0.00    +0.000 A 
ATOM     16  N   UNL     1      50.082   6.401  18.951  0.00  0.00    +0.000 NA
ATOM     17  C   UNL     1      50.583   7.288  18.160  0.00  0.00    +0.000 A 
ATOM     18  N   UNL     1      50.353   7.351  16.810  0.00  0.00    +0.000 N 
ATOM     19  C   UNL     1      49.521   6.477  16.151  0.00  0.00    +0.000 A 
ATOM     20  O   UNL     1      49.291   6.600  14.956  0.00  0.00    +0.000 OA
ATOM     21  C   UNL     1      48.943   5.448  16.997  0.00  0.00    +0.000 A 
ATOM     22  H   UNL     1      50.764   8.082  16.247  0.00  0.00    +0.000 HD
ENDBRANCH   9  12
ENDBRANCH   7  10
ENDBRANCH   1   7
BRANCH   4  23
ATOM     23  C   UNL     1      44.591   9.678  10.997  0.00  0.00    +0.000 C 
BRANCH  23  24
ATOM     24  N   UNL     1      43.259   9.671  10.430  0.00  0.00    +0.000 N 
ATOM     25  C   UNL     1      42.292  10.494  10.973  0.00  0.00    +0.000 C 
ATOM     26  O   UNL     1      42.544  11.332  11.839  0.00  0.00    +0.000 OA
ATOM     27  H   UNL     1      42.980   8.875   9.873  0.00  0.00    +0.000 HD
BRANCH  25  28
ATOM     28  C   UNL     1      40.857  10.252  10.464  0.00  0.00    +0.000 C 
ATOM     29  C   UNL     1      40.151  11.515   9.974  0.00  0.00    +0.000 C 
ATOM     30  C   UNL     1      38.769  11.416  10.601  0.00  0.00    +0.000 C 
ATOM     31  C   UNL     1      39.077  10.779  11.946  0.00  0.00    +0.000 C 
ATOM     32  N   UNL     1      40.005   9.701  11.562  0.00  0.00    +0.000 NA
ATOM     33  H   UNL     1      40.615   9.479  12.359  0.00  0.00    +0.000 HD
BRANCH  30  34
ATOM     34  O   UNL     1      37.957  10.533   9.817  0.00  0.00    +0.000 OA
ATOM     35  H   UNL     1      37.173  10.341  10.372  0.00  0.00    +0.000 HD
ENDBRANCH  30  34
ENDBRANCH  25  28
ENDBRANCH  23  24
ENDBRANCH   4  23
TORSDOF 7
ENDMDL
MODEL 9
REMARK VINA RESULT:    -6.723      3.289      5.042
REMARK INTER + INTRA:         -10.467
REMARK INTER:                  -9.451
REMARK INTRA:                  -1.016
REMARK UNBOUND:                -1.190
REMARK  Name = 
REMARK  7 active torsions:
REMARK  status: ('A' for Active; 'I' for Inactive)
REMARK    1  A    between atoms: C_2  and  C_21
REMARK    2  A    between atoms: N_3  and  C_4
REMARK    3  A    between atoms: C_4  and  C_5
REMARK    4  A    between atoms: C_8  and  C_9
REMARK    5  A    between atoms: C_9  and  N_10
REMARK    6  A    between atoms: C_11  and  C_13
REMARK    7  A    between atoms: C_15  and  O_16
REMARK                            x       y       z     vdW  Elec       q    Type
REMARK                         _______ _______ _______ _____ _____    ______ ____
ROOT
ATOM      1  C   UNL     1      48.745   7.824  16.120  0.00  0.00    +0.000 A 
ATOM      2  C   UNL     1      48.735   6.597  15.443  0.00  0.00    +0.000 A 
ATOM      3  C   UNL     1      48.237   6.502  14.138  0.00  0.00    +0.000 A 
ATOM      4  C   UNL     1      47.762   7.639  13.471  0.00  0.00    +0.000 A 
ATOM      5  C   UNL     1      47.782   8.868  14.144  0.00  0.00    +0.000 A 
ATOM      6  C   UNL     1      48.277   8.961  15.451  0.00  0.00    +0.000 A 
ENDROOT
BRANCH   1   7
ATOM      7  C   UNL     1      49.289   7.919  17.525  0.00  0.00    +0.000 C 
BRANCH   7  10
ATOM      8  O   UNL     1      49.105   5.749  19.264  0.00  0.00    +0.000 OA
ATOM      9  C   UNL     1      50.121   5.867  18.584  0.00  0.00    +0.000 C 
ATOM     10  N   UNL     1      50.324   6.943  17.753  0.00  0.00    +0.000 N 
ATOM     11  H   UNL     1      51.066   6.898  17.063  0.00  0.00    +0.000 HD
BRANCH   9  12
ATOM     12  C   UNL     1      51.209   4.883  18.654  0.00  0.00    +0.000 A 
ATOM     13  C   UNL     1      52.361   5.167  19.373  0.00  0.00    +0.000 A 
ATOM     14  S   UNL     1      53.528   3.923  19.311  0.00  0.00    +0.000 S 
ATOM     15  C   UNL     1      52.512   2.942  18.363  0.00  0.00    +0.000 A 
ATOM     16  N   UNL     1      52.905   1.700  17.969  0.00  0.00    +0.000 NA
ATOM     17  C   UNL     1      52.019   1.052  17.289  0.00  0.00    +0.000 A 
ATOM     18  N   UNL     1      50.779   1.534  16.963  0.00  0.00    +0.000 N 
ATOM     19  C   UNL     1      50.351   2.794  17.305  0.00  0.00    +0.000 A 
ATOM     20  O   UNL     1      49.260   3.214  16.945  0.00  0.00    +0.000 OA
ATOM     21  C   UNL     1      51.307   3.559  18.085  0.00  0.00    +0.000 A 
ATOM     22  H   UNL     1      50.135   0.981  16.414  0.00  0.00    +0.000 HD
ENDBRANCH   9  12
ENDBRANCH   7  10
ENDBRANCH   1   7
BRANCH   4  23
ATOM     23  C   UNL     1      47.262   7.547  12.051  0.00  0.00    +0.000 C 
BRANCH  23  24
ATOM     24  N   UNL     1      46.321   6.466  11.854  0.00  0.00    +0.000 N 
ATOM     25  C   UNL     1      44.995   6.763  11.607  0.00  0.00    +0.000 C 
ATOM     26  O   UNL     1      44.597   7.913  11.419  0.00  0.00    +0.000 OA
ATOM     27  H   UNL     1      46.571   5.547  12.194  0.00  0.00    +0.000 HD
BRANCH  25  28
ATOM     28  C   UNL     1      44.031   5.561  11.644  0.00  0.00    +0.000 C 
ATOM     29  C   UNL     1      44.701   4.239  12.013  0.00  0.00    +0.000 C 
ATOM     30  C   UNL     1      44.134   3.258  10.999  0.00  0.00    +0.000 C 
ATOM     31  C   UNL     1      44.017   4.122   9.754  0.00  0.00    +0.000 C 
ATOM     32  N   UNL     1      43.413   5.351  10.299  0.00  0.00    +0.000 NA
ATOM     33  H   UNL     1      43.670   6.148   9.702  0.00  0.00    +0.000 HD
BRANCH  30  34
ATOM     34  O   UNL     1      42.833   2.836  11.425  0.00  0.00    +0.000 OA
ATOM     35  H   UNL     1      42.992   2.228  12.177  0.00  0.00    +0.000 HD
ENDBRANCH  30  34
ENDBRANCH  25  28
ENDBRANCH  23  24
ENDBRANCH   4  23
TORSDOF 7
ENDMDL
