MODEL 1
REMARK VINA RESULT:    -8.262      0.000      0.000
REMARK INTER + INTRA:         -13.923
REMARK INTER:                 -12.851
REMARK INTRA:                  -1.072
REMARK UNBOUND:                -1.072
REMARK  Name = 
REMARK  10 active torsions:
REMARK  status: ('A' for Active; 'I' for Inactive)
REMARK    1  A    between atoms: N_1  and  C_2
REMARK    2  A    between atoms: C_2  and  C_3
REMARK    3  A    between atoms: C_3  and  N_4
REMARK    4  A    between atoms: C_3  and  C_20
REMARK    5  A    between atoms: N_4  and  C_5
REMARK    6  A    between atoms: C_5  and  C_6
REMARK    7  A    between atoms: C_9  and  C_10
REMARK    8  A    between atoms: C_10  and  N_11
REMARK    9  A    between atoms: N_11  and  C_12
REMARK   10  A    between atoms: C_12  and  C_13
REMARK                            x       y       z     vdW  Elec       q    Type
REMARK                         _______ _______ _______ _____ _____    ______ ____
ROOT
ATOM      1  N   UNL     1      48.418   4.548  15.812  0.00  0.00    +0.000 NA
ATOM      2  H   UNL     1      49.370   4.391  15.480  0.00  0.00    +0.000 HD
ENDROOT
BRANCH   1   3
ATOM      3  C   UNL     1      48.491   4.904  17.252  0.00  0.00    +0.000 C 
BRANCH   3   4
ATOM      4  C   UNL     1      49.915   4.567  17.699  0.00  0.00    +0.000 A 
ATOM      5  C   UNL     1      50.738   5.461  18.365  0.00  0.00    +0.000 A 
ATOM      6  S   UNL     1      52.265   4.821  18.769  0.00  0.00    +0.000 S 
ATOM      7  C   UNL     1      51.879   3.314  18.081  0.00  0.00    +0.000 A 
ATOM      8  N   UNL     1      52.769   2.283  18.122  0.00  0.00    +0.000 NA
ATOM      9  C   UNL     1      52.338   1.190  17.590  0.00  0.00    +0.000 A 
ATOM     10  N   UNL     1      51.105   1.037  17.005  0.00  0.00    +0.000 N 
ATOM     11  C   UNL     1      50.188   2.064  16.897  0.00  0.00    +0.000 A 
ATOM     12  O   UNL     1      49.120   1.908  16.314  0.00  0.00    +0.000 OA
ATOM     13  C   UNL     1      50.610   3.303  17.527  0.00  0.00    +0.000 A 
ATOM     14  H   UNL     1      50.841   0.155  16.593  0.00  0.00    +0.000 HD
ENDBRANCH   3   4
BRANCH   3  15
ATOM     15  C   UNL     1      47.414   4.144  18.103  0.00  0.00    +0.000 C 
BRANCH  15  16
ATOM     16  N   UNL     1      46.660   3.108  17.392  0.00  0.00    +0.000 NA
ATOM     17  H   UNL     1      45.769   3.507  17.092  0.00  0.00    +0.000 HD
ATOM     18  H   UNL     1      46.428   2.354  18.037  0.00  0.00    +0.000 HD
ENDBRANCH  15  16
ENDBRANCH   3  15
ENDBRANCH   1   3
BRANCH   1  19
ATOM     19  C   UNL     1      47.796   5.584  14.987  0.00  0.00    +0.000 C 
BRANCH  19  20
ATOM     20  C   UNL     1      46.829   5.019  13.984  0.00  0.00    +0.000 A 
ATOM     21  C   UNL     1      46.109   5.844  13.116  0.00  0.00    +0.000 A 
ATOM     22  C   UNL     1      45.281   5.279  12.149  0.00  0.00    +0.000 A 
ATOM     23  C   UNL     1      45.198   3.892  12.067  0.00  0.00    +0.000 A 
ATOM     24  N   UNL     1      45.899   3.069  12.888  0.00  0.00    +0.000 NA
ATOM     25  C   UNL     1      46.689   3.646  13.819  0.00  0.00    +0.000 A 
BRANCH  23  26
ATOM     26  C   UNL     1      44.258   3.238  11.072  0.00  0.00    +0.000 C 
BRANCH  26  27
ATOM     27  N   UNL     1      44.930   2.384  10.084  0.00  0.00    +0.000 NA
ATOM     28  H   UNL     1      44.522   1.448  10.167  0.00  0.00    +0.000 HD
BRANCH  27  29
ATOM     29  C   UNL     1      44.667   2.830   8.712  0.00  0.00    +0.000 C 
BRANCH  29  30
ATOM     30  C   UNL     1      45.934   2.716   7.932  0.00  0.00    +0.000 A 
ATOM     31  C   UNL     1      46.643   3.707   7.285  0.00  0.00    +0.000 A 
ATOM     32  N   UNL     1      47.731   3.080   6.747  0.00  0.00    +0.000 N 
ATOM     33  C   UNL     1      47.645   1.756   7.068  0.00  0.00    +0.000 A 
ATOM     34  N   UNL     1      46.571   1.502   7.779  0.00  0.00    +0.000 NA
ATOM     35  H   UNL     1      48.471   3.513   6.214  0.00  0.00    +0.000 HD
ENDBRANCH  29  30
ENDBRANCH  27  29
ENDBRANCH  26  27
ENDBRANCH  23  26
ENDBRANCH  19  20
ENDBRANCH   1  19
TORSDOF 10
ENDMDL
MODEL 2
REMARK VINA RESULT:    -7.606      2.357      3.404
REMARK INTER + INTRA:         -12.902
REMARK INTER:                 -11.659
REMARK INTRA:                  -1.243
REMARK UNBOUND:                -1.072
REMARK  Name = 
REMARK  10 active torsions:
REMARK  status: ('A' for Active; 'I' for Inactive)
REMARK    1  A    between atoms: N_1  and  C_2
REMARK    2  A    between atoms: C_2  and  C_3
REMARK    3  A    between atoms: C_3  and  N_4
REMARK    4  A    between atoms: C_3  and  C_20
REMARK    5  A    between atoms: N_4  and  C_5
REMARK    6  A    between atoms: C_5  and  C_6
REMARK    7  A    between atoms: C_9  and  C_10
REMARK    8  A    between atoms: C_10  and  N_11
REMARK    9  A    between atoms: N_11  and  C_12
REMARK   10  A    between atoms: C_12  and  C_13
REMARK                            x       y       z     vdW  Elec       q    Type
REMARK                         _______ _______ _______ _____ _____    ______ ____
ROOT
ATOM      1  N   UNL     1      47.137   7.703  14.198  0.00  0.00    +0.000 NA
ATOM      2  H   UNL     1      46.487   7.112  14.717  0.00  0.00    +0.000 HD
ENDROOT
BRANCH   1   3
ATOM      3  C   UNL     1      48.395   6.938  14.004  0.00  0.00    +0.000 C 
BRANCH   3   4
ATOM      4  C   UNL     1      48.782   6.406  15.386  0.00  0.00    +0.000 A 
ATOM      5  C   UNL     1      49.742   6.998  16.190  0.00  0.00    +0.000 A 
ATOM      6  S   UNL     1      49.961   6.218  17.689  0.00  0.00    +0.000 S 
ATOM      7  C   UNL     1      48.765   5.064  17.327  0.00  0.00    +0.000 A 
ATOM      8  N   UNL     1      48.433   4.101  18.232  0.00  0.00    +0.000 NA
ATOM      9  C   UNL     1      47.493   3.309  17.842  0.00  0.00    +0.000 A 
ATOM     10  N   UNL     1      46.865   3.381  16.622  0.00  0.00    +0.000 N 
ATOM     11  C   UNL     1      47.200   4.308  15.654  0.00  0.00    +0.000 A 
ATOM     12  O   UNL     1      46.660   4.303  14.552  0.00  0.00    +0.000 OA
ATOM     13  C   UNL     1      48.221   5.253  16.069  0.00  0.00    +0.000 A 
ATOM     14  H   UNL     1      46.148   2.715  16.377  0.00  0.00    +0.000 HD
ENDBRANCH   3   4
BRANCH   3  15
ATOM     15  C   UNL     1      49.531   7.819  13.376  0.00  0.00    +0.000 C 
BRANCH  15  16
ATOM     16  N   UNL     1      50.148   7.283  12.159  0.00  0.00    +0.000 NA
ATOM     17  H   UNL     1      50.241   8.043  11.484  0.00  0.00    +0.000 HD
ATOM     18  H   UNL     1      49.521   6.602  11.732  0.00  0.00    +0.000 HD
ENDBRANCH  15  16
ENDBRANCH   3  15
ENDBRANCH   1   3
BRANCH   1  19
ATOM     19  C   UNL     1      46.504   8.110  12.942  0.00  0.00    +0.000 C 
BRANCH  19  20
ATOM     20  C   UNL     1      45.817   6.967  12.247  0.00  0.00    +0.000 A 
ATOM     21  C   UNL     1      46.292   6.453  11.038  0.00  0.00    +0.000 A 
ATOM     22  C   UNL     1      45.674   5.345  10.465  0.00  0.00    +0.000 A 
ATOM     23  C   UNL     1      44.592   4.767  11.122  0.00  0.00    +0.000 A 
ATOM     24  N   UNL     1      44.120   5.239  12.305  0.00  0.00    +0.000 NA
ATOM     25  C   UNL     1      44.737   6.318  12.833  0.00  0.00    +0.000 A 
BRANCH  23  26
ATOM     26  C   UNL     1      43.849   3.601  10.498  0.00  0.00    +0.000 C 
BRANCH  26  27
ATOM     27  N   UNL     1      44.193   3.356   9.092  0.00  0.00    +0.000 NA
ATOM     28  H   UNL     1      44.842   4.096   8.806  0.00  0.00    +0.000 HD
BRANCH  27  29
ATOM     29  C   UNL     1      44.912   2.088   8.922  0.00  0.00    +0.000 C 
BRANCH  29  30
ATOM     30  C   UNL     1      46.066   2.324   8.006  0.00  0.00    +0.000 A 
ATOM     31  C   UNL     1      46.467   3.498   7.403  0.00  0.00    +0.000 A 
ATOM     32  N   UNL     1      47.586   3.173   6.688  0.00  0.00    +0.000 N 
ATOM     33  C   UNL     1      47.818   1.841   6.868  0.00  0.00    +0.000 A 
ATOM     34  N   UNL     1      46.919   1.297   7.655  0.00  0.00    +0.000 NA
ATOM     35  H   UNL     1      48.146   3.803   6.132  0.00  0.00    +0.000 HD
ENDBRANCH  29  30
ENDBRANCH  27  29
ENDBRANCH  26  27
ENDBRANCH  23  26
ENDBRANCH  19  20
ENDBRANCH   1  19
TORSDOF 10
ENDMDL
MODEL 3
REMARK VINA RESULT:    -7.029      2.157      3.107
REMARK INTER + INTRA:         -12.004
REMARK INTER:                 -11.294
REMARK INTRA:                  -0.711
REMARK UNBOUND:                -1.072
REMARK  Name = 
REMARK  10 active torsions:
REMARK  status: ('A' for Active; 'I' for Inactive)
REMARK    1  A    between atoms: N_1  and  C_2
REMARK    2  A    between atoms: C_2  and  C_3
REMARK    3  A    between atoms: C_3  and  N_4
REMARK    4  A    between atoms: C_3  and  C_20
REMARK    5  A    between atoms: N_4  and  C_5
REMARK    6  A    between atoms: C_5  and  C_6
REMARK    7  A    between atoms: C_9  and  C_10
REMARK    8  A    between atoms: C_10  and  N_11
REMARK    9  A    between atoms: N_11  and  C_12
REMARK   10  A    between atoms: C_12  and  C_13
REMARK                            x       y       z     vdW  Elec       q    Type
REMARK                         _______ _______ _______ _____ _____    ______ ____
ROOT
ATOM      1  N   UNL     1      48.051   5.847  14.919  0.00  0.00    +0.000 NA
ATOM      2  H   UNL     1      48.281   4.880  14.691  0.00  0.00    +0.000 HD
ENDROOT
BRANCH   1   3
ATOM      3  C   UNL     1      49.274   6.492  15.462  0.00  0.00    +0.000 C 
BRANCH   3   4
ATOM      4  C   UNL     1      48.993   6.750  16.944  0.00  0.00    +0.000 A 
ATOM      5  C   UNL     1      48.649   7.994  17.449  0.00  0.00    +0.000 A 
ATOM      6  S   UNL     1      48.365   7.999  19.130  0.00  0.00    +0.000 S 
ATOM      7  C   UNL     1      48.676   6.331  19.245  0.00  0.00    +0.000 A 
ATOM      8  N   UNL     1      48.570   5.685  20.440  0.00  0.00    +0.000 NA
ATOM      9  C   UNL     1      48.806   4.418  20.380  0.00  0.00    +0.000 A 
ATOM     10  N   UNL     1      49.153   3.740  19.238  0.00  0.00    +0.000 N 
ATOM     11  C   UNL     1      49.320   4.357  18.014  0.00  0.00    +0.000 A 
ATOM     12  O   UNL     1      49.691   3.730  17.027  0.00  0.00    +0.000 OA
ATOM     13  C   UNL     1      49.017   5.778  18.022  0.00  0.00    +0.000 A 
ATOM     14  H   UNL     1      49.340   2.749  19.270  0.00  0.00    +0.000 HD
ENDBRANCH   3   4
BRANCH   3  15
ATOM     15  C   UNL     1      49.636   7.812  14.694  0.00  0.00    +0.000 C 
BRANCH  15  16
ATOM     16  N   UNL     1      50.729   7.701  13.724  0.00  0.00    +0.000 NA
ATOM     17  H   UNL     1      50.371   7.967  12.805  0.00  0.00    +0.000 HD
ATOM     18  H   UNL     1      51.013   6.725  13.644  0.00  0.00    +0.000 HD
ENDBRANCH  15  16
ENDBRANCH   3  15
ENDBRANCH   1   3
BRANCH   1  19
ATOM     19  C   UNL     1      47.532   6.504  13.718  0.00  0.00    +0.000 C 
BRANCH  19  20
ATOM     20  C   UNL     1      46.562   5.639  12.962  0.00  0.00    +0.000 A 
ATOM     21  C   UNL     1      46.016   6.045  11.742  0.00  0.00    +0.000 A 
ATOM     22  C   UNL     1      45.181   5.184  11.035  0.00  0.00    +0.000 A 
ATOM     23  C   UNL     1      44.917   3.924  11.564  0.00  0.00    +0.000 A 
ATOM     24  N   UNL     1      45.447   3.500  12.739  0.00  0.00    +0.000 NA
ATOM     25  C   UNL     1      46.248   4.360  13.405  0.00  0.00    +0.000 A 
BRANCH  23  26
ATOM     26  C   UNL     1      43.960   2.982  10.858  0.00  0.00    +0.000 C 
BRANCH  26  27
ATOM     27  N   UNL     1      44.592   2.147   9.828  0.00  0.00    +0.000 NA
ATOM     28  H   UNL     1      43.948   1.376   9.628  0.00  0.00    +0.000 HD
BRANCH  27  29
ATOM     29  C   UNL     1      44.766   2.878   8.569  0.00  0.00    +0.000 C 
BRANCH  29  30
ATOM     30  C   UNL     1      46.025   2.404   7.922  0.00  0.00    +0.000 A 
ATOM     31  C   UNL     1      46.540   1.125   7.867  0.00  0.00    +0.000 A 
ATOM     32  N   UNL     1      47.695   1.233   7.143  0.00  0.00    +0.000 N 
ATOM     33  C   UNL     1      47.845   2.545   6.799  0.00  0.00    +0.000 A 
ATOM     34  N   UNL     1      46.858   3.279   7.255  0.00  0.00    +0.000 NA
ATOM     35  H   UNL     1      48.322   0.481   6.899  0.00  0.00    +0.000 HD
ENDBRANCH  29  30
ENDBRANCH  27  29
ENDBRANCH  26  27
ENDBRANCH  23  26
ENDBRANCH  19  20
ENDBRANCH   1  19
TORSDOF 10
ENDMDL
MODEL 4
REMARK VINA RESULT:    -6.872      2.215      3.174
REMARK INTER + INTRA:         -11.760
REMARK INTER:                 -10.887
REMARK INTRA:                  -0.873
REMARK UNBOUND:                -1.072
REMARK  Name = 
REMARK  10 active torsions:
REMARK  status: ('A' for Active; 'I' for Inactive)
REMARK    1  A    between atoms: N_1  and  C_2
REMARK    2  A    between atoms: C_2  and  C_3
REMARK    3  A    between atoms: C_3  and  N_4
REMARK    4  A    between atoms: C_3  and  C_20
REMARK    5  A    between atoms: N_4  and  C_5
REMARK    6  A    between atoms: C_5  and  C_6
REMARK    7  A    between atoms: C_9  and  C_10
REMARK    8  A    between atoms: C_10  and  N_11
REMARK    9  A    between atoms: N_11  and  C_12
REMARK   10  A    between atoms: C_12  and  C_13
REMARK                            x       y       z     vdW  Elec       q    Type
REMARK                         _______ _______ _______ _____ _____    ______ ____
ROOT
ATOM      1  N   UNL     1      48.269   5.103  14.921  0.00  0.00    +0.000 NA
ATOM      2  H   UNL     1      49.196   5.528  14.951  0.00  0.00    +0.000 HD
ENDROOT
BRANCH   1   3
ATOM      3  C   UNL     1      47.824   4.879  16.320  0.00  0.00    +0.000 C 
BRANCH   3   4
ATOM      4  C   UNL     1      48.783   5.684  17.201  0.00  0.00    +0.000 A 
ATOM      5  C   UNL     1      50.075   6.010  16.822  0.00  0.00    +0.000 A 
ATOM      6  S   UNL     1      50.919   6.934  17.980  0.00  0.00    +0.000 S 
ATOM      7  C   UNL     1      49.579   6.947  19.028  0.00  0.00    +0.000 A 
ATOM      8  N   UNL     1      49.633   7.615  20.215  0.00  0.00    +0.000 NA
ATOM      9  C   UNL     1      48.540   7.567  20.899  0.00  0.00    +0.000 A 
ATOM     10  N   UNL     1      47.404   6.900  20.513  0.00  0.00    +0.000 N 
ATOM     11  C   UNL     1      47.316   6.171  19.344  0.00  0.00    +0.000 A 
ATOM     12  O   UNL     1      46.305   5.537  19.061  0.00  0.00    +0.000 OA
ATOM     13  C   UNL     1      48.508   6.236  18.516  0.00  0.00    +0.000 A 
ATOM     14  H   UNL     1      46.589   6.892  21.109  0.00  0.00    +0.000 HD
ENDBRANCH   3   4
BRANCH   3  15
ATOM     15  C   UNL     1      47.816   3.357  16.701  0.00  0.00    +0.000 C 
BRANCH  15  16
ATOM     16  N   UNL     1      48.667   2.494  15.876  0.00  0.00    +0.000 NA
ATOM     17  H   UNL     1      48.312   2.513  14.918  0.00  0.00    +0.000 HD
ATOM     18  H   UNL     1      48.576   1.528  16.190  0.00  0.00    +0.000 HD
ENDBRANCH  15  16
ENDBRANCH   3  15
ENDBRANCH   1   3
BRANCH   1  19
ATOM     19  C   UNL     1      47.375   5.976  14.159  0.00  0.00    +0.000 C 
BRANCH  19  20
ATOM     20  C   UNL     1      46.406   5.206  13.305  0.00  0.00    +0.000 A 
ATOM     21  C   UNL     1      45.538   5.850  12.420  0.00  0.00    +0.000 A 
ATOM     22  C   UNL     1      44.710   5.098  11.590  0.00  0.00    +0.000 A 
ATOM     23  C   UNL     1      44.778   3.709  11.658  0.00  0.00    +0.000 A 
ATOM     24  N   UNL     1      45.623   3.060  12.498  0.00  0.00    +0.000 NA
ATOM     25  C   UNL     1      46.410   3.816  13.294  0.00  0.00    +0.000 A 
BRANCH  23  26
ATOM     26  C   UNL     1      43.846   2.854  10.819  0.00  0.00    +0.000 C 
BRANCH  26  27
ATOM     27  N   UNL     1      44.494   2.218   9.665  0.00  0.00    +0.000 NA
ATOM     28  H   UNL     1      43.851   1.501   9.315  0.00  0.00    +0.000 HD
BRANCH  27  29
ATOM     29  C   UNL     1      44.694   3.166   8.564  0.00  0.00    +0.000 C 
BRANCH  29  30
ATOM     30  C   UNL     1      45.953   2.798   7.851  0.00  0.00    +0.000 A 
ATOM     31  C   UNL     1      46.773   3.593   7.078  0.00  0.00    +0.000 A 
ATOM     32  N   UNL     1      47.796   2.777   6.681  0.00  0.00    +0.000 N 
ATOM     33  C   UNL     1      47.564   1.539   7.207  0.00  0.00    +0.000 A 
ATOM     34  N   UNL     1      46.459   1.515   7.915  0.00  0.00    +0.000 NA
ATOM     35  H   UNL     1      48.585   3.040   6.109  0.00  0.00    +0.000 HD
ENDBRANCH  29  30
ENDBRANCH  27  29
ENDBRANCH  26  27
ENDBRANCH  23  26
ENDBRANCH  19  20
ENDBRANCH   1  19
TORSDOF 10
ENDMDL
MODEL 5
REMARK VINA RESULT:    -6.792      2.253      2.920
REMARK INTER + INTRA:         -11.636
REMARK INTER:                 -10.708
REMARK INTRA:                  -0.928
REMARK UNBOUND:                -1.072
REMARK  Name = 
REMARK  10 active torsions:
REMARK  status: ('A' for Active; 'I' for Inactive)
REMARK    1  A    between atoms: N_1  and  C_2
REMARK    2  A    between atoms: C_2  and  C_3
REMARK    3  A    between atoms: C_3  and  N_4
REMARK    4  A    between atoms: C_3  and  C_20
REMARK    5  A    between atoms: N_4  and  C_5
REMARK    6  A    between atoms: C_5  and  C_6
REMARK    7  A    between atoms: C_9  and  C_10
REMARK    8  A    between atoms: C_10  and  N_11
REMARK    9  A    between atoms: N_11  and  C_12
REMARK   10  A    between atoms: C_12  and  C_13
REMARK                            x       y       z     vdW  Elec       q    Type
REMARK                         _______ _______ _______ _____ _____    ______ ____
ROOT
ATOM      1  N   UNL     1      47.848   6.670  14.763  0.00  0.00    +0.000 NA
ATOM      2  H   UNL     1      47.728   5.680  14.978  0.00  0.00    +0.000 HD
ENDROOT
BRANCH   1   3
ATOM      3  C   UNL     1      49.104   7.129  15.408  0.00  0.00    +0.000 C 
BRANCH   3   4
ATOM      4  C   UNL     1      49.394   6.127  16.528  0.00  0.00    +0.000 A 
ATOM      5  C   UNL     1      48.403   5.457  17.227  0.00  0.00    +0.000 A 
ATOM      6  S   UNL     1      49.000   4.380  18.406  0.00  0.00    +0.000 S 
ATOM      7  C   UNL     1      50.612   4.756  18.014  0.00  0.00    +0.000 A 
ATOM      8  N   UNL     1      51.644   4.137  18.652  0.00  0.00    +0.000 NA
ATOM      9  C   UNL     1      52.813   4.494  18.240  0.00  0.00    +0.000 A 
ATOM     10  N   UNL     1      53.045   5.427  17.258  0.00  0.00    +0.000 N 
ATOM     11  C   UNL     1      52.034   6.115  16.616  0.00  0.00    +0.000 A 
ATOM     12  O   UNL     1      52.280   6.986  15.788  0.00  0.00    +0.000 OA
ATOM     13  C   UNL     1      50.697   5.710  17.014  0.00  0.00    +0.000 A 
ATOM     14  H   UNL     1      53.989   5.670  16.998  0.00  0.00    +0.000 HD
ENDBRANCH   3   4
BRANCH   3  15
ATOM     15  C   UNL     1      48.988   8.597  15.950  0.00  0.00    +0.000 C 
BRANCH  15  16
ATOM     16  N   UNL     1      47.628   9.136  16.030  0.00  0.00    +0.000 NA
ATOM     17  H   UNL     1      47.631  10.078  15.636  0.00  0.00    +0.000 HD
ATOM     18  H   UNL     1      47.362   9.241  17.009  0.00  0.00    +0.000 HD
ENDBRANCH  15  16
ENDBRANCH   3  15
ENDBRANCH   1   3
BRANCH   1  19
ATOM     19  C   UNL     1      47.844   6.840  13.310  0.00  0.00    +0.000 C 
BRANCH  19  20
ATOM     20  C   UNL     1      46.810   5.986  12.631  0.00  0.00    +0.000 A 
ATOM     21  C   UNL     1      46.173   4.938  13.300  0.00  0.00    +0.000 A 
ATOM     22  C   UNL     1      45.165   4.219  12.662  0.00  0.00    +0.000 A 
ATOM     23  C   UNL     1      44.809   4.573  11.364  0.00  0.00    +0.000 A 
ATOM     24  N   UNL     1      45.402   5.596  10.698  0.00  0.00    +0.000 NA
ATOM     25  C   UNL     1      46.380   6.271  11.341  0.00  0.00    +0.000 A 
BRANCH  23  26
ATOM     26  C   UNL     1      43.764   3.772  10.610  0.00  0.00    +0.000 C 
BRANCH  26  27
ATOM     27  N   UNL     1      44.108   3.510   9.206  0.00  0.00    +0.000 NA
ATOM     28  H   UNL     1      44.782   4.227   8.922  0.00  0.00    +0.000 HD
BRANCH  27  29
ATOM     29  C   UNL     1      44.785   2.219   9.045  0.00  0.00    +0.000 C 
BRANCH  29  30
ATOM     30  C   UNL     1      45.944   2.410   8.125  0.00  0.00    +0.000 A 
ATOM     31  C   UNL     1      46.410   3.575   7.551  0.00  0.00    +0.000 A 
ATOM     32  N   UNL     1      47.501   3.203   6.816  0.00  0.00    +0.000 N 
ATOM     33  C   UNL     1      47.653   1.854   6.956  0.00  0.00    +0.000 A 
ATOM     34  N   UNL     1      46.730   1.343   7.737  0.00  0.00    +0.000 NA
ATOM     35  H   UNL     1      48.094   3.813   6.272  0.00  0.00    +0.000 HD
ENDBRANCH  29  30
ENDBRANCH  27  29
ENDBRANCH  26  27
ENDBRANCH  23  26
ENDBRANCH  19  20
ENDBRANCH   1  19
TORSDOF 10
ENDMDL
MODEL 6
REMARK VINA RESULT:    -6.634      3.478      8.751
REMARK INTER + INTRA:         -11.390
REMARK INTER:                 -10.252
REMARK INTRA:                  -1.139
REMARK UNBOUND:                -1.072
REMARK  Name = 
REMARK  10 active torsions:
REMARK  status: ('A' for Active; 'I' for Inactive)
REMARK    1  A    between atoms: N_1  and  C_2
REMARK    2  A    between atoms: C_2  and  C_3
REMARK    3  A    between atoms: C_3  and  N_4
REMARK    4  A    between atoms: C_3  and  C_20
REMARK    5  A    between atoms: N_4  and  C_5
REMARK    6  A    between atoms: C_5  and  C_6
REMARK    7  A    between atoms: C_9  and  C_10
REMARK    8  A    between atoms: C_10  and  N_11
REMARK    9  A    between atoms: N_11  and  C_12
REMARK   10  A    between atoms: C_12  and  C_13
REMARK                            x       y       z     vdW  Elec       q    Type
REMARK                         _______ _______ _______ _____ _____    ______ ____
ROOT
ATOM      1  N   UNL     1      46.634   6.535  11.803  0.00  0.00    +0.000 NA
ATOM      2  H   UNL     1      47.072   5.803  12.363  0.00  0.00    +0.000 HD
ENDROOT
BRANCH   1   3
ATOM      3  C   UNL     1      45.183   6.544  12.115  0.00  0.00    +0.000 C 
BRANCH   3   4
ATOM      4  C   UNL     1      44.677   5.132  11.806  0.00  0.00    +0.000 A 
ATOM      5  C   UNL     1      43.973   4.358  12.714  0.00  0.00    +0.000 A 
ATOM      6  S   UNL     1      43.507   2.836  12.105  0.00  0.00    +0.000 S 
ATOM      7  C   UNL     1      44.217   3.160  10.594  0.00  0.00    +0.000 A 
ATOM      8  N   UNL     1      44.143   2.250   9.582  0.00  0.00    +0.000 NA
ATOM      9  C   UNL     1      44.698   2.634   8.482  0.00  0.00    +0.000 A 
ATOM     10  N   UNL     1      45.334   3.838   8.306  0.00  0.00    +0.000 N 
ATOM     11  C   UNL     1      45.477   4.772   9.314  0.00  0.00    +0.000 A 
ATOM     12  O   UNL     1      46.106   5.810   9.138  0.00  0.00    +0.000 OA
ATOM     13  C   UNL     1      44.824   4.404  10.558  0.00  0.00    +0.000 A 
ATOM     14  H   UNL     1      45.762   4.065   7.421  0.00  0.00    +0.000 HD
ENDBRANCH   3   4
BRANCH   3  15
ATOM     15  C   UNL     1      44.409   7.636  11.296  0.00  0.00    +0.000 C 
BRANCH  15  16
ATOM     16  N   UNL     1      42.983   7.373  11.079  0.00  0.00    +0.000 NA
ATOM     17  H   UNL     1      42.855   6.366  10.966  0.00  0.00    +0.000 HD
ATOM     18  H   UNL     1      42.691   7.796  10.199  0.00  0.00    +0.000 HD
ENDBRANCH  15  16
ENDBRANCH   3  15
ENDBRANCH   1   3
BRANCH   1  19
ATOM     19  C   UNL     1      47.298   7.808  12.092  0.00  0.00    +0.000 C 
BRANCH  19  20
ATOM     20  C   UNL     1      47.998   7.804  13.423  0.00  0.00    +0.000 A 
ATOM     21  C   UNL     1      47.924   8.895  14.292  0.00  0.00    +0.000 A 
ATOM     22  C   UNL     1      48.522   8.823  15.548  0.00  0.00    +0.000 A 
ATOM     23  C   UNL     1      49.177   7.650  15.911  0.00  0.00    +0.000 A 
ATOM     24  N   UNL     1      49.250   6.571  15.091  0.00  0.00    +0.000 NA
ATOM     25  C   UNL     1      48.665   6.673  13.878  0.00  0.00    +0.000 A 
BRANCH  23  26
ATOM     26  C   UNL     1      49.898   7.555  17.243  0.00  0.00    +0.000 C 
BRANCH  26  27
ATOM     27  N   UNL     1      50.326   6.196  17.596  0.00  0.00    +0.000 NA
ATOM     28  H   UNL     1      51.225   6.279  18.079  0.00  0.00    +0.000 HD
BRANCH  27  29
ATOM     29  C   UNL     1      49.403   5.565  18.546  0.00  0.00    +0.000 C 
BRANCH  29  30
ATOM     30  C   UNL     1      48.594   4.550  17.809  0.00  0.00    +0.000 A 
ATOM     31  C   UNL     1      47.222   4.414  17.751  0.00  0.00    +0.000 A 
ATOM     32  N   UNL     1      47.001   3.346  16.927  0.00  0.00    +0.000 N 
ATOM     33  C   UNL     1      48.217   2.873  16.528  0.00  0.00    +0.000 A 
ATOM     34  N   UNL     1      49.199   3.574  17.044  0.00  0.00    +0.000 NA
ATOM     35  H   UNL     1      46.102   2.975  16.655  0.00  0.00    +0.000 HD
ENDBRANCH  29  30
ENDBRANCH  27  29
ENDBRANCH  26  27
ENDBRANCH  23  26
ENDBRANCH  19  20
ENDBRANCH   1  19
TORSDOF 10
ENDMDL
MODEL 7
REMARK VINA RESULT:    -6.200      2.244      2.824
REMARK INTER + INTRA:         -10.714
REMARK INTER:                  -9.711
REMARK INTRA:                  -1.004
REMARK UNBOUND:                -1.072
REMARK  Name = 
REMARK  10 active torsions:
REMARK  status: ('A' for Active; 'I' for Inactive)
REMARK    1  A    between atoms: N_1  and  C_2
REMARK    2  A    between atoms: C_2  and  C_3
REMARK    3  A    between atoms: C_3  and  N_4
REMARK    4  A    between atoms: C_3  and  C_20
REMARK    5  A    between atoms: N_4  and  C_5
REMARK    6  A    between atoms: C_5  and  C_6
REMARK    7  A    between atoms: C_9  and  C_10
REMARK    8  A    between atoms: C_10  and  N_11
REMARK    9  A    between atoms: N_11  and  C_12
REMARK   10  A    between atoms: C_12  and  C_13
REMARK                            x       y       z     vdW  Elec       q    Type
REMARK                         _______ _______ _______ _____ _____    ______ ____
ROOT
ATOM      1  N   UNL     1      49.498   6.684  14.631  0.00  0.00    +0.000 NA
ATOM      2  H   UNL     1      50.125   5.959  14.282  0.00  0.00    +0.000 HD
ENDROOT
BRANCH   1   3
ATOM      3  C   UNL     1      50.327   7.734  15.276  0.00  0.00    +0.000 C 
BRANCH   3   4
ATOM      4  C   UNL     1      51.523   7.006  15.894  0.00  0.00    +0.000 A 
ATOM      5  C   UNL     1      52.840   7.364  15.656  0.00  0.00    +0.000 A 
ATOM      6  S   UNL     1      53.976   6.403  16.489  0.00  0.00    +0.000 S 
ATOM      7  C   UNL     1      52.746   5.479  17.215  0.00  0.00    +0.000 A 
ATOM      8  N   UNL     1      53.052   4.483  18.092  0.00  0.00    +0.000 NA
ATOM      9  C   UNL     1      52.025   3.881  18.590  0.00  0.00    +0.000 A 
ATOM     10  N   UNL     1      50.720   4.173  18.279  0.00  0.00    +0.000 N 
ATOM     11  C   UNL     1      50.361   5.141  17.361  0.00  0.00    +0.000 A 
ATOM     12  O   UNL     1      49.187   5.333  17.062  0.00  0.00    +0.000 OA
ATOM     13  C   UNL     1      51.484   5.880  16.810  0.00  0.00    +0.000 A 
ATOM     14  H   UNL     1      49.966   3.648  18.695  0.00  0.00    +0.000 HD
ENDBRANCH   3   4
BRANCH   3  15
ATOM     15  C   UNL     1      49.519   8.549  16.347  0.00  0.00    +0.000 C 
BRANCH  15  16
ATOM     16  N   UNL     1      48.235   7.967  16.749  0.00  0.00    +0.000 NA
ATOM     17  H   UNL     1      48.011   8.301  17.688  0.00  0.00    +0.000 HD
ATOM     18  H   UNL     1      48.331   6.955  16.825  0.00  0.00    +0.000 HD
ENDBRANCH  15  16
ENDBRANCH   3  15
ENDBRANCH   1   3
BRANCH   1  19
ATOM     19  C   UNL     1      48.691   7.184  13.517  0.00  0.00    +0.000 C 
BRANCH  19  20
ATOM     20  C   UNL     1      47.592   6.234  13.129  0.00  0.00    +0.000 A 
ATOM     21  C   UNL     1      47.192   5.194  13.971  0.00  0.00    +0.000 A 
ATOM     22  C   UNL     1      46.119   4.383  13.610  0.00  0.00    +0.000 A 
ATOM     23  C   UNL     1      45.460   4.639  12.411  0.00  0.00    +0.000 A 
ATOM     24  N   UNL     1      45.819   5.652  11.583  0.00  0.00    +0.000 NA
ATOM     25  C   UNL     1      46.867   6.418  11.957  0.00  0.00    +0.000 A 
BRANCH  23  26
ATOM     26  C   UNL     1      44.330   3.738  11.949  0.00  0.00    +0.000 C 
BRANCH  26  27
ATOM     27  N   UNL     1      44.734   2.728  10.963  0.00  0.00    +0.000 NA
ATOM     28  H   UNL     1      44.315   1.839  11.252  0.00  0.00    +0.000 HD
BRANCH  27  29
ATOM     29  C   UNL     1      44.197   3.023   9.631  0.00  0.00    +0.000 C 
BRANCH  29  30
ATOM     30  C   UNL     1      45.317   2.949   8.647  0.00  0.00    +0.000 A 
ATOM     31  C   UNL     1      46.079   1.858   8.284  0.00  0.00    +0.000 A 
ATOM     32  N   UNL     1      46.947   2.323   7.336  0.00  0.00    +0.000 N 
ATOM     33  C   UNL     1      46.697   3.654   7.166  0.00  0.00    +0.000 A 
ATOM     34  N   UNL     1      45.723   4.065   7.943  0.00  0.00    +0.000 NA
ATOM     35  H   UNL     1      47.644   1.783   6.844  0.00  0.00    +0.000 HD
ENDBRANCH  29  30
ENDBRANCH  27  29
ENDBRANCH  26  27
ENDBRANCH  23  26
ENDBRANCH  19  20
ENDBRANCH   1  19
TORSDOF 10
ENDMDL
MODEL 8
REMARK VINA RESULT:    -6.146      3.603      8.463
REMARK INTER + INTRA:         -10.630
REMARK INTER:                  -9.372
REMARK INTRA:                  -1.258
REMARK UNBOUND:                -1.072
REMARK  Name = 
REMARK  10 active torsions:
REMARK  status: ('A' for Active; 'I' for Inactive)
REMARK    1  A    between atoms: N_1  and  C_2
REMARK    2  A    between atoms: C_2  and  C_3
REMARK    3  A    between atoms: C_3  and  N_4
REMARK    4  A    between atoms: C_3  and  C_20
REMARK    5  A    between atoms: N_4  and  C_5
REMARK    6  A    between atoms: C_5  and  C_6
REMARK    7  A    between atoms: C_9  and  C_10
REMARK    8  A    between atoms: C_10  and  N_11
REMARK    9  A    between atoms: N_11  and  C_12
REMARK   10  A    between atoms: C_12  and  C_13
REMARK                            x       y       z     vdW  Elec       q    Type
REMARK                         _______ _______ _______ _____ _____    ______ ____
ROOT
ATOM      1  N   UNL     1      47.515   7.403  11.555  0.00  0.00    +0.000 NA
ATOM      2  H   UNL     1      48.239   6.683  11.570  0.00  0.00    +0.000 HD
ENDROOT
BRANCH   1   3
ATOM      3  C   UNL     1      46.306   6.850  12.216  0.00  0.00    +0.000 C 
BRANCH   3   4
ATOM      4  C   UNL     1      45.750   5.792  11.260  0.00  0.00    +0.000 A 
ATOM      5  C   UNL     1      46.035   5.764   9.904  0.00  0.00    +0.000 A 
ATOM      6  S   UNL     1      45.307   4.465   9.075  0.00  0.00    +0.000 S 
ATOM      7  C   UNL     1      44.593   3.879  10.503  0.00  0.00    +0.000 A 
ATOM      8  N   UNL     1      43.843   2.741  10.489  0.00  0.00    +0.000 NA
ATOM      9  C   UNL     1      43.385   2.394  11.644  0.00  0.00    +0.000 A 
ATOM     10  N   UNL     1      43.595   3.088  12.810  0.00  0.00    +0.000 N 
ATOM     11  C   UNL     1      44.308   4.271  12.867  0.00  0.00    +0.000 A 
ATOM     12  O   UNL     1      44.423   4.896  13.916  0.00  0.00    +0.000 OA
ATOM     13  C   UNL     1      44.885   4.675  11.597  0.00  0.00    +0.000 A 
ATOM     14  H   UNL     1      43.191   2.766  13.676  0.00  0.00    +0.000 HD
ENDBRANCH   3   4
BRANCH   3  15
ATOM     15  C   UNL     1      45.248   7.963  12.538  0.00  0.00    +0.000 C 
BRANCH  15  16
ATOM     16  N   UNL     1      44.269   8.230  11.481  0.00  0.00    +0.000 NA
ATOM     17  H   UNL     1      44.138   7.374  10.939  0.00  0.00    +0.000 HD
ATOM     18  H   UNL     1      44.649   8.919  10.833  0.00  0.00    +0.000 HD
ENDBRANCH  15  16
ENDBRANCH   3  15
ENDBRANCH   1   3
BRANCH   1  19
ATOM     19  C   UNL     1      48.035   8.606  12.208  0.00  0.00    +0.000 C 
BRANCH  19  20
ATOM     20  C   UNL     1      48.613   8.321  13.566  0.00  0.00    +0.000 A 
ATOM     21  C   UNL     1      48.128   8.949  14.715  0.00  0.00    +0.000 A 
ATOM     22  C   UNL     1      48.637   8.601  15.964  0.00  0.00    +0.000 A 
ATOM     23  C   UNL     1      49.621   7.620  16.035  0.00  0.00    +0.000 A 
ATOM     24  N   UNL     1      50.099   6.984  14.936  0.00  0.00    +0.000 NA
ATOM     25  C   UNL     1      49.589   7.347  13.738  0.00  0.00    +0.000 A 
BRANCH  23  26
ATOM     26  C   UNL     1      50.249   7.260  17.369  0.00  0.00    +0.000 C 
BRANCH  26  27
ATOM     27  N   UNL     1      50.649   5.851  17.481  0.00  0.00    +0.000 NA
ATOM     28  H   UNL     1      51.589   5.835  17.887  0.00  0.00    +0.000 HD
BRANCH  27  29
ATOM     29  C   UNL     1      49.786   5.114  18.410  0.00  0.00    +0.000 C 
BRANCH  29  30
ATOM     30  C   UNL     1      48.824   4.300  17.611  0.00  0.00    +0.000 A 
ATOM     31  C   UNL     1      47.474   4.503  17.412  0.00  0.00    +0.000 A 
ATOM     32  N   UNL     1      47.074   3.489  16.588  0.00  0.00    +0.000 N 
ATOM     33  C   UNL     1      48.166   2.714  16.327  0.00  0.00    +0.000 A 
ATOM     34  N   UNL     1      49.238   3.172  16.930  0.00  0.00    +0.000 NA
ATOM     35  H   UNL     1      46.142   3.340  16.230  0.00  0.00    +0.000 HD
ENDBRANCH  29  30
ENDBRANCH  27  29
ENDBRANCH  26  27
ENDBRANCH  23  26
ENDBRANCH  19  20
ENDBRANCH   1  19
TORSDOF 10
ENDMDL
MODEL 9
REMARK VINA RESULT:    -6.128      2.987      3.947
REMARK INTER + INTRA:         -10.603
REMARK INTER:                  -9.468
REMARK INTRA:                  -1.134
REMARK UNBOUND:                -1.072
REMARK  Name = 
REMARK  10 active torsions:
REMARK  status: ('A' for Active; 'I' for Inactive)
REMARK    1  A    between atoms: N_1  and  C_2
REMARK    2  A    between atoms: C_2  and  C_3
REMARK    3  A    between atoms: C_3  and  N_4
REMARK    4  A    between atoms: C_3  and  C_20
REMARK    5  A    between atoms: N_4  and  C_5
REMARK    6  A    between atoms: C_5  and  C_6
REMARK    7  A    between atoms: C_9  and  C_10
REMARK    8  A    between atoms: C_10  and  N_11
REMARK    9  A    between atoms: N_11  and  C_12
REMARK   10  A    between atoms: C_12  and  C_13
REMARK                            x       y       z     vdW  Elec       q    Type
REMARK                         _______ _______ _______ _____ _____    ______ ____
ROOT
ATOM      1  N   UNL     1      49.377   6.772  13.096  0.00  0.00    +0.000 NA
ATOM      2  H   UNL     1      50.035   6.452  12.384  0.00  0.00    +0.000 HD
ENDROOT
BRANCH   1   3
ATOM      3  C   UNL     1      50.113   7.664  14.028  0.00  0.00    +0.000 C 
BRANCH   3   4
ATOM      4  C   UNL     1      49.998   7.016  15.410  0.00  0.00    +0.000 A 
ATOM      5  C   UNL     1      48.789   6.678  15.996  0.00  0.00    +0.000 A 
ATOM      6  S   UNL     1      48.947   5.947  17.528  0.00  0.00    +0.000 S 
ATOM      7  C   UNL     1      50.644   6.041  17.459  0.00  0.00    +0.000 A 
ATOM      8  N   UNL     1      51.409   5.545  18.473  0.00  0.00    +0.000 NA
ATOM      9  C   UNL     1      52.679   5.655  18.281  0.00  0.00    +0.000 A 
ATOM     10  N   UNL     1      53.257   6.230  17.175  0.00  0.00    +0.000 N 
ATOM     11  C   UNL     1      52.525   6.788  16.145  0.00  0.00    +0.000 A 
ATOM     12  O   UNL     1      53.075   7.348  15.202  0.00  0.00    +0.000 OA
ATOM     13  C   UNL     1      51.087   6.643  16.295  0.00  0.00    +0.000 A 
ATOM     14  H   UNL     1      54.261   6.297  17.100  0.00  0.00    +0.000 HD
ENDBRANCH   3   4
BRANCH   3  15
ATOM     15  C   UNL     1      49.544   9.126  14.017  0.00  0.00    +0.000 C 
BRANCH  15  16
ATOM     16  N   UNL     1      50.267  10.093  14.848  0.00  0.00    +0.000 NA
ATOM     17  H   UNL     1      50.508   9.641  15.732  0.00  0.00    +0.000 HD
ATOM     18  H   UNL     1      49.647  10.866  15.087  0.00  0.00    +0.000 HD
ENDBRANCH  15  16
ENDBRANCH   3  15
ENDBRANCH   1   3
BRANCH   1  19
ATOM     19  C   UNL     1      48.248   7.427  12.433  0.00  0.00    +0.000 C 
BRANCH  19  20
ATOM     20  C   UNL     1      46.983   6.619  12.517  0.00  0.00    +0.000 A 
ATOM     21  C   UNL     1      46.880   5.503  13.349  0.00  0.00    +0.000 A 
ATOM     22  C   UNL     1      45.667   4.827  13.457  0.00  0.00    +0.000 A 
ATOM     23  C   UNL     1      44.575   5.292  12.731  0.00  0.00    +0.000 A 
ATOM     24  N   UNL     1      44.645   6.383  11.926  0.00  0.00    +0.000 NA
ATOM     25  C   UNL     1      45.836   7.015  11.838  0.00  0.00    +0.000 A 
BRANCH  23  26
ATOM     26  C   UNL     1      43.255   4.546  12.768  0.00  0.00    +0.000 C 
BRANCH  26  27
ATOM     27  N   UNL     1      42.841   3.996  11.471  0.00  0.00    +0.000 NA
ATOM     28  H   UNL     1      43.080   4.692  10.758  0.00  0.00    +0.000 HD
BRANCH  27  29
ATOM     29  C   UNL     1      43.591   2.783  11.130  0.00  0.00    +0.000 C 
BRANCH  29  30
ATOM     30  C   UNL     1      44.340   3.034   9.864  0.00  0.00    +0.000 A 
ATOM     31  C   UNL     1      44.386   4.182   9.100  0.00  0.00    +0.000 A 
ATOM     32  N   UNL     1      45.229   3.892   8.064  0.00  0.00    +0.000 N 
ATOM     33  C   UNL     1      45.651   2.604   8.223  0.00  0.00    +0.000 A 
ATOM     34  N   UNL     1      45.131   2.056   9.297  0.00  0.00    +0.000 NA
ATOM     35  H   UNL     1      45.500   4.517   7.318  0.00  0.00    +0.000 HD
ENDBRANCH  29  30
ENDBRANCH  27  29
ENDBRANCH  26  27
ENDBRANCH  23  26
ENDBRANCH  19  20
ENDBRANCH   1  19
TORSDOF 10
ENDMDL
