MODEL 1
REMARK VINA RESULT:    -7.812      0.000      0.000
REMARK INTER + INTRA:         -10.847
REMARK INTER:                 -10.323
REMARK INTRA:                  -0.524
REMARK UNBOUND:                -0.524
REMARK  Name = 
REMARK  6 active torsions:
REMARK  status: ('A' for Active; 'I' for Inactive)
REMARK    1  A    between atoms: N_1  and  C_2
REMARK    2  A    between atoms: C_2  and  C_3
REMARK    3  A    between atoms: C_6  and  O_7
REMARK    4  A    between atoms: O_7  and  C_8
REMARK    5  A    between atoms: C_8  and  C_9
REMARK    6  A    between atoms: C_12  and  C_13
REMARK                            x       y       z     vdW  Elec       q    Type
REMARK                         _______ _______ _______ _____ _____    ______ ____
ROOT
ATOM      1  O   UNL     1      44.566   5.831  10.851  0.00  0.00    +0.000 OA
ENDROOT
BRANCH   1   5
ATOM      2  C   UNL     1      46.683   4.766  14.224  0.00  0.00    +0.000 A 
ATOM      3  C   UNL     1      47.245   5.743  13.404  0.00  0.00    +0.000 A 
ATOM      4  C   UNL     1      46.567   6.145  12.251  0.00  0.00    +0.000 A 
ATOM      5  C   UNL     1      45.343   5.563  11.939  0.00  0.00    +0.000 A 
ATOM      6  C   UNL     1      44.852   4.609  12.823  0.00  0.00    +0.000 A 
ATOM      7  N   UNL     1      45.485   4.197  13.949  0.00  0.00    +0.000 NA
BRANCH   2   8
ATOM      8  C   UNL     1      47.416   4.285  15.458  0.00  0.00    +0.000 C 
BRANCH   8   9
ATOM      9  N   UNL     1      47.853   2.886  15.360  0.00  0.00    +0.000 NA
ATOM     10  H   UNL     1      47.488   2.379  16.165  0.00  0.00    +0.000 HD
ATOM     11  H   UNL     1      48.869   2.874  15.461  0.00  0.00    +0.000 HD
ENDBRANCH   8   9
ENDBRANCH   2   8
ENDBRANCH   1   5
BRANCH   1  12
ATOM     12  C   UNL     1      43.735   4.777  10.368  0.00  0.00    +0.000 C 
BRANCH  12  13
ATOM     13  C   UNL     1      44.570   3.885   9.490  0.00  0.00    +0.000 A 
ATOM     14  C   UNL     1      45.372   4.407   8.472  0.00  0.00    +0.000 A 
ATOM     15  C   UNL     1      46.153   3.552   7.695  0.00  0.00    +0.000 A 
ATOM     16  C   UNL     1      46.118   2.179   7.946  0.00  0.00    +0.000 A 
ATOM     17  N   UNL     1      45.319   1.654   8.920  0.00  0.00    +0.000 NA
ATOM     18  C   UNL     1      44.577   2.507   9.661  0.00  0.00    +0.000 A 
BRANCH  16  19
ATOM     19  C   UNL     1      47.001   1.238   7.135  0.00  0.00    +0.000 C 
ATOM     20  F   UNL     1      48.337   1.483   7.290  0.00  0.00    +0.000 F 
ATOM     21  F   UNL     1      46.835  -0.074   7.470  0.00  0.00    +0.000 F 
ATOM     22  F   UNL     1      46.776   1.316   5.791  0.00  0.00    +0.000 F 
ENDBRANCH  16  19
ENDBRANCH  12  13
ENDBRANCH   1  12
TORSDOF 6
ENDMDL
MODEL 2
REMARK VINA RESULT:    -7.499      1.691      2.210
REMARK INTER + INTRA:         -10.434
REMARK INTER:                  -9.832
REMARK INTRA:                  -0.602
REMARK UNBOUND:                -0.524
REMARK  Name = 
REMARK  6 active torsions:
REMARK  status: ('A' for Active; 'I' for Inactive)
REMARK    1  A    between atoms: N_1  and  C_2
REMARK    2  A    between atoms: C_2  and  C_3
REMARK    3  A    between atoms: C_6  and  O_7
REMARK    4  A    between atoms: O_7  and  C_8
REMARK    5  A    between atoms: C_8  and  C_9
REMARK    6  A    between atoms: C_12  and  C_13
REMARK                            x       y       z     vdW  Elec       q    Type
REMARK                         _______ _______ _______ _____ _____    ______ ____
ROOT
ATOM      1  O   UNL     1      44.371   3.838  12.017  0.00  0.00    +0.000 OA
ENDROOT
BRANCH   1   5
ATOM      2  C   UNL     1      47.401   6.098  13.661  0.00  0.00    +0.000 A 
ATOM      3  C   UNL     1      46.433   6.775  12.921  0.00  0.00    +0.000 A 
ATOM      4  C   UNL     1      45.381   6.058  12.346  0.00  0.00    +0.000 A 
ATOM      5  C   UNL     1      45.318   4.680  12.520  0.00  0.00    +0.000 A 
ATOM      6  C   UNL     1      46.317   4.091  13.287  0.00  0.00    +0.000 A 
ATOM      7  N   UNL     1      47.350   4.759  13.857  0.00  0.00    +0.000 NA
BRANCH   2   8
ATOM      8  C   UNL     1      48.572   6.846  14.261  0.00  0.00    +0.000 C 
BRANCH   8   9
ATOM      9  N   UNL     1      49.718   6.951  13.348  0.00  0.00    +0.000 NA
ATOM     10  H   UNL     1      50.147   7.865  13.477  0.00  0.00    +0.000 HD
ATOM     11  H   UNL     1      49.352   6.947  12.395  0.00  0.00    +0.000 HD
ENDBRANCH   8   9
ENDBRANCH   2   8
ENDBRANCH   1   5
BRANCH   1  12
ATOM     12  C   UNL     1      43.793   4.184  10.759  0.00  0.00    +0.000 C 
BRANCH  12  13
ATOM     13  C   UNL     1      44.698   3.674   9.671  0.00  0.00    +0.000 A 
ATOM     14  C   UNL     1      44.925   2.308   9.490  0.00  0.00    +0.000 A 
ATOM     15  C   UNL     1      45.750   1.872   8.453  0.00  0.00    +0.000 A 
ATOM     16  C   UNL     1      46.341   2.813   7.609  0.00  0.00    +0.000 A 
ATOM     17  N   UNL     1      46.148   4.152   7.791  0.00  0.00    +0.000 NA
ATOM     18  C   UNL     1      45.339   4.546   8.801  0.00  0.00    +0.000 A 
BRANCH  16  19
ATOM     19  C   UNL     1      47.207   2.348   6.444  0.00  0.00    +0.000 C 
ATOM     20  F   UNL     1      46.883   2.946   5.258  0.00  0.00    +0.000 F 
ATOM     21  F   UNL     1      48.534   2.608   6.627  0.00  0.00    +0.000 F 
ATOM     22  F   UNL     1      47.113   1.007   6.208  0.00  0.00    +0.000 F 
ENDBRANCH  16  19
ENDBRANCH  12  13
ENDBRANCH   1  12
TORSDOF 6
ENDMDL
MODEL 3
REMARK VINA RESULT:    -7.345      3.768      6.627
REMARK INTER + INTRA:         -10.231
REMARK INTER:                  -9.662
REMARK INTRA:                  -0.568
REMARK UNBOUND:                -0.524
REMARK  Name = 
REMARK  6 active torsions:
REMARK  status: ('A' for Active; 'I' for Inactive)
REMARK    1  A    between atoms: N_1  and  C_2
REMARK    2  A    between atoms: C_2  and  C_3
REMARK    3  A    between atoms: C_6  and  O_7
REMARK    4  A    between atoms: O_7  and  C_8
REMARK    5  A    between atoms: C_8  and  C_9
REMARK    6  A    between atoms: C_12  and  C_13
REMARK                            x       y       z     vdW  Elec       q    Type
REMARK                         _______ _______ _______ _____ _____    ______ ____
ROOT
ATOM      1  O   UNL     1      44.150   4.612  10.211  0.00  0.00    +0.000 OA
ENDROOT
BRANCH   1   5
ATOM      2  C   UNL     1      46.409   2.165   7.782  0.00  0.00    +0.000 A 
ATOM      3  C   UNL     1      46.439   3.533   7.511  0.00  0.00    +0.000 A 
ATOM      4  C   UNL     1      45.697   4.407   8.308  0.00  0.00    +0.000 A 
ATOM      5  C   UNL     1      44.937   3.900   9.356  0.00  0.00    +0.000 A 
ATOM      6  C   UNL     1      44.978   2.526   9.562  0.00  0.00    +0.000 A 
ATOM      7  N   UNL     1      45.688   1.651   8.807  0.00  0.00    +0.000 NA
BRANCH   2   8
ATOM      8  C   UNL     1      47.174   1.193   6.910  0.00  0.00    +0.000 C 
BRANCH   8   9
ATOM      9  N   UNL     1      48.364   1.789   6.289  0.00  0.00    +0.000 NA
ATOM     10  H   UNL     1      49.101   1.086   6.271  0.00  0.00    +0.000 HD
ATOM     11  H   UNL     1      48.699   2.526   6.912  0.00  0.00    +0.000 HD
ENDBRANCH   8   9
ENDBRANCH   2   8
ENDBRANCH   1   5
BRANCH   1  12
ATOM     12  C   UNL     1      44.712   5.791  10.786  0.00  0.00    +0.000 C 
BRANCH  12  13
ATOM     13  C   UNL     1      45.456   5.397  12.033  0.00  0.00    +0.000 A 
ATOM     14  C   UNL     1      46.669   5.996  12.380  0.00  0.00    +0.000 A 
ATOM     15  C   UNL     1      47.316   5.623  13.558  0.00  0.00    +0.000 A 
ATOM     16  C   UNL     1      46.740   4.650  14.375  0.00  0.00    +0.000 A 
ATOM     17  N   UNL     1      45.568   4.038  14.035  0.00  0.00    +0.000 NA
ATOM     18  C   UNL     1      44.960   4.423  12.890  0.00  0.00    +0.000 A 
BRANCH  16  19
ATOM     19  C   UNL     1      47.413   4.267  15.687  0.00  0.00    +0.000 C 
ATOM     20  F   UNL     1      48.479   5.064  16.000  0.00  0.00    +0.000 F 
ATOM     21  F   UNL     1      46.577   4.349  16.762  0.00  0.00    +0.000 F 
ATOM     22  F   UNL     1      47.905   2.994  15.687  0.00  0.00    +0.000 F 
ENDBRANCH  16  19
ENDBRANCH  12  13
ENDBRANCH   1  12
TORSDOF 6
ENDMDL
MODEL 4
REMARK VINA RESULT:    -7.248      3.750      6.570
REMARK INTER + INTRA:         -10.102
REMARK INTER:                  -9.531
REMARK INTRA:                  -0.571
REMARK UNBOUND:                -0.524
REMARK  Name = 
REMARK  6 active torsions:
REMARK  status: ('A' for Active; 'I' for Inactive)
REMARK    1  A    between atoms: N_1  and  C_2
REMARK    2  A    between atoms: C_2  and  C_3
REMARK    3  A    between atoms: C_6  and  O_7
REMARK    4  A    between atoms: O_7  and  C_8
REMARK    5  A    between atoms: C_8  and  C_9
REMARK    6  A    between atoms: C_12  and  C_13
REMARK                            x       y       z     vdW  Elec       q    Type
REMARK                         _______ _______ _______ _____ _____    ______ ____
ROOT
ATOM      1  O   UNL     1      43.672   4.372   9.865  0.00  0.00    +0.000 OA
ENDROOT
BRANCH   1   5
ATOM      2  C   UNL     1      46.418   2.048   7.852  0.00  0.00    +0.000 A 
ATOM      3  C   UNL     1      46.432   3.417   7.591  0.00  0.00    +0.000 A 
ATOM      4  C   UNL     1      45.526   4.252   8.250  0.00  0.00    +0.000 A 
ATOM      5  C   UNL     1      44.624   3.702   9.155  0.00  0.00    +0.000 A 
ATOM      6  C   UNL     1      44.692   2.330   9.364  0.00  0.00    +0.000 A 
ATOM      7  N   UNL     1      45.559   1.494   8.740  0.00  0.00    +0.000 NA
BRANCH   2   8
ATOM      8  C   UNL     1      47.362   1.118   7.122  0.00  0.00    +0.000 C 
BRANCH   8   9
ATOM      9  N   UNL     1      48.358   1.829   6.309  0.00  0.00    +0.000 NA
ATOM     10  H   UNL     1      47.890   2.592   5.825  0.00  0.00    +0.000 HD
ATOM     11  H   UNL     1      48.673   1.188   5.579  0.00  0.00    +0.000 HD
ENDBRANCH   8   9
ENDBRANCH   2   8
ENDBRANCH   1   5
BRANCH   1  12
ATOM     12  C   UNL     1      43.518   4.022  11.240  0.00  0.00    +0.000 C 
BRANCH  12  13
ATOM     13  C   UNL     1      44.650   4.644  12.012  0.00  0.00    +0.000 A 
ATOM     14  C   UNL     1      45.492   3.875  12.818  0.00  0.00    +0.000 A 
ATOM     15  C   UNL     1      46.548   4.483  13.499  0.00  0.00    +0.000 A 
ATOM     16  C   UNL     1      46.744   5.859  13.365  0.00  0.00    +0.000 A 
ATOM     17  N   UNL     1      45.912   6.625  12.601  0.00  0.00    +0.000 NA
ATOM     18  C   UNL     1      44.901   6.008  11.949  0.00  0.00    +0.000 A 
BRANCH  16  19
ATOM     19  C   UNL     1      47.919   6.528  14.067  0.00  0.00    +0.000 C 
ATOM     20  F   UNL     1      49.071   6.506  13.330  0.00  0.00    +0.000 F 
ATOM     21  F   UNL     1      47.697   7.845  14.346  0.00  0.00    +0.000 F 
ATOM     22  F   UNL     1      48.242   5.938  15.254  0.00  0.00    +0.000 F 
ENDBRANCH  16  19
ENDBRANCH  12  13
ENDBRANCH   1  12
TORSDOF 6
ENDMDL
MODEL 5
REMARK VINA RESULT:    -7.019      2.141      2.826
REMARK INTER + INTRA:          -9.799
REMARK INTER:                  -9.207
REMARK INTRA:                  -0.592
REMARK UNBOUND:                -0.524
REMARK  Name = 
REMARK  6 active torsions:
REMARK  status: ('A' for Active; 'I' for Inactive)
REMARK    1  A    between atoms: N_1  and  C_2
REMARK    2  A    between atoms: C_2  and  C_3
REMARK    3  A    between atoms: C_6  and  O_7
REMARK    4  A    between atoms: O_7  and  C_8
REMARK    5  A    between atoms: C_8  and  C_9
REMARK    6  A    between atoms: C_12  and  C_13
REMARK                            x       y       z     vdW  Elec       q    Type
REMARK                         _______ _______ _______ _____ _____    ______ ____
ROOT
ATOM      1  O   UNL     1      44.139   4.391  11.916  0.00  0.00    +0.000 OA
ENDROOT
BRANCH   1   5
ATOM      2  C   UNL     1      46.511   7.703  12.547  0.00  0.00    +0.000 A 
ATOM      3  C   UNL     1      47.066   6.459  12.840  0.00  0.00    +0.000 A 
ATOM      4  C   UNL     1      46.308   5.303  12.639  0.00  0.00    +0.000 A 
ATOM      5  C   UNL     1      45.010   5.413  12.152  0.00  0.00    +0.000 A 
ATOM      6  C   UNL     1      44.544   6.692  11.873  0.00  0.00    +0.000 A 
ATOM      7  N   UNL     1      45.254   7.833  12.057  0.00  0.00    +0.000 NA
BRANCH   2   8
ATOM      8  C   UNL     1      47.297   8.973  12.792  0.00  0.00    +0.000 C 
BRANCH   8   9
ATOM      9  N   UNL     1      46.483  10.189  12.663  0.00  0.00    +0.000 NA
ATOM     10  H   UNL     1      46.359  10.387  11.672  0.00  0.00    +0.000 HD
ATOM     11  H   UNL     1      47.031  10.966  13.036  0.00  0.00    +0.000 HD
ENDBRANCH   8   9
ENDBRANCH   2   8
ENDBRANCH   1   5
BRANCH   1  12
ATOM     12  C   UNL     1      43.490   4.368  10.646  0.00  0.00    +0.000 C 
BRANCH  12  13
ATOM     13  C   UNL     1      44.435   3.758   9.646  0.00  0.00    +0.000 A 
ATOM     14  C   UNL     1      44.721   2.391   9.652  0.00  0.00    +0.000 A 
ATOM     15  C   UNL     1      45.581   1.857   8.693  0.00  0.00    +0.000 A 
ATOM     16  C   UNL     1      46.149   2.702   7.738  0.00  0.00    +0.000 A 
ATOM     17  N   UNL     1      45.897   4.044   7.737  0.00  0.00    +0.000 NA
ATOM     18  C   UNL     1      45.056   4.533   8.676  0.00  0.00    +0.000 A 
BRANCH  16  19
ATOM     19  C   UNL     1      47.054   2.124   6.658  0.00  0.00    +0.000 C 
ATOM     20  F   UNL     1      48.385   2.272   6.933  0.00  0.00    +0.000 F 
ATOM     21  F   UNL     1      46.873   0.785   6.467  0.00  0.00    +0.000 F 
ATOM     22  F   UNL     1      46.873   2.708   5.437  0.00  0.00    +0.000 F 
ENDBRANCH  16  19
ENDBRANCH  12  13
ENDBRANCH   1  12
TORSDOF 6
ENDMDL
MODEL 6
REMARK VINA RESULT:    -6.978      3.768      6.634
REMARK INTER + INTRA:          -9.745
REMARK INTER:                  -9.155
REMARK INTRA:                  -0.590
REMARK UNBOUND:                -0.524
REMARK  Name = 
REMARK  6 active torsions:
REMARK  status: ('A' for Active; 'I' for Inactive)
REMARK    1  A    between atoms: N_1  and  C_2
REMARK    2  A    between atoms: C_2  and  C_3
REMARK    3  A    between atoms: C_6  and  O_7
REMARK    4  A    between atoms: O_7  and  C_8
REMARK    5  A    between atoms: C_8  and  C_9
REMARK    6  A    between atoms: C_12  and  C_13
REMARK                            x       y       z     vdW  Elec       q    Type
REMARK                         _______ _______ _______ _____ _____    ______ ____
ROOT
ATOM      1  O   UNL     1      43.816   4.314   9.772  0.00  0.00    +0.000 OA
ENDROOT
BRANCH   1   5
ATOM      2  C   UNL     1      46.736   2.366   7.610  0.00  0.00    +0.000 A 
ATOM      3  C   UNL     1      45.902   1.580   8.404  0.00  0.00    +0.000 A 
ATOM      4  C   UNL     1      44.892   2.189   9.153  0.00  0.00    +0.000 A 
ATOM      5  C   UNL     1      44.736   3.569   9.096  0.00  0.00    +0.000 A 
ATOM      6  C   UNL     1      45.603   4.271   8.266  0.00  0.00    +0.000 A 
ATOM      7  N   UNL     1      46.592   3.710   7.528  0.00  0.00    +0.000 NA
BRANCH   2   8
ATOM      8  C   UNL     1      47.862   1.735   6.820  0.00  0.00    +0.000 C 
BRANCH   8   9
ATOM      9  N   UNL     1      48.328   2.577   5.709  0.00  0.00    +0.000 NA
ATOM     10  H   UNL     1      48.149   3.550   5.949  0.00  0.00    +0.000 HD
ATOM     11  H   UNL     1      47.735   2.376   4.902  0.00  0.00    +0.000 HD
ENDBRANCH   8   9
ENDBRANCH   2   8
ENDBRANCH   1   5
BRANCH   1  12
ATOM     12  C   UNL     1      43.684   4.072  11.172  0.00  0.00    +0.000 C 
BRANCH  12  13
ATOM     13  C   UNL     1      44.820   4.762  11.877  0.00  0.00    +0.000 A 
ATOM     14  C   UNL     1      45.207   6.061  11.541  0.00  0.00    +0.000 A 
ATOM     15  C   UNL     1      46.248   6.678  12.235  0.00  0.00    +0.000 A 
ATOM     16  C   UNL     1      46.894   5.981  13.258  0.00  0.00    +0.000 A 
ATOM     17  N   UNL     1      46.543   4.701  13.578  0.00  0.00    +0.000 NA
ATOM     18  C   UNL     1      45.526   4.131  12.893  0.00  0.00    +0.000 A 
BRANCH  16  19
ATOM     19  C   UNL     1      48.002   6.659  14.054  0.00  0.00    +0.000 C 
ATOM     20  F   UNL     1      47.741   7.972  14.332  0.00  0.00    +0.000 F 
ATOM     21  F   UNL     1      48.226   6.073  15.266  0.00  0.00    +0.000 F 
ATOM     22  F   UNL     1      49.204   6.661  13.407  0.00  0.00    +0.000 F 
ENDBRANCH  16  19
ENDBRANCH  12  13
ENDBRANCH   1  12
TORSDOF 6
ENDMDL
MODEL 7
REMARK VINA RESULT:    -6.030      2.975      4.323
REMARK INTER + INTRA:          -8.492
REMARK INTER:                  -8.133
REMARK INTRA:                  -0.359
REMARK UNBOUND:                -0.524
REMARK  Name = 
REMARK  6 active torsions:
REMARK  status: ('A' for Active; 'I' for Inactive)
REMARK    1  A    between atoms: N_1  and  C_2
REMARK    2  A    between atoms: C_2  and  C_3
REMARK    3  A    between atoms: C_6  and  O_7
REMARK    4  A    between atoms: O_7  and  C_8
REMARK    5  A    between atoms: C_8  and  C_9
REMARK    6  A    between atoms: C_12  and  C_13
REMARK                            x       y       z     vdW  Elec       q    Type
REMARK                         _______ _______ _______ _____ _____    ______ ____
ROOT
ATOM      1  O   UNL     1      47.043   3.789  14.601  0.00  0.00    +0.000 OA
ENDROOT
BRANCH   1   5
ATOM      2  C   UNL     1      48.614   4.371  18.367  0.00  0.00    +0.000 A 
ATOM      3  C   UNL     1      48.263   3.067  18.019  0.00  0.00    +0.000 A 
ATOM      4  C   UNL     1      47.731   2.813  16.753  0.00  0.00    +0.000 A 
ATOM      5  C   UNL     1      47.558   3.865  15.860  0.00  0.00    +0.000 A 
ATOM      6  C   UNL     1      47.950   5.129  16.286  0.00  0.00    +0.000 A 
ATOM      7  N   UNL     1      48.469   5.408  17.508  0.00  0.00    +0.000 NA
BRANCH   2   8
ATOM      8  C   UNL     1      49.155   4.678  19.746  0.00  0.00    +0.000 C 
BRANCH   8   9
ATOM      9  N   UNL     1      48.424   3.991  20.819  0.00  0.00    +0.000 NA
ATOM     10  H   UNL     1      48.550   2.987  20.699  0.00  0.00    +0.000 HD
ATOM     11  H   UNL     1      47.429   4.165  20.673  0.00  0.00    +0.000 HD
ENDBRANCH   8   9
ENDBRANCH   2   8
ENDBRANCH   1   5
BRANCH   1  12
ATOM     12  C   UNL     1      46.220   4.870  14.167  0.00  0.00    +0.000 C 
BRANCH  12  13
ATOM     13  C   UNL     1      45.826   4.617  12.737  0.00  0.00    +0.000 A 
ATOM     14  C   UNL     1      45.950   5.607  11.759  0.00  0.00    +0.000 A 
ATOM     15  C   UNL     1      45.600   5.326  10.438  0.00  0.00    +0.000 A 
ATOM     16  C   UNL     1      45.126   4.055  10.113  0.00  0.00    +0.000 A 
ATOM     17  N   UNL     1      44.977   3.086  11.063  0.00  0.00    +0.000 NA
ATOM     18  C   UNL     1      45.328   3.385  12.334  0.00  0.00    +0.000 A 
BRANCH  16  19
ATOM     19  C   UNL     1      44.784   3.721   8.666  0.00  0.00    +0.000 C 
ATOM     20  F   UNL     1      45.808   3.974   7.797  0.00  0.00    +0.000 F 
ATOM     21  F   UNL     1      44.471   2.406   8.479  0.00  0.00    +0.000 F 
ATOM     22  F   UNL     1      43.723   4.434   8.187  0.00  0.00    +0.000 F 
ENDBRANCH  16  19
ENDBRANCH  12  13
ENDBRANCH   1  12
TORSDOF 6
ENDMDL
MODEL 8
REMARK VINA RESULT:    -5.898      2.257      3.298
REMARK INTER + INTRA:          -8.318
REMARK INTER:                  -7.850
REMARK INTRA:                  -0.468
REMARK UNBOUND:                -0.524
REMARK  Name = 
REMARK  6 active torsions:
REMARK  status: ('A' for Active; 'I' for Inactive)
REMARK    1  A    between atoms: N_1  and  C_2
REMARK    2  A    between atoms: C_2  and  C_3
REMARK    3  A    between atoms: C_6  and  O_7
REMARK    4  A    between atoms: O_7  and  C_8
REMARK    5  A    between atoms: C_8  and  C_9
REMARK    6  A    between atoms: C_12  and  C_13
REMARK                            x       y       z     vdW  Elec       q    Type
REMARK                         _______ _______ _______ _____ _____    ______ ____
ROOT
ATOM      1  O   UNL     1      47.050   6.181  13.398  0.00  0.00    +0.000 OA
ENDROOT
BRANCH   1   5
ATOM      2  C   UNL     1      48.721   4.785  16.899  0.00  0.00    +0.000 A 
ATOM      3  C   UNL     1      47.696   4.025  16.337  0.00  0.00    +0.000 A 
ATOM      4  C   UNL     1      47.099   4.450  15.148  0.00  0.00    +0.000 A 
ATOM      5  C   UNL     1      47.534   5.625  14.545  0.00  0.00    +0.000 A 
ATOM      6  C   UNL     1      48.572   6.310  15.167  0.00  0.00    +0.000 A 
ATOM      7  N   UNL     1      49.172   5.924  16.320  0.00  0.00    +0.000 NA
BRANCH   2   8
ATOM      8  C   UNL     1      49.358   4.368  18.206  0.00  0.00    +0.000 C 
BRANCH   8   9
ATOM      9  N   UNL     1      49.166   2.944  18.513  0.00  0.00    +0.000 NA
ATOM     10  H   UNL     1      50.003   2.603  18.982  0.00  0.00    +0.000 HD
ATOM     11  H   UNL     1      49.122   2.443  17.624  0.00  0.00    +0.000 HD
ENDBRANCH   8   9
ENDBRANCH   2   8
ENDBRANCH   1   5
BRANCH   1  12
ATOM     12  C   UNL     1      45.648   6.063  13.159  0.00  0.00    +0.000 C 
BRANCH  12  13
ATOM     13  C   UNL     1      45.450   5.186  11.953  0.00  0.00    +0.000 A 
ATOM     14  C   UNL     1      45.551   5.694  10.656  0.00  0.00    +0.000 A 
ATOM     15  C   UNL     1      45.387   4.844   9.561  0.00  0.00    +0.000 A 
ATOM     16  C   UNL     1      45.119   3.492   9.781  0.00  0.00    +0.000 A 
ATOM     17  N   UNL     1      44.993   2.988  11.043  0.00  0.00    +0.000 NA
ATOM     18  C   UNL     1      45.162   3.834  12.085  0.00  0.00    +0.000 A 
BRANCH  16  19
ATOM     19  C   UNL     1      44.983   2.545   8.596  0.00  0.00    +0.000 C 
ATOM     20  F   UNL     1      46.156   1.927   8.261  0.00  0.00    +0.000 F 
ATOM     21  F   UNL     1      44.095   1.533   8.818  0.00  0.00    +0.000 F 
ATOM     22  F   UNL     1      44.568   3.168   7.455  0.00  0.00    +0.000 F 
ENDBRANCH  16  19
ENDBRANCH  12  13
ENDBRANCH   1  12
TORSDOF 6
ENDMDL
MODEL 9
REMARK VINA RESULT:    -5.605      3.483      5.123
REMARK INTER + INTRA:          -7.931
REMARK INTER:                  -7.508
REMARK INTRA:                  -0.423
REMARK UNBOUND:                -0.524
REMARK  Name = 
REMARK  6 active torsions:
REMARK  status: ('A' for Active; 'I' for Inactive)
REMARK    1  A    between atoms: N_1  and  C_2
REMARK    2  A    between atoms: C_2  and  C_3
REMARK    3  A    between atoms: C_6  and  O_7
REMARK    4  A    between atoms: O_7  and  C_8
REMARK    5  A    between atoms: C_8  and  C_9
REMARK    6  A    between atoms: C_12  and  C_13
REMARK                            x       y       z     vdW  Elec       q    Type
REMARK                         _______ _______ _______ _____ _____    ______ ____
ROOT
ATOM      1  O   UNL     1      48.639   5.869  14.734  0.00  0.00    +0.000 OA
ENDROOT
BRANCH   1   5
ATOM      2  C   UNL     1      48.371   5.540  18.835  0.00  0.00    +0.000 A 
ATOM      3  C   UNL     1      48.778   6.770  18.321  0.00  0.00    +0.000 A 
ATOM      4  C   UNL     1      48.880   6.938  16.938  0.00  0.00    +0.000 A 
ATOM      5  C   UNL     1      48.577   5.874  16.096  0.00  0.00    +0.000 A 
ATOM      6  C   UNL     1      48.165   4.689  16.695  0.00  0.00    +0.000 A 
ATOM      7  N   UNL     1      48.056   4.494  18.033  0.00  0.00    +0.000 NA
BRANCH   2   8
ATOM      8  C   UNL     1      48.290   5.320  20.330  0.00  0.00    +0.000 C 
BRANCH   8   9
ATOM      9  N   UNL     1      48.421   3.908  20.713  0.00  0.00    +0.000 NA
ATOM     10  H   UNL     1      48.590   3.863  21.716  0.00  0.00    +0.000 HD
ATOM     11  H   UNL     1      49.269   3.548  20.272  0.00  0.00    +0.000 HD
ENDBRANCH   8   9
ENDBRANCH   2   8
ENDBRANCH   1   5
BRANCH   1  12
ATOM     12  C   UNL     1      47.858   6.842  14.042  0.00  0.00    +0.000 C 
BRANCH  12  13
ATOM     13  C   UNL     1      46.931   6.118  13.103  0.00  0.00    +0.000 A 
ATOM     14  C   UNL     1      46.694   6.586  11.808  0.00  0.00    +0.000 A 
ATOM     15  C   UNL     1      45.849   5.874  10.956  0.00  0.00    +0.000 A 
ATOM     16  C   UNL     1      45.248   4.701  11.415  0.00  0.00    +0.000 A 
ATOM     17  N   UNL     1      45.452   4.247  12.686  0.00  0.00    +0.000 NA
ATOM     18  C   UNL     1      46.280   4.954  13.488  0.00  0.00    +0.000 A 
BRANCH  16  19
ATOM     19  C   UNL     1      44.360   3.889  10.480  0.00  0.00    +0.000 C 
ATOM     20  F   UNL     1      43.496   4.660   9.752  0.00  0.00    +0.000 F 
ATOM     21  F   UNL     1      45.066   3.173   9.558  0.00  0.00    +0.000 F 
ATOM     22  F   UNL     1      43.572   2.989  11.136  0.00  0.00    +0.000 F 
ENDBRANCH  16  19
ENDBRANCH  12  13
ENDBRANCH   1  12
TORSDOF 6
ENDMDL
