MODEL 1
REMARK VINA RESULT:    -8.470      0.000      0.000
REMARK INTER + INTRA:         -12.396
REMARK INTER:                 -11.688
REMARK INTRA:                  -0.708
REMARK UNBOUND:                -0.708
REMARK  Name = 
REMARK  7 active torsions:
REMARK  status: ('A' for Active; 'I' for Inactive)
REMARK    1  A    between atoms: C_2  and  C_3
REMARK    2  A    between atoms: N_7  and  C_8
REMARK    3  A    between atoms: C_8  and  C_9
REMARK    4  A    between atoms: C_9  and  O_10
REMARK    5  A    between atoms: C_9  and  C_11
REMARK    6  A    between atoms: C_15  and  O_16
REMARK    7  A    between atoms: O_16  and  C_17
REMARK                            x       y       z     vdW  Elec       q    Type
REMARK                         _______ _______ _______ _____ _____    ______ ____
ROOT
ATOM      1  C   UNL     1      43.451   5.432  12.157  0.00  0.00    +0.000 C 
ENDROOT
BRANCH   1   2
ATOM      2  C   UNL     1      44.888   5.481  12.641  0.00  0.00    +0.000 A 
ATOM      3  C   UNL     1      45.717   6.561  12.310  0.00  0.00    +0.000 A 
ATOM      4  C   UNL     1      46.993   6.675  12.871  0.00  0.00    +0.000 A 
ATOM      5  C   UNL     1      47.462   5.712  13.768  0.00  0.00    +0.000 A 
ATOM      6  C   UNL     1      46.662   4.618  14.082  0.00  0.00    +0.000 A 
ATOM      7  C   UNL     1      45.393   4.501  13.509  0.00  0.00    +0.000 A 
BRANCH   6   8
ATOM      8  O   UNL     1      46.976   3.626  14.972  0.00  0.00    +0.000 OA
BRANCH   8   9
ATOM      9  C   UNL     1      47.794   3.934  16.121  0.00  0.00    +0.000 C 
ATOM     10  C   UNL     1      48.285   2.762  16.995  0.00  0.00    +0.000 C 
ATOM     11  N   UNL     1      47.864   3.492  18.207  0.00  0.00    +0.000 NA
ATOM     12  C   UNL     1      46.995   4.345  17.377  0.00  0.00    +0.000 C 
ATOM     13  H   UNL     1      48.617   4.002  18.665  0.00  0.00    +0.000 HD
ENDBRANCH   8   9
ENDBRANCH   6   8
ENDBRANCH   1   2
BRANCH   1  14
ATOM     14  O   UNL     1      43.057   6.710  11.648  0.00  0.00    +0.000 OA
ATOM     15  H   UNL     1      43.830   7.117  11.226  0.00  0.00    +0.000 HD
ENDBRANCH   1  14
BRANCH   1  16
ATOM     16  C   UNL     1      43.286   4.325  11.086  0.00  0.00    +0.000 C 
BRANCH  16  21
ATOM     17  C   UNL     1      46.603   2.680   7.589  0.00  0.00    +0.000 A 
ATOM     18  C   UNL     1      45.779   1.961   8.447  0.00  0.00    +0.000 A 
ATOM     19  C   UNL     1      44.834   2.642   9.214  0.00  0.00    +0.000 A 
ATOM     20  C   UNL     1      44.737   4.029   9.128  0.00  0.00    +0.000 A 
ATOM     21  N   UNL     1      43.764   4.762   9.781  0.00  0.00    +0.000 N 
ATOM     22  N   UNL     1      45.552   4.736   8.320  0.00  0.00    +0.000 NA
ATOM     23  C   UNL     1      46.457   4.056   7.569  0.00  0.00    +0.000 A 
ATOM     24  H   UNL     1      43.979   5.755   9.700  0.00  0.00    +0.000 HD
BRANCH  17  26
ATOM     25  N   UNL     1      48.333   1.498   6.070  0.00  0.00    +0.000 NA
ATOM     26  C   UNL     1      47.553   2.024   6.748  0.00  0.00    +0.000 C 
ENDBRANCH  17  26
ENDBRANCH  16  21
ENDBRANCH   1  16
TORSDOF 7
ENDMDL
MODEL 2
REMARK VINA RESULT:    -7.842      2.621      3.840
REMARK INTER + INTRA:         -11.530
REMARK INTER:                 -10.812
REMARK INTRA:                  -0.718
REMARK UNBOUND:                -0.708
REMARK  Name = 
REMARK  7 active torsions:
REMARK  status: ('A' for Active; 'I' for Inactive)
REMARK    1  A    between atoms: C_2  and  C_3
REMARK    2  A    between atoms: N_7  and  C_8
REMARK    3  A    between atoms: C_8  and  C_9
REMARK    4  A    between atoms: C_9  and  O_10
REMARK    5  A    between atoms: C_9  and  C_11
REMARK    6  A    between atoms: C_15  and  O_16
REMARK    7  A    between atoms: O_16  and  C_17
REMARK                            x       y       z     vdW  Elec       q    Type
REMARK                         _______ _______ _______ _____ _____    ______ ____
ROOT
ATOM      1  C   UNL     1      43.171   5.138  12.375  0.00  0.00    +0.000 C 
ENDROOT
BRANCH   1   2
ATOM      2  C   UNL     1      44.604   5.470  12.747  0.00  0.00    +0.000 A 
ATOM      3  C   UNL     1      45.393   4.544  13.442  0.00  0.00    +0.000 A 
ATOM      4  C   UNL     1      46.752   4.792  13.659  0.00  0.00    +0.000 A 
ATOM      5  C   UNL     1      47.343   5.968  13.189  0.00  0.00    +0.000 A 
ATOM      6  C   UNL     1      46.564   6.910  12.525  0.00  0.00    +0.000 A 
ATOM      7  C   UNL     1      45.204   6.664  12.321  0.00  0.00    +0.000 A 
BRANCH   6   8
ATOM      8  O   UNL     1      47.018   8.080  11.978  0.00  0.00    +0.000 OA
BRANCH   8   9
ATOM      9  C   UNL     1      46.746   9.330  12.646  0.00  0.00    +0.000 C 
ATOM     10  C   UNL     1      46.279  10.524  11.786  0.00  0.00    +0.000 C 
ATOM     11  N   UNL     1      47.261  11.393  12.465  0.00  0.00    +0.000 NA
ATOM     12  C   UNL     1      47.998  10.196  12.908  0.00  0.00    +0.000 C 
ATOM     13  H   UNL     1      46.870  11.938  13.232  0.00  0.00    +0.000 HD
ENDBRANCH   8   9
ENDBRANCH   6   8
ENDBRANCH   1   2
BRANCH   1  14
ATOM     14  O   UNL     1      42.496   6.310  11.909  0.00  0.00    +0.000 OA
ATOM     15  H   UNL     1      41.706   6.029  11.421  0.00  0.00    +0.000 HD
ENDBRANCH   1  14
BRANCH   1  16
ATOM     16  C   UNL     1      43.144   4.013  11.309  0.00  0.00    +0.000 C 
BRANCH  16  21
ATOM     17  C   UNL     1      46.460   2.573   7.722  0.00  0.00    +0.000 A 
ATOM     18  C   UNL     1      45.681   1.805   8.580  0.00  0.00    +0.000 A 
ATOM     19  C   UNL     1      44.724   2.432   9.377  0.00  0.00    +0.000 A 
ATOM     20  C   UNL     1      44.569   3.815   9.320  0.00  0.00    +0.000 A 
ATOM     21  N   UNL     1      43.579   4.495  10.005  0.00  0.00    +0.000 N 
ATOM     22  N   UNL     1      45.341   4.570   8.513  0.00  0.00    +0.000 NA
ATOM     23  C   UNL     1      46.258   3.942   7.733  0.00  0.00    +0.000 A 
ATOM     24  H   UNL     1      43.753   5.497   9.941  0.00  0.00    +0.000 HD
BRANCH  17  26
ATOM     25  N   UNL     1      48.203   1.479   6.154  0.00  0.00    +0.000 NA
ATOM     26  C   UNL     1      47.420   1.972   6.851  0.00  0.00    +0.000 C 
ENDBRANCH  17  26
ENDBRANCH  16  21
ENDBRANCH   1  16
TORSDOF 7
ENDMDL
MODEL 3
REMARK VINA RESULT:    -7.592      2.337      3.157
REMARK INTER + INTRA:         -11.185
REMARK INTER:                 -10.382
REMARK INTRA:                  -0.803
REMARK UNBOUND:                -0.708
REMARK  Name = 
REMARK  7 active torsions:
REMARK  status: ('A' for Active; 'I' for Inactive)
REMARK    1  A    between atoms: C_2  and  C_3
REMARK    2  A    between atoms: N_7  and  C_8
REMARK    3  A    between atoms: C_8  and  C_9
REMARK    4  A    between atoms: C_9  and  O_10
REMARK    5  A    between atoms: C_9  and  C_11
REMARK    6  A    between atoms: C_15  and  O_16
REMARK    7  A    between atoms: O_16  and  C_17
REMARK                            x       y       z     vdW  Elec       q    Type
REMARK                         _______ _______ _______ _____ _____    ______ ____
ROOT
ATOM      1  C   UNL     1      43.510   5.674  11.994  0.00  0.00    +0.000 C 
ENDROOT
BRANCH   1   2
ATOM      2  C   UNL     1      44.851   5.479  12.679  0.00  0.00    +0.000 A 
ATOM      3  C   UNL     1      45.258   4.207  13.102  0.00  0.00    +0.000 A 
ATOM      4  C   UNL     1      46.548   4.006  13.602  0.00  0.00    +0.000 A 
ATOM      5  C   UNL     1      47.450   5.069  13.691  0.00  0.00    +0.000 A 
ATOM      6  C   UNL     1      47.048   6.344  13.303  0.00  0.00    +0.000 A 
ATOM      7  C   UNL     1      45.754   6.544  12.816  0.00  0.00    +0.000 A 
BRANCH   6   8
ATOM      8  O   UNL     1      47.836   7.463  13.298  0.00  0.00    +0.000 OA
BRANCH   8   9
ATOM      9  C   UNL     1      49.257   7.332  13.079  0.00  0.00    +0.000 C 
ATOM     10  C   UNL     1      50.194   8.323  13.800  0.00  0.00    +0.000 C 
ATOM     11  N   UNL     1      50.917   8.556  12.534  0.00  0.00    +0.000 NA
ATOM     12  C   UNL     1      49.767   8.013  11.790  0.00  0.00    +0.000 C 
ATOM     13  H   UNL     1      51.766   8.001  12.434  0.00  0.00    +0.000 HD
ENDBRANCH   8   9
ENDBRANCH   6   8
ENDBRANCH   1   2
BRANCH   1  14
ATOM     14  O   UNL     1      43.444   6.971  11.396  0.00  0.00    +0.000 OA
ATOM     15  H   UNL     1      43.998   6.964  10.599  0.00  0.00    +0.000 HD
ENDBRANCH   1  14
BRANCH   1  16
ATOM     16  C   UNL     1      43.282   4.557  10.943  0.00  0.00    +0.000 C 
BRANCH  16  21
ATOM     17  C   UNL     1      46.617   2.731   7.555  0.00  0.00    +0.000 A 
ATOM     18  C   UNL     1      45.766   2.058   8.424  0.00  0.00    +0.000 A 
ATOM     19  C   UNL     1      44.824   2.783   9.153  0.00  0.00    +0.000 A 
ATOM     20  C   UNL     1      44.755   4.168   9.018  0.00  0.00    +0.000 A 
ATOM     21  N   UNL     1      43.787   4.941   9.631  0.00  0.00    +0.000 N 
ATOM     22  N   UNL     1      45.596   4.831   8.200  0.00  0.00    +0.000 NA
ATOM     23  C   UNL     1      46.498   4.108   7.486  0.00  0.00    +0.000 A 
ATOM     24  H   UNL     1      44.023   5.926   9.520  0.00  0.00    +0.000 HD
BRANCH  17  26
ATOM     25  N   UNL     1      48.344   1.467   6.100  0.00  0.00    +0.000 NA
ATOM     26  C   UNL     1      47.566   2.029   6.751  0.00  0.00    +0.000 C 
ENDBRANCH  17  26
ENDBRANCH  16  21
ENDBRANCH   1  16
TORSDOF 7
ENDMDL
MODEL 4
REMARK VINA RESULT:    -7.248      2.484      2.857
REMARK INTER + INTRA:         -10.710
REMARK INTER:                  -9.902
REMARK INTRA:                  -0.808
REMARK UNBOUND:                -0.708
REMARK  Name = 
REMARK  7 active torsions:
REMARK  status: ('A' for Active; 'I' for Inactive)
REMARK    1  A    between atoms: C_2  and  C_3
REMARK    2  A    between atoms: N_7  and  C_8
REMARK    3  A    between atoms: C_8  and  C_9
REMARK    4  A    between atoms: C_9  and  O_10
REMARK    5  A    between atoms: C_9  and  C_11
REMARK    6  A    between atoms: C_15  and  O_16
REMARK    7  A    between atoms: O_16  and  C_17
REMARK                            x       y       z     vdW  Elec       q    Type
REMARK                         _______ _______ _______ _____ _____    ______ ____
ROOT
ATOM      1  C   UNL     1      43.758   4.301  12.932  0.00  0.00    +0.000 C 
ENDROOT
BRANCH   1   2
ATOM      2  C   UNL     1      44.825   5.356  12.702  0.00  0.00    +0.000 A 
ATOM      3  C   UNL     1      44.554   6.487  11.920  0.00  0.00    +0.000 A 
ATOM      4  C   UNL     1      45.487   7.524  11.826  0.00  0.00    +0.000 A 
ATOM      5  C   UNL     1      46.705   7.448  12.507  0.00  0.00    +0.000 A 
ATOM      6  C   UNL     1      47.000   6.317  13.261  0.00  0.00    +0.000 A 
ATOM      7  C   UNL     1      46.070   5.277  13.343  0.00  0.00    +0.000 A 
BRANCH   6   8
ATOM      8  O   UNL     1      48.131   6.127  14.009  0.00  0.00    +0.000 OA
BRANCH   8   9
ATOM      9  C   UNL     1      48.939   7.264  14.377  0.00  0.00    +0.000 C 
ATOM     10  C   UNL     1      50.097   7.665  13.440  0.00  0.00    +0.000 C 
ATOM     11  N   UNL     1      51.001   7.764  14.602  0.00  0.00    +0.000 NA
ATOM     12  C   UNL     1      50.062   6.945  15.389  0.00  0.00    +0.000 C 
ATOM     13  H   UNL     1      51.112   8.712  14.959  0.00  0.00    +0.000 HD
ENDBRANCH   8   9
ENDBRANCH   6   8
ENDBRANCH   1   2
BRANCH   1  14
ATOM     14  O   UNL     1      42.621   4.880  13.578  0.00  0.00    +0.000 OA
ATOM     15  H   UNL     1      42.778   5.835  13.665  0.00  0.00    +0.000 HD
ENDBRANCH   1  14
BRANCH   1  16
ATOM     16  C   UNL     1      43.364   3.640  11.586  0.00  0.00    +0.000 C 
BRANCH  16  21
ATOM     17  C   UNL     1      46.194   2.895   7.419  0.00  0.00    +0.000 A 
ATOM     18  C   UNL     1      45.759   4.079   8.003  0.00  0.00    +0.000 A 
ATOM     19  C   UNL     1      45.119   4.031   9.242  0.00  0.00    +0.000 A 
ATOM     20  C   UNL     1      44.909   2.806   9.870  0.00  0.00    +0.000 A 
ATOM     21  N   UNL     1      44.372   2.688  11.138  0.00  0.00    +0.000 N 
ATOM     22  N   UNL     1      45.302   1.652   9.296  0.00  0.00    +0.000 NA
ATOM     23  C   UNL     1      45.936   1.716   8.097  0.00  0.00    +0.000 A 
ATOM     24  H   UNL     1      44.167   1.707  11.327  0.00  0.00    +0.000 HD
BRANCH  17  26
ATOM     25  N   UNL     1      47.477   2.894   5.171  0.00  0.00    +0.000 NA
ATOM     26  C   UNL     1      46.897   2.895   6.174  0.00  0.00    +0.000 C 
ENDBRANCH  17  26
ENDBRANCH  16  21
ENDBRANCH   1  16
TORSDOF 7
ENDMDL
MODEL 5
REMARK VINA RESULT:    -7.083      3.010      4.799
REMARK INTER + INTRA:         -10.483
REMARK INTER:                 -10.014
REMARK INTRA:                  -0.469
REMARK UNBOUND:                -0.708
REMARK  Name = 
REMARK  7 active torsions:
REMARK  status: ('A' for Active; 'I' for Inactive)
REMARK    1  A    between atoms: C_2  and  C_3
REMARK    2  A    between atoms: N_7  and  C_8
REMARK    3  A    between atoms: C_8  and  C_9
REMARK    4  A    between atoms: C_9  and  O_10
REMARK    5  A    between atoms: C_9  and  C_11
REMARK    6  A    between atoms: C_15  and  O_16
REMARK    7  A    between atoms: O_16  and  C_17
REMARK                            x       y       z     vdW  Elec       q    Type
REMARK                         _______ _______ _______ _____ _____    ______ ____
ROOT
ATOM      1  C   UNL     1      44.579   4.465  12.199  0.00  0.00    +0.000 C 
ENDROOT
BRANCH   1   2
ATOM      2  C   UNL     1      45.377   5.752  12.294  0.00  0.00    +0.000 A 
ATOM      3  C   UNL     1      46.767   5.745  12.119  0.00  0.00    +0.000 A 
ATOM      4  C   UNL     1      47.482   6.946  12.065  0.00  0.00    +0.000 A 
ATOM      5  C   UNL     1      46.821   8.171  12.189  0.00  0.00    +0.000 A 
ATOM      6  C   UNL     1      45.445   8.192  12.395  0.00  0.00    +0.000 A 
ATOM      7  C   UNL     1      44.737   6.989  12.460  0.00  0.00    +0.000 A 
BRANCH   6   8
ATOM      8  O   UNL     1      44.668   9.314  12.491  0.00  0.00    +0.000 OA
BRANCH   8   9
ATOM      9  C   UNL     1      44.409  10.104  11.311  0.00  0.00    +0.000 C 
ATOM     10  C   UNL     1      43.645  11.433  11.483  0.00  0.00    +0.000 C 
ATOM     11  N   UNL     1      42.764  11.071  10.355  0.00  0.00    +0.000 NA
ATOM     12  C   UNL     1      43.164   9.661  10.511  0.00  0.00    +0.000 C 
ATOM     13  H   UNL     1      43.045  11.477   9.464  0.00  0.00    +0.000 HD
ENDBRANCH   8   9
ENDBRANCH   6   8
ENDBRANCH   1   2
BRANCH   1  14
ATOM     14  O   UNL     1      44.068   4.103  13.485  0.00  0.00    +0.000 OA
ATOM     15  H   UNL     1      44.247   3.160  13.626  0.00  0.00    +0.000 HD
ENDBRANCH   1  14
BRANCH   1  16
ATOM     16  C   UNL     1      43.437   4.621  11.163  0.00  0.00    +0.000 C 
BRANCH  16  21
ATOM     17  C   UNL     1      46.612   2.756   7.645  0.00  0.00    +0.000 A 
ATOM     18  C   UNL     1      45.738   2.095   8.500  0.00  0.00    +0.000 A 
ATOM     19  C   UNL     1      44.849   2.840   9.274  0.00  0.00    +0.000 A 
ATOM     20  C   UNL     1      44.857   4.231   9.198  0.00  0.00    +0.000 A 
ATOM     21  N   UNL     1      43.944   5.031   9.859  0.00  0.00    +0.000 N 
ATOM     22  N   UNL     1      45.722   4.880   8.394  0.00  0.00    +0.000 NA
ATOM     23  C   UNL     1      46.571   4.139   7.636  0.00  0.00    +0.000 A 
ATOM     24  H   UNL     1      44.234   6.005   9.785  0.00  0.00    +0.000 HD
BRANCH  17  26
ATOM     25  N   UNL     1      48.226   1.445   6.104  0.00  0.00    +0.000 NA
ATOM     26  C   UNL     1      47.508   2.036   6.796  0.00  0.00    +0.000 C 
ENDBRANCH  17  26
ENDBRANCH  16  21
ENDBRANCH   1  16
TORSDOF 7
ENDMDL
MODEL 6
REMARK VINA RESULT:    -7.080      3.377      7.293
REMARK INTER + INTRA:         -10.479
REMARK INTER:                  -9.976
REMARK INTRA:                  -0.503
REMARK UNBOUND:                -0.708
REMARK  Name = 
REMARK  7 active torsions:
REMARK  status: ('A' for Active; 'I' for Inactive)
REMARK    1  A    between atoms: C_2  and  C_3
REMARK    2  A    between atoms: N_7  and  C_8
REMARK    3  A    between atoms: C_8  and  C_9
REMARK    4  A    between atoms: C_9  and  O_10
REMARK    5  A    between atoms: C_9  and  C_11
REMARK    6  A    between atoms: C_15  and  O_16
REMARK    7  A    between atoms: O_16  and  C_17
REMARK                            x       y       z     vdW  Elec       q    Type
REMARK                         _______ _______ _______ _____ _____    ______ ____
ROOT
ATOM      1  C   UNL     1      44.063   6.106  11.013  0.00  0.00    +0.000 C 
ENDROOT
BRANCH   1   2
ATOM      2  C   UNL     1      44.443   4.801  10.338  0.00  0.00    +0.000 A 
ATOM      3  C   UNL     1      43.943   3.581  10.811  0.00  0.00    +0.000 A 
ATOM      4  C   UNL     1      44.178   2.397  10.105  0.00  0.00    +0.000 A 
ATOM      5  C   UNL     1      44.917   2.412   8.920  0.00  0.00    +0.000 A 
ATOM      6  C   UNL     1      45.447   3.612   8.455  0.00  0.00    +0.000 A 
ATOM      7  C   UNL     1      45.220   4.791   9.170  0.00  0.00    +0.000 A 
BRANCH   6   8
ATOM      8  O   UNL     1      46.151   3.779   7.294  0.00  0.00    +0.000 OA
BRANCH   8   9
ATOM      9  C   UNL     1      46.577   2.619   6.547  0.00  0.00    +0.000 C 
ATOM     10  C   UNL     1      47.907   1.948   6.949  0.00  0.00    +0.000 C 
ATOM     11  N   UNL     1      48.315   1.913   5.531  0.00  0.00    +0.000 NA
ATOM     12  C   UNL     1      47.310   2.947   5.228  0.00  0.00    +0.000 C 
ATOM     13  H   UNL     1      48.135   1.022   5.070  0.00  0.00    +0.000 HD
ENDBRANCH   8   9
ENDBRANCH   6   8
ENDBRANCH   1   2
BRANCH   1  14
ATOM     14  O   UNL     1      42.654   6.328  10.904  0.00  0.00    +0.000 OA
ATOM     15  H   UNL     1      42.404   6.217   9.972  0.00  0.00    +0.000 HD
ENDBRANCH   1  14
BRANCH   1  16
ATOM     16  C   UNL     1      44.516   6.091  12.495  0.00  0.00    +0.000 C 
BRANCH  16  21
ATOM     17  C   UNL     1      49.122   8.252  12.711  0.00  0.00    +0.000 A 
ATOM     18  C   UNL     1      48.604   7.343  11.796  0.00  0.00    +0.000 A 
ATOM     19  C   UNL     1      47.250   7.012  11.857  0.00  0.00    +0.000 A 
ATOM     20  C   UNL     1      46.439   7.578  12.839  0.00  0.00    +0.000 A 
ATOM     21  N   UNL     1      45.074   7.374  12.902  0.00  0.00    +0.000 N 
ATOM     22  N   UNL     1      46.942   8.437  13.747  0.00  0.00    +0.000 NA
ATOM     23  C   UNL     1      48.258   8.760  13.665  0.00  0.00    +0.000 A 
ATOM     24  H   UNL     1      44.717   7.751  13.779  0.00  0.00    +0.000 HD
BRANCH  17  26
ATOM     25  N   UNL     1      51.598   9.001  12.610  0.00  0.00    +0.000 NA
ATOM     26  C   UNL     1      50.491   8.660  12.659  0.00  0.00    +0.000 C 
ENDBRANCH  17  26
ENDBRANCH  16  21
ENDBRANCH   1  16
TORSDOF 7
ENDMDL
MODEL 7
REMARK VINA RESULT:    -7.042      2.139      7.890
REMARK INTER + INTRA:         -10.426
REMARK INTER:                 -10.141
REMARK INTRA:                  -0.286
REMARK UNBOUND:                -0.708
REMARK  Name = 
REMARK  7 active torsions:
REMARK  status: ('A' for Active; 'I' for Inactive)
REMARK    1  A    between atoms: C_2  and  C_3
REMARK    2  A    between atoms: N_7  and  C_8
REMARK    3  A    between atoms: C_8  and  C_9
REMARK    4  A    between atoms: C_9  and  O_10
REMARK    5  A    between atoms: C_9  and  C_11
REMARK    6  A    between atoms: C_15  and  O_16
REMARK    7  A    between atoms: O_16  and  C_17
REMARK                            x       y       z     vdW  Elec       q    Type
REMARK                         _______ _______ _______ _____ _____    ______ ____
ROOT
ATOM      1  C   UNL     1      45.473   6.259  10.982  0.00  0.00    +0.000 C 
ENDROOT
BRANCH   1   2
ATOM      2  C   UNL     1      45.211   4.922  10.312  0.00  0.00    +0.000 A 
ATOM      3  C   UNL     1      44.430   3.947  10.947  0.00  0.00    +0.000 A 
ATOM      4  C   UNL     1      44.071   2.776  10.272  0.00  0.00    +0.000 A 
ATOM      5  C   UNL     1      44.488   2.559   8.956  0.00  0.00    +0.000 A 
ATOM      6  C   UNL     1      45.290   3.504   8.325  0.00  0.00    +0.000 A 
ATOM      7  C   UNL     1      45.657   4.668   9.007  0.00  0.00    +0.000 A 
BRANCH   6   8
ATOM      8  O   UNL     1      45.734   3.440   7.032  0.00  0.00    +0.000 OA
BRANCH   8   9
ATOM      9  C   UNL     1      47.130   3.181   6.771  0.00  0.00    +0.000 C 
ATOM     10  C   UNL     1      47.541   2.811   5.330  0.00  0.00    +0.000 C 
ATOM     11  N   UNL     1      48.341   1.686   5.850  0.00  0.00    +0.000 NA
ATOM     12  C   UNL     1      47.585   1.746   7.114  0.00  0.00    +0.000 C 
ATOM     13  H   UNL     1      49.332   1.897   5.958  0.00  0.00    +0.000 HD
ENDBRANCH   8   9
ENDBRANCH   6   8
ENDBRANCH   1   2
BRANCH   1  14
ATOM     14  O   UNL     1      44.270   6.764  11.567  0.00  0.00    +0.000 OA
ATOM     15  H   UNL     1      44.193   6.396  12.462  0.00  0.00    +0.000 HD
ENDBRANCH   1  14
BRANCH   1  16
ATOM     16  C   UNL     1      46.595   6.113  12.040  0.00  0.00    +0.000 C 
BRANCH  16  21
ATOM     17  C   UNL     1      48.443   4.945  16.640  0.00  0.00    +0.000 A 
ATOM     18  C   UNL     1      48.679   6.056  15.838  0.00  0.00    +0.000 A 
ATOM     19  C   UNL     1      47.929   6.227  14.675  0.00  0.00    +0.000 A 
ATOM     20  C   UNL     1      46.968   5.282  14.320  0.00  0.00    +0.000 A 
ATOM     21  N   UNL     1      46.121   5.433  13.239  0.00  0.00    +0.000 N 
ATOM     22  N   UNL     1      46.755   4.188  15.078  0.00  0.00    +0.000 NA
ATOM     23  C   UNL     1      47.484   4.044  16.215  0.00  0.00    +0.000 A 
ATOM     24  H   UNL     1      45.618   4.561  13.081  0.00  0.00    +0.000 HD
BRANCH  17  26
ATOM     25  N   UNL     1      49.726   4.580  18.858  0.00  0.00    +0.000 NA
ATOM     26  C   UNL     1      49.152   4.750  17.865  0.00  0.00    +0.000 C 
ENDBRANCH  17  26
ENDBRANCH  16  21
ENDBRANCH   1  16
TORSDOF 7
ENDMDL
MODEL 8
REMARK VINA RESULT:    -5.970      1.944      2.298
REMARK INTER + INTRA:          -8.946
REMARK INTER:                  -8.164
REMARK INTRA:                  -0.782
REMARK UNBOUND:                -0.708
REMARK  Name = 
REMARK  7 active torsions:
REMARK  status: ('A' for Active; 'I' for Inactive)
REMARK    1  A    between atoms: C_2  and  C_3
REMARK    2  A    between atoms: N_7  and  C_8
REMARK    3  A    between atoms: C_8  and  C_9
REMARK    4  A    between atoms: C_9  and  O_10
REMARK    5  A    between atoms: C_9  and  C_11
REMARK    6  A    between atoms: C_15  and  O_16
REMARK    7  A    between atoms: O_16  and  C_17
REMARK                            x       y       z     vdW  Elec       q    Type
REMARK                         _______ _______ _______ _____ _____    ______ ____
ROOT
ATOM      1  C   UNL     1      44.493   6.960  12.264  0.00  0.00    +0.000 C 
ENDROOT
BRANCH   1   2
ATOM      2  C   UNL     1      45.994   6.789  12.412  0.00  0.00    +0.000 A 
ATOM      3  C   UNL     1      46.869   7.293  11.440  0.00  0.00    +0.000 A 
ATOM      4  C   UNL     1      48.252   7.261  11.645  0.00  0.00    +0.000 A 
ATOM      5  C   UNL     1      48.783   6.724  12.820  0.00  0.00    +0.000 A 
ATOM      6  C   UNL     1      47.927   6.191  13.780  0.00  0.00    +0.000 A 
ATOM      7  C   UNL     1      46.547   6.213  13.565  0.00  0.00    +0.000 A 
BRANCH   6   8
ATOM      8  O   UNL     1      48.306   5.673  14.988  0.00  0.00    +0.000 OA
BRANCH   8   9
ATOM      9  C   UNL     1      49.257   6.389  15.804  0.00  0.00    +0.000 C 
ATOM     10  C   UNL     1      49.400   5.975  17.283  0.00  0.00    +0.000 C 
ATOM     11  N   UNL     1      49.326   7.393  17.685  0.00  0.00    +0.000 NA
ATOM     12  C   UNL     1      48.726   7.720  16.380  0.00  0.00    +0.000 C 
ATOM     13  H   UNL     1      50.234   7.829  17.836  0.00  0.00    +0.000 HD
ENDBRANCH   8   9
ENDBRANCH   6   8
ENDBRANCH   1   2
BRANCH   1  14
ATOM     14  O   UNL     1      44.171   8.336  12.045  0.00  0.00    +0.000 OA
ATOM     15  H   UNL     1      44.429   8.835  12.837  0.00  0.00    +0.000 HD
ENDBRANCH   1  14
BRANCH   1  16
ATOM     16  C   UNL     1      43.967   6.068  11.111  0.00  0.00    +0.000 C 
BRANCH  16  21
ATOM     17  C   UNL     1      46.124   2.677   7.984  0.00  0.00    +0.000 A 
ATOM     18  C   UNL     1      46.231   4.063   8.011  0.00  0.00    +0.000 A 
ATOM     19  C   UNL     1      45.663   4.770   9.070  0.00  0.00    +0.000 A 
ATOM     20  C   UNL     1      44.982   4.087  10.076  0.00  0.00    +0.000 A 
ATOM     21  N   UNL     1      44.479   4.708  11.204  0.00  0.00    +0.000 N 
ATOM     22  N   UNL     1      44.849   2.747  10.042  0.00  0.00    +0.000 NA
ATOM     23  C   UNL     1      45.421   2.072   9.011  0.00  0.00    +0.000 A 
ATOM     24  H   UNL     1      43.893   4.050  11.717  0.00  0.00    +0.000 HD
BRANCH  17  26
ATOM     25  N   UNL     1      47.211   1.275   6.100  0.00  0.00    +0.000 NA
ATOM     26  C   UNL     1      46.730   1.905   6.946  0.00  0.00    +0.000 C 
ENDBRANCH  17  26
ENDBRANCH  16  21
ENDBRANCH   1  16
TORSDOF 7
ENDMDL
MODEL 9
REMARK VINA RESULT:    -5.947      2.302      7.970
REMARK INTER + INTRA:          -8.915
REMARK INTER:                  -8.473
REMARK INTRA:                  -0.442
REMARK UNBOUND:                -0.708
REMARK  Name = 
REMARK  7 active torsions:
REMARK  status: ('A' for Active; 'I' for Inactive)
REMARK    1  A    between atoms: C_2  and  C_3
REMARK    2  A    between atoms: N_7  and  C_8
REMARK    3  A    between atoms: C_8  and  C_9
REMARK    4  A    between atoms: C_9  and  O_10
REMARK    5  A    between atoms: C_9  and  C_11
REMARK    6  A    between atoms: C_15  and  O_16
REMARK    7  A    between atoms: O_16  and  C_17
REMARK                            x       y       z     vdW  Elec       q    Type
REMARK                         _______ _______ _______ _____ _____    ______ ____
ROOT
ATOM      1  C   UNL     1      46.627   7.065  12.476  0.00  0.00    +0.000 C 
ENDROOT
BRANCH   1   2
ATOM      2  C   UNL     1      45.593   6.219  11.756  0.00  0.00    +0.000 A 
ATOM      3  C   UNL     1      44.298   6.080  12.274  0.00  0.00    +0.000 A 
ATOM      4  C   UNL     1      43.308   5.421  11.540  0.00  0.00    +0.000 A 
ATOM      5  C   UNL     1      43.594   4.887  10.281  0.00  0.00    +0.000 A 
ATOM      6  C   UNL     1      44.883   4.990   9.768  0.00  0.00    +0.000 A 
ATOM      7  C   UNL     1      45.873   5.639  10.510  0.00  0.00    +0.000 A 
BRANCH   6   8
ATOM      8  O   UNL     1      45.291   4.551   8.538  0.00  0.00    +0.000 OA
BRANCH   8   9
ATOM      9  C   UNL     1      45.100   3.166   8.176  0.00  0.00    +0.000 C 
ATOM     10  C   UNL     1      45.277   2.100   9.277  0.00  0.00    +0.000 C 
ATOM     11  N   UNL     1      46.120   1.302   8.365  0.00  0.00    +0.000 NA
ATOM     12  C   UNL     1      46.337   2.500   7.535  0.00  0.00    +0.000 C 
ATOM     13  H   UNL     1      45.617   0.558   7.882  0.00  0.00    +0.000 HD
ENDBRANCH   8   9
ENDBRANCH   6   8
ENDBRANCH   1   2
BRANCH   1  14
ATOM     14  O   UNL     1      45.988   7.935  13.414  0.00  0.00    +0.000 OA
ATOM     15  H   UNL     1      46.620   8.630  13.658  0.00  0.00    +0.000 HD
ENDBRANCH   1  14
BRANCH   1  16
ATOM     16  C   UNL     1      47.669   6.153  13.173  0.00  0.00    +0.000 C 
BRANCH  16  21
ATOM     17  C   UNL     1      48.922   5.072  17.988  0.00  0.00    +0.000 A 
ATOM     18  C   UNL     1      49.180   6.210  17.232  0.00  0.00    +0.000 A 
ATOM     19  C   UNL     1      48.594   6.337  15.973  0.00  0.00    +0.000 A 
ATOM     20  C   UNL     1      47.776   5.322  15.480  0.00  0.00    +0.000 A 
ATOM     21  N   UNL     1      47.084   5.420  14.287  0.00  0.00    +0.000 N 
ATOM     22  N   UNL     1      47.545   4.204  16.196  0.00  0.00    +0.000 NA
ATOM     23  C   UNL     1      48.112   4.102  17.426  0.00  0.00    +0.000 A 
ATOM     24  H   UNL     1      46.682   4.512  14.056  0.00  0.00    +0.000 HD
BRANCH  17  26
ATOM     25  N   UNL     1      49.887   4.796  20.374  0.00  0.00    +0.000 NA
ATOM     26  C   UNL     1      49.460   4.917  19.303  0.00  0.00    +0.000 C 
ENDBRANCH  17  26
ENDBRANCH  16  21
ENDBRANCH   1  16
TORSDOF 7
ENDMDL
