MODEL 1
REMARK VINA RESULT:    -8.791      0.000      0.000
REMARK INTER + INTRA:         -13.000
REMARK INTER:                 -12.132
REMARK INTRA:                  -0.868
REMARK UNBOUND:                -0.868
REMARK  Name = 
REMARK  7 active torsions:
REMARK  status: ('A' for Active; 'I' for Inactive)
REMARK    1  A    between atoms: N_1  and  C_2
REMARK    2  A    between atoms: C_2  and  C_3
REMARK    3  A    between atoms: C_2  and  C_10
REMARK    4  A    between atoms: C_3  and  C_4
REMARK    5  A    between atoms: C_13  and  C_14
REMARK    6  A    between atoms: C_14  and  N_15
REMARK    7  A    between atoms: C_16  and  C_18
REMARK                            x       y       z     vdW  Elec       q    Type
REMARK                         _______ _______ _______ _____ _____    ______ ____
ROOT
ATOM      1  C   UNL     1      45.146   4.425  10.986  0.00  0.00    +0.000 C 
ATOM      2  C   UNL     1      44.476   4.974  12.264  0.00  0.00    +0.000 C 
ATOM      3  C   UNL     1      45.364   5.935  13.047  0.00  0.00    +0.000 C 
ATOM      4  C   UNL     1      45.854   7.094  12.175  0.00  0.00    +0.000 C 
ATOM      5  C   UNL     1      46.567   6.545  10.934  0.00  0.00    +0.000 C 
ATOM      6  C   UNL     1      45.677   5.596  10.133  0.00  0.00    +0.000 C 
ENDROOT
BRANCH   1   7
ATOM      7  C   UNL     1      44.164   3.504  10.191  0.00  0.00    +0.000 C 
BRANCH   7   8
ATOM      8  N   UNL     1      42.968   3.213  10.997  0.00  0.00    +0.000 NA
ATOM      9  H   UNL     1      43.066   3.577  11.942  0.00  0.00    +0.000 HD
ATOM     10  H   UNL     1      42.833   2.207  11.084  0.00  0.00    +0.000 HD
ENDBRANCH   7   8
BRANCH   7  11
ATOM     11  C   UNL     1      44.820   2.170   9.748  0.00  0.00    +0.000 C 
BRANCH  11  12
ATOM     12  C   UNL     1      45.626   2.231   8.472  0.00  0.00    +0.000 A 
ATOM     13  C   UNL     1      45.660   3.369   7.663  0.00  0.00    +0.000 A 
ATOM     14  C   UNL     1      46.447   3.375   6.513  0.00  0.00    +0.000 A 
ATOM     15  C   UNL     1      47.181   2.240   6.212  0.00  0.00    +0.000 A 
ATOM     16  N   UNL     1      47.181   1.123   6.969  0.00  0.00    +0.000 NA
ATOM     17  C   UNL     1      46.403   1.145   8.075  0.00  0.00    +0.000 A 
ENDBRANCH  11  12
ENDBRANCH   7  11
ENDBRANCH   1   7
BRANCH   4  18
ATOM     18  C   UNL     1      46.795   8.029  12.950  0.00  0.00    +0.000 C 
BRANCH  18  19
ATOM     19  N   UNL     1      47.199   7.493  14.232  0.00  0.00    +0.000 N 
ATOM     20  C   UNL     1      48.322   6.719  14.380  0.00  0.00    +0.000 C 
ATOM     21  O   UNL     1      49.059   6.446  13.434  0.00  0.00    +0.000 OA
ATOM     22  H   UNL     1      46.520   7.531  14.987  0.00  0.00    +0.000 HD
BRANCH  20  23
ATOM     23  C   UNL     1      48.640   6.281  15.743  0.00  0.00    +0.000 A 
ATOM     24  C   UNL     1      49.439   7.078  16.551  0.00  0.00    +0.000 A 
ATOM     25  S   UNL     1      49.700   6.426  18.105  0.00  0.00    +0.000 S 
ATOM     26  C   UNL     1      48.781   5.041  17.739  0.00  0.00    +0.000 A 
ATOM     27  N   UNL     1      48.623   4.043  18.650  0.00  0.00    +0.000 NA
ATOM     28  C   UNL     1      47.914   3.048  18.233  0.00  0.00    +0.000 A 
ATOM     29  N   UNL     1      47.343   2.960  16.988  0.00  0.00    +0.000 N 
ATOM     30  C   UNL     1      47.462   3.946  16.038  0.00  0.00    +0.000 A 
ATOM     31  O   UNL     1      46.908   3.856  14.950  0.00  0.00    +0.000 OA
ATOM     32  C   UNL     1      48.261   5.088  16.455  0.00  0.00    +0.000 A 
ATOM     33  H   UNL     1      46.788   2.159  16.732  0.00  0.00    +0.000 HD
ENDBRANCH  20  23
ENDBRANCH  18  19
ENDBRANCH   4  18
TORSDOF 7
ENDMDL
MODEL 2
REMARK VINA RESULT:    -8.415      1.408      1.642
REMARK INTER + INTRA:         -12.480
REMARK INTER:                 -11.605
REMARK INTRA:                  -0.875
REMARK UNBOUND:                -0.868
REMARK  Name = 
REMARK  7 active torsions:
REMARK  status: ('A' for Active; 'I' for Inactive)
REMARK    1  A    between atoms: N_1  and  C_2
REMARK    2  A    between atoms: C_2  and  C_3
REMARK    3  A    between atoms: C_2  and  C_10
REMARK    4  A    between atoms: C_3  and  C_4
REMARK    5  A    between atoms: C_13  and  C_14
REMARK    6  A    between atoms: C_14  and  N_15
REMARK    7  A    between atoms: C_16  and  C_18
REMARK                            x       y       z     vdW  Elec       q    Type
REMARK                         _______ _______ _______ _____ _____    ______ ____
ROOT
ATOM      1  C   UNL     1      45.317   4.498  11.056  0.00  0.00    +0.000 C 
ATOM      2  C   UNL     1      45.274   4.351  12.593  0.00  0.00    +0.000 C 
ATOM      3  C   UNL     1      46.469   4.987  13.294  0.00  0.00    +0.000 C 
ATOM      4  C   UNL     1      46.632   6.461  12.915  0.00  0.00    +0.000 C 
ATOM      5  C   UNL     1      46.729   6.599  11.391  0.00  0.00    +0.000 C 
ATOM      6  C   UNL     1      45.525   5.980  10.682  0.00  0.00    +0.000 C 
ENDROOT
BRANCH   1   7
ATOM      7  C   UNL     1      44.034   3.891  10.401  0.00  0.00    +0.000 C 
BRANCH   7   8
ATOM      8  N   UNL     1      42.959   3.765  11.397  0.00  0.00    +0.000 NA
ATOM      9  H   UNL     1      43.065   4.454  12.138  0.00  0.00    +0.000 HD
ATOM     10  H   UNL     1      42.991   2.850  11.842  0.00  0.00    +0.000 HD
ENDBRANCH   7   8
BRANCH   7  11
ATOM     11  C   UNL     1      44.292   2.507   9.749  0.00  0.00    +0.000 C 
BRANCH  11  12
ATOM     12  C   UNL     1      45.300   2.493   8.624  0.00  0.00    +0.000 A 
ATOM     13  C   UNL     1      45.541   3.611   7.822  0.00  0.00    +0.000 A 
ATOM     14  C   UNL     1      46.506   3.545   6.819  0.00  0.00    +0.000 A 
ATOM     15  C   UNL     1      47.204   2.361   6.654  0.00  0.00    +0.000 A 
ATOM     16  N   UNL     1      47.007   1.261   7.410  0.00  0.00    +0.000 NA
ATOM     17  C   UNL     1      46.060   1.354   8.372  0.00  0.00    +0.000 A 
ENDBRANCH  11  12
ENDBRANCH   7  11
ENDBRANCH   1   7
BRANCH   4  18
ATOM     18  C   UNL     1      47.870   7.084  13.578  0.00  0.00    +0.000 C 
BRANCH  18  19
ATOM     19  N   UNL     1      47.819   7.049  15.023  0.00  0.00    +0.000 N 
ATOM     20  C   UNL     1      48.938   6.845  15.790  0.00  0.00    +0.000 C 
ATOM     21  O   UNL     1      50.053   6.692  15.294  0.00  0.00    +0.000 OA
ATOM     22  H   UNL     1      46.902   6.975  15.454  0.00  0.00    +0.000 HD
BRANCH  20  23
ATOM     23  C   UNL     1      48.750   6.880  17.244  0.00  0.00    +0.000 A 
ATOM     24  C   UNL     1      48.491   8.090  17.873  0.00  0.00    +0.000 A 
ATOM     25  S   UNL     1      48.289   7.950  19.561  0.00  0.00    +0.000 S 
ATOM     26  C   UNL     1      48.573   6.272  19.511  0.00  0.00    +0.000 A 
ATOM     27  N   UNL     1      48.572   5.527  20.650  0.00  0.00    +0.000 NA
ATOM     28  C   UNL     1      48.815   4.272  20.465  0.00  0.00    +0.000 A 
ATOM     29  N   UNL     1      49.056   3.692  19.245  0.00  0.00    +0.000 N 
ATOM     30  C   UNL     1      49.055   4.399  18.066  0.00  0.00    +0.000 A 
ATOM     31  O   UNL     1      49.234   3.845  16.989  0.00  0.00    +0.000 OA
ATOM     32  C   UNL     1      48.795   5.822  18.220  0.00  0.00    +0.000 A 
ATOM     33  H   UNL     1      49.224   2.701  19.170  0.00  0.00    +0.000 HD
ENDBRANCH  20  23
ENDBRANCH  18  19
ENDBRANCH   4  18
TORSDOF 7
ENDMDL
MODEL 3
REMARK VINA RESULT:    -8.313      2.174      2.731
REMARK INTER + INTRA:         -12.340
REMARK INTER:                 -11.388
REMARK INTRA:                  -0.952
REMARK UNBOUND:                -0.868
REMARK  Name = 
REMARK  7 active torsions:
REMARK  status: ('A' for Active; 'I' for Inactive)
REMARK    1  A    between atoms: N_1  and  C_2
REMARK    2  A    between atoms: C_2  and  C_3
REMARK    3  A    between atoms: C_2  and  C_10
REMARK    4  A    between atoms: C_3  and  C_4
REMARK    5  A    between atoms: C_13  and  C_14
REMARK    6  A    between atoms: C_14  and  N_15
REMARK    7  A    between atoms: C_16  and  C_18
REMARK                            x       y       z     vdW  Elec       q    Type
REMARK                         _______ _______ _______ _____ _____    ______ ____
ROOT
ATOM      1  C   UNL     1      45.302   4.344  11.119  0.00  0.00    +0.000 C 
ATOM      2  C   UNL     1      45.285   3.946  12.612  0.00  0.00    +0.000 C 
ATOM      3  C   UNL     1      46.492   4.461  13.387  0.00  0.00    +0.000 C 
ATOM      4  C   UNL     1      46.650   5.978  13.253  0.00  0.00    +0.000 C 
ATOM      5  C   UNL     1      46.721   6.364  11.771  0.00  0.00    +0.000 C 
ATOM      6  C   UNL     1      45.505   5.868  10.990  0.00  0.00    +0.000 C 
ENDROOT
BRANCH   1   7
ATOM      7  C   UNL     1      44.008   3.850  10.394  0.00  0.00    +0.000 C 
BRANCH   7   8
ATOM      8  N   UNL     1      42.907   3.698  11.358  0.00  0.00    +0.000 NA
ATOM      9  H   UNL     1      42.935   4.429  12.065  0.00  0.00    +0.000 HD
ATOM     10  H   UNL     1      42.985   2.811  11.850  0.00  0.00    +0.000 HD
ENDBRANCH   7   8
BRANCH   7  11
ATOM     11  C   UNL     1      44.218   2.511   9.641  0.00  0.00    +0.000 C 
BRANCH  11  12
ATOM     12  C   UNL     1      45.285   2.523   8.572  0.00  0.00    +0.000 A 
ATOM     13  C   UNL     1      45.556   3.654   7.799  0.00  0.00    +0.000 A 
ATOM     14  C   UNL     1      46.574   3.612   6.848  0.00  0.00    +0.000 A 
ATOM     15  C   UNL     1      47.294   2.438   6.707  0.00  0.00    +0.000 A 
ATOM     16  N   UNL     1      47.070   1.327   7.437  0.00  0.00    +0.000 NA
ATOM     17  C   UNL     1      46.071   1.395   8.347  0.00  0.00    +0.000 A 
ENDBRANCH  11  12
ENDBRANCH   7  11
ENDBRANCH   1   7
BRANCH   4  18
ATOM     18  C   UNL     1      47.899   6.486  13.988  0.00  0.00    +0.000 C 
BRANCH  18  19
ATOM     19  N   UNL     1      47.840   6.279  15.419  0.00  0.00    +0.000 N 
ATOM     20  C   UNL     1      48.968   6.213  16.196  0.00  0.00    +0.000 C 
ATOM     21  O   UNL     1      50.097   6.338  15.724  0.00  0.00    +0.000 OA
ATOM     22  H   UNL     1      46.951   5.978  15.809  0.00  0.00    +0.000 HD
BRANCH  20  23
ATOM     23  C   UNL     1      48.762   6.046  17.638  0.00  0.00    +0.000 A 
ATOM     24  C   UNL     1      49.035   4.823  18.234  0.00  0.00    +0.000 A 
ATOM     25  S   UNL     1      48.752   4.806  19.915  0.00  0.00    +0.000 S 
ATOM     26  C   UNL     1      48.223   6.424  19.898  0.00  0.00    +0.000 A 
ATOM     27  N   UNL     1      47.798   7.035  21.037  0.00  0.00    +0.000 NA
ATOM     28  C   UNL     1      47.413   8.257  20.875  0.00  0.00    +0.000 A 
ATOM     29  N   UNL     1      47.418   8.928  19.677  0.00  0.00    +0.000 N 
ATOM     30  C   UNL     1      47.850   8.359  18.503  0.00  0.00    +0.000 A 
ATOM     31  O   UNL     1      47.879   8.996  17.458  0.00  0.00    +0.000 OA
ATOM     32  C   UNL     1      48.286   6.977  18.630  0.00  0.00    +0.000 A 
ATOM     33  H   UNL     1      47.118   9.888  19.623  0.00  0.00    +0.000 HD
ENDBRANCH  20  23
ENDBRANCH  18  19
ENDBRANCH   4  18
TORSDOF 7
ENDMDL
MODEL 4
REMARK VINA RESULT:    -7.134      2.760      8.083
REMARK INTER + INTRA:         -10.712
REMARK INTER:                  -9.411
REMARK INTRA:                  -1.301
REMARK UNBOUND:                -0.868
REMARK  Name = 
REMARK  7 active torsions:
REMARK  status: ('A' for Active; 'I' for Inactive)
REMARK    1  A    between atoms: N_1  and  C_2
REMARK    2  A    between atoms: C_2  and  C_3
REMARK    3  A    between atoms: C_2  and  C_10
REMARK    4  A    between atoms: C_3  and  C_4
REMARK    5  A    between atoms: C_13  and  C_14
REMARK    6  A    between atoms: C_14  and  N_15
REMARK    7  A    between atoms: C_16  and  C_18
REMARK                            x       y       z     vdW  Elec       q    Type
REMARK                         _______ _______ _______ _____ _____    ______ ____
ROOT
ATOM      1  C   UNL     1      48.893   7.592  15.964  0.00  0.00    +0.000 C 
ATOM      2  C   UNL     1      49.790   7.077  14.816  0.00  0.00    +0.000 C 
ATOM      3  C   UNL     1      49.056   6.949  13.487  0.00  0.00    +0.000 C 
ATOM      4  C   UNL     1      48.386   8.263  13.077  0.00  0.00    +0.000 C 
ATOM      5  C   UNL     1      47.454   8.743  14.196  0.00  0.00    +0.000 C 
ATOM      6  C   UNL     1      48.188   8.893  15.529  0.00  0.00    +0.000 C 
ENDROOT
BRANCH   1   7
ATOM      7  C   UNL     1      49.717   7.771  17.281  0.00  0.00    +0.000 C 
BRANCH   7   8
ATOM      8  N   UNL     1      51.158   7.666  17.002  0.00  0.00    +0.000 NA
ATOM      9  H   UNL     1      51.417   8.237  16.201  0.00  0.00    +0.000 HD
ATOM     10  H   UNL     1      51.407   6.707  16.772  0.00  0.00    +0.000 HD
ENDBRANCH   7   8
BRANCH   7  11
ATOM     11  C   UNL     1      49.331   6.739  18.373  0.00  0.00    +0.000 C 
BRANCH  11  12
ATOM     12  C   UNL     1      48.896   5.384  17.867  0.00  0.00    +0.000 A 
ATOM     13  C   UNL     1      47.551   5.025  17.753  0.00  0.00    +0.000 A 
ATOM     14  C   UNL     1      47.213   3.770  17.251  0.00  0.00    +0.000 A 
ATOM     15  C   UNL     1      48.234   2.915  16.872  0.00  0.00    +0.000 A 
ATOM     16  N   UNL     1      49.544   3.225  16.959  0.00  0.00    +0.000 NA
ATOM     17  C   UNL     1      49.842   4.447  17.456  0.00  0.00    +0.000 A 
ENDBRANCH  11  12
ENDBRANCH   7  11
ENDBRANCH   1   7
BRANCH   4  18
ATOM     18  C   UNL     1      47.599   8.115  11.766  0.00  0.00    +0.000 C 
BRANCH  18  19
ATOM     19  N   UNL     1      46.851   6.879  11.690  0.00  0.00    +0.000 N 
ATOM     20  C   UNL     1      45.488   6.856  11.537  0.00  0.00    +0.000 C 
ATOM     21  O   UNL     1      44.822   7.886  11.444  0.00  0.00    +0.000 OA
ATOM     22  H   UNL     1      47.334   6.026  11.957  0.00  0.00    +0.000 HD
BRANCH  20  23
ATOM     23  C   UNL     1      44.863   5.535  11.426  0.00  0.00    +0.000 A 
ATOM     24  C   UNL     1      44.094   5.050  12.475  0.00  0.00    +0.000 A 
ATOM     25  S   UNL     1      43.434   3.506  12.176  0.00  0.00    +0.000 S 
ATOM     26  C   UNL     1      44.181   3.420  10.649  0.00  0.00    +0.000 A 
ATOM     27  N   UNL     1      44.042   2.319   9.861  0.00  0.00    +0.000 NA
ATOM     28  C   UNL     1      44.673   2.386   8.737  0.00  0.00    +0.000 A 
ATOM     29  N   UNL     1      45.429   3.455   8.325  0.00  0.00    +0.000 N 
ATOM     30  C   UNL     1      45.589   4.594   9.078  0.00  0.00    +0.000 A 
ATOM     31  O   UNL     1      46.237   5.547   8.666  0.00  0.00    +0.000 OA
ATOM     32  C   UNL     1      44.904   4.566  10.361  0.00  0.00    +0.000 A 
ATOM     33  H   UNL     1      45.885   3.448   7.426  0.00  0.00    +0.000 HD
ENDBRANCH  20  23
ENDBRANCH  18  19
ENDBRANCH   4  18
TORSDOF 7
ENDMDL
MODEL 5
REMARK VINA RESULT:    -7.058      2.260      3.073
REMARK INTER + INTRA:         -10.607
REMARK INTER:                  -9.361
REMARK INTRA:                  -1.246
REMARK UNBOUND:                -0.868
REMARK  Name = 
REMARK  7 active torsions:
REMARK  status: ('A' for Active; 'I' for Inactive)
REMARK    1  A    between atoms: N_1  and  C_2
REMARK    2  A    between atoms: C_2  and  C_3
REMARK    3  A    between atoms: C_2  and  C_10
REMARK    4  A    between atoms: C_3  and  C_4
REMARK    5  A    between atoms: C_13  and  C_14
REMARK    6  A    between atoms: C_14  and  N_15
REMARK    7  A    between atoms: C_16  and  C_18
REMARK                            x       y       z     vdW  Elec       q    Type
REMARK                         _______ _______ _______ _____ _____    ______ ____
ROOT
ATOM      1  C   UNL     1      45.101   6.376  12.880  0.00  0.00    +0.000 C 
ATOM      2  C   UNL     1      45.479   7.518  11.911  0.00  0.00    +0.000 C 
ATOM      3  C   UNL     1      46.689   8.323  12.371  0.00  0.00    +0.000 C 
ATOM      4  C   UNL     1      47.905   7.428  12.623  0.00  0.00    +0.000 C 
ATOM      5  C   UNL     1      47.542   6.328  13.627  0.00  0.00    +0.000 C 
ATOM      6  C   UNL     1      46.341   5.503  13.164  0.00  0.00    +0.000 C 
ENDROOT
BRANCH   1   7
ATOM      7  C   UNL     1      43.900   5.544  12.321  0.00  0.00    +0.000 C 
BRANCH   7   8
ATOM      8  N   UNL     1      42.778   5.561  13.272  0.00  0.00    +0.000 NA
ATOM      9  H   UNL     1      43.109   5.482  14.230  0.00  0.00    +0.000 HD
ATOM     10  H   UNL     1      42.161   4.768  13.109  0.00  0.00    +0.000 HD
ENDBRANCH   7   8
BRANCH   7  11
ATOM     11  C   UNL     1      44.284   4.074  12.009  0.00  0.00    +0.000 C 
BRANCH  11  12
ATOM     12  C   UNL     1      44.629   3.782  10.568  0.00  0.00    +0.000 A 
ATOM     13  C   UNL     1      45.231   4.728   9.735  0.00  0.00    +0.000 A 
ATOM     14  C   UNL     1      45.551   4.388   8.423  0.00  0.00    +0.000 A 
ATOM     15  C   UNL     1      45.264   3.107   7.986  0.00  0.00    +0.000 A 
ATOM     16  N   UNL     1      44.690   2.161   8.758  0.00  0.00    +0.000 NA
ATOM     17  C   UNL     1      44.385   2.522  10.025  0.00  0.00    +0.000 A 
ENDBRANCH  11  12
ENDBRANCH   7  11
ENDBRANCH   1   7
BRANCH   4  18
ATOM     18  C   UNL     1      49.106   8.234  13.141  0.00  0.00    +0.000 C 
BRANCH  18  19
ATOM     19  N   UNL     1      49.992   7.457  13.981  0.00  0.00    +0.000 N 
ATOM     20  C   UNL     1      50.723   8.023  14.995  0.00  0.00    +0.000 C 
ATOM     21  O   UNL     1      50.657   9.223  15.258  0.00  0.00    +0.000 OA
ATOM     22  H   UNL     1      50.219   6.516  13.671  0.00  0.00    +0.000 HD
BRANCH  20  23
ATOM     23  C   UNL     1      51.544   7.111  15.797  0.00  0.00    +0.000 A 
ATOM     24  C   UNL     1      52.927   7.176  15.707  0.00  0.00    +0.000 A 
ATOM     25  S   UNL     1      53.727   6.055  16.714  0.00  0.00    +0.000 S 
ATOM     26  C   UNL     1      52.251   5.426  17.280  0.00  0.00    +0.000 A 
ATOM     27  N   UNL     1      52.223   4.397  18.170  0.00  0.00    +0.000 NA
ATOM     28  C   UNL     1      51.036   4.012  18.502  0.00  0.00    +0.000 A 
ATOM     29  N   UNL     1      49.872   4.564  18.029  0.00  0.00    +0.000 N 
ATOM     30  C   UNL     1      49.848   5.613  17.140  0.00  0.00    +0.000 A 
ATOM     31  O   UNL     1      48.793   6.110  16.768  0.00  0.00    +0.000 OA
ATOM     32  C   UNL     1      51.162   6.079  16.727  0.00  0.00    +0.000 A 
ATOM     33  H   UNL     1      48.976   4.225  18.342  0.00  0.00    +0.000 HD
ENDBRANCH  20  23
ENDBRANCH  18  19
ENDBRANCH   4  18
TORSDOF 7
ENDMDL
MODEL 6
REMARK VINA RESULT:    -7.003      3.738      8.686
REMARK INTER + INTRA:         -10.532
REMARK INTER:                  -9.303
REMARK INTRA:                  -1.229
REMARK UNBOUND:                -0.868
REMARK  Name = 
REMARK  7 active torsions:
REMARK  status: ('A' for Active; 'I' for Inactive)
REMARK    1  A    between atoms: N_1  and  C_2
REMARK    2  A    between atoms: C_2  and  C_3
REMARK    3  A    between atoms: C_2  and  C_10
REMARK    4  A    between atoms: C_3  and  C_4
REMARK    5  A    between atoms: C_13  and  C_14
REMARK    6  A    between atoms: C_14  and  N_15
REMARK    7  A    between atoms: C_16  and  C_18
REMARK                            x       y       z     vdW  Elec       q    Type
REMARK                         _______ _______ _______ _____ _____    ______ ____
ROOT
ATOM      1  C   UNL     1      51.524   3.666  17.500  0.00  0.00    +0.000 C 
ATOM      2  C   UNL     1      50.598   4.677  18.211  0.00  0.00    +0.000 C 
ATOM      3  C   UNL     1      49.175   4.678  17.665  0.00  0.00    +0.000 C 
ATOM      4  C   UNL     1      48.549   3.281  17.704  0.00  0.00    +0.000 C 
ATOM      5  C   UNL     1      49.445   2.290  16.951  0.00  0.00    +0.000 C 
ATOM      6  C   UNL     1      50.869   2.269  17.504  0.00  0.00    +0.000 C 
ENDROOT
BRANCH   1   7
ATOM      7  C   UNL     1      52.947   3.660  18.148  0.00  0.00    +0.000 C 
BRANCH   7   8
ATOM      8  N   UNL     1      52.896   3.064  19.492  0.00  0.00    +0.000 NA
ATOM      9  H   UNL     1      53.828   2.826  19.823  0.00  0.00    +0.000 HD
ATOM     10  H   UNL     1      52.361   2.198  19.478  0.00  0.00    +0.000 HD
ENDBRANCH   7   8
BRANCH   7  11
ATOM     11  C   UNL     1      53.569   5.078  18.240  0.00  0.00    +0.000 C 
BRANCH  11  12
ATOM     12  C   UNL     1      53.926   5.721  16.921  0.00  0.00    +0.000 A 
ATOM     13  C   UNL     1      53.181   6.768  16.374  0.00  0.00    +0.000 A 
ATOM     14  C   UNL     1      53.579   7.340  15.167  0.00  0.00    +0.000 A 
ATOM     15  C   UNL     1      54.715   6.848  14.548  0.00  0.00    +0.000 A 
ATOM     16  N   UNL     1      55.466   5.844  15.045  0.00  0.00    +0.000 NA
ATOM     17  C   UNL     1      55.052   5.304  16.214  0.00  0.00    +0.000 A 
ENDBRANCH  11  12
ENDBRANCH   7  11
ENDBRANCH   1   7
BRANCH   4  18
ATOM     18  C   UNL     1      47.137   3.274  17.101  0.00  0.00    +0.000 C 
BRANCH  18  19
ATOM     19  N   UNL     1      46.932   4.319  16.121  0.00  0.00    +0.000 N 
ATOM     20  C   UNL     1      47.082   4.100  14.775  0.00  0.00    +0.000 C 
ATOM     21  O   UNL     1      47.387   2.998  14.321  0.00  0.00    +0.000 OA
ATOM     22  H   UNL     1      46.875   5.274  16.464  0.00  0.00    +0.000 HD
BRANCH  20  23
ATOM     23  C   UNL     1      46.798   5.234  13.891  0.00  0.00    +0.000 A 
ATOM     24  C   UNL     1      47.744   6.239  13.740  0.00  0.00    +0.000 A 
ATOM     25  S   UNL     1      47.258   7.474  12.669  0.00  0.00    +0.000 S 
ATOM     26  C   UNL     1      45.755   6.723  12.396  0.00  0.00    +0.000 A 
ATOM     27  N   UNL     1      44.826   7.289  11.578  0.00  0.00    +0.000 NA
ATOM     28  C   UNL     1      43.728   6.618  11.474  0.00  0.00    +0.000 A 
ATOM     29  N   UNL     1      43.473   5.428  12.111  0.00  0.00    +0.000 N 
ATOM     30  C   UNL     1      44.383   4.811  12.936  0.00  0.00    +0.000 A 
ATOM     31  O   UNL     1      44.141   3.730  13.458  0.00  0.00    +0.000 OA
ATOM     32  C   UNL     1      45.636   5.533  13.095  0.00  0.00    +0.000 A 
ATOM     33  H   UNL     1      42.598   4.948  11.974  0.00  0.00    +0.000 HD
ENDBRANCH  20  23
ENDBRANCH  18  19
ENDBRANCH   4  18
TORSDOF 7
ENDMDL
MODEL 7
REMARK VINA RESULT:    -6.915      4.093      9.272
REMARK INTER + INTRA:         -10.410
REMARK INTER:                  -9.391
REMARK INTRA:                  -1.019
REMARK UNBOUND:                -0.868
REMARK  Name = 
REMARK  7 active torsions:
REMARK  status: ('A' for Active; 'I' for Inactive)
REMARK    1  A    between atoms: N_1  and  C_2
REMARK    2  A    between atoms: C_2  and  C_3
REMARK    3  A    between atoms: C_2  and  C_10
REMARK    4  A    between atoms: C_3  and  C_4
REMARK    5  A    between atoms: C_13  and  C_14
REMARK    6  A    between atoms: C_14  and  N_15
REMARK    7  A    between atoms: C_16  and  C_18
REMARK                            x       y       z     vdW  Elec       q    Type
REMARK                         _______ _______ _______ _____ _____    ______ ____
ROOT
ATOM      1  C   UNL     1      51.473   4.208  17.569  0.00  0.00    +0.000 C 
ATOM      2  C   UNL     1      50.421   5.264  17.975  0.00  0.00    +0.000 C 
ATOM      3  C   UNL     1      49.056   5.034  17.338  0.00  0.00    +0.000 C 
ATOM      4  C   UNL     1      48.523   3.628  17.627  0.00  0.00    +0.000 C 
ATOM      5  C   UNL     1      49.546   2.580  17.173  0.00  0.00    +0.000 C 
ATOM      6  C   UNL     1      50.913   2.793  17.823  0.00  0.00    +0.000 C 
ENDROOT
BRANCH   1   7
ATOM      7  C   UNL     1      52.828   4.456  18.308  0.00  0.00    +0.000 C 
BRANCH   7   8
ATOM      8  N   UNL     1      53.093   5.898  18.425  0.00  0.00    +0.000 NA
ATOM      9  H   UNL     1      52.226   6.423  18.517  0.00  0.00    +0.000 HD
ATOM     10  H   UNL     1      53.556   6.244  17.587  0.00  0.00    +0.000 HD
ENDBRANCH   7   8
BRANCH   7  11
ATOM     11  C   UNL     1      54.028   3.770  17.604  0.00  0.00    +0.000 C 
BRANCH  11  12
ATOM     12  C   UNL     1      54.350   2.372  18.077  0.00  0.00    +0.000 A 
ATOM     13  C   UNL     1      54.553   1.312  17.191  0.00  0.00    +0.000 A 
ATOM     14  C   UNL     1      54.877   0.051  17.687  0.00  0.00    +0.000 A 
ATOM     15  C   UNL     1      54.994  -0.107  19.058  0.00  0.00    +0.000 A 
ATOM     16  N   UNL     1      54.813   0.891  19.947  0.00  0.00    +0.000 NA
ATOM     17  C   UNL     1      54.493   2.102  19.436  0.00  0.00    +0.000 A 
ENDBRANCH  11  12
ENDBRANCH   7  11
ENDBRANCH   1   7
BRANCH   4  18
ATOM     18  C   UNL     1      47.174   3.378  16.936  0.00  0.00    +0.000 C 
BRANCH  18  19
ATOM     19  N   UNL     1      46.851   4.380  15.944  0.00  0.00    +0.000 N 
ATOM     20  C   UNL     1      46.947   4.135  14.598  0.00  0.00    +0.000 C 
ATOM     21  O   UNL     1      47.302   3.044  14.154  0.00  0.00    +0.000 OA
ATOM     22  H   UNL     1      46.746   5.338  16.267  0.00  0.00    +0.000 HD
BRANCH  20  23
ATOM     23  C   UNL     1      46.543   5.224  13.703  0.00  0.00    +0.000 A 
ATOM     24  C   UNL     1      47.413   6.280  13.471  0.00  0.00    +0.000 A 
ATOM     25  S   UNL     1      46.791   7.451  12.399  0.00  0.00    +0.000 S 
ATOM     26  C   UNL     1      45.325   6.602  12.234  0.00  0.00    +0.000 A 
ATOM     27  N   UNL     1      44.318   7.087  11.458  0.00  0.00    +0.000 NA
ATOM     28  C   UNL     1      43.259   6.347  11.435  0.00  0.00    +0.000 A 
ATOM     29  N   UNL     1      43.116   5.163  12.116  0.00  0.00    +0.000 N 
ATOM     30  C   UNL     1      44.108   4.627  12.902  0.00  0.00    +0.000 A 
ATOM     31  O   UNL     1      43.964   3.549  13.465  0.00  0.00    +0.000 OA
ATOM     32  C   UNL     1      45.320   5.428  12.969  0.00  0.00    +0.000 A 
ATOM     33  H   UNL     1      42.267   4.627  12.043  0.00  0.00    +0.000 HD
ENDBRANCH  20  23
ENDBRANCH  18  19
ENDBRANCH   4  18
TORSDOF 7
ENDMDL
MODEL 8
REMARK VINA RESULT:    -6.452      4.857      7.757
REMARK INTER + INTRA:          -9.771
REMARK INTER:                  -8.564
REMARK INTRA:                  -1.207
REMARK UNBOUND:                -0.868
REMARK  Name = 
REMARK  7 active torsions:
REMARK  status: ('A' for Active; 'I' for Inactive)
REMARK    1  A    between atoms: N_1  and  C_2
REMARK    2  A    between atoms: C_2  and  C_3
REMARK    3  A    between atoms: C_2  and  C_10
REMARK    4  A    between atoms: C_3  and  C_4
REMARK    5  A    between atoms: C_13  and  C_14
REMARK    6  A    between atoms: C_14  and  N_15
REMARK    7  A    between atoms: C_16  and  C_18
REMARK                            x       y       z     vdW  Elec       q    Type
REMARK                         _______ _______ _______ _____ _____    ______ ____
ROOT
ATOM      1  C   UNL     1      50.651   9.013  11.335  0.00  0.00    +0.000 C 
ATOM      2  C   UNL     1      49.851  10.023  12.188  0.00  0.00    +0.000 C 
ATOM      3  C   UNL     1      48.342   9.888  12.025  0.00  0.00    +0.000 C 
ATOM      4  C   UNL     1      47.863   8.464  12.317  0.00  0.00    +0.000 C 
ATOM      5  C   UNL     1      48.620   7.469  11.429  0.00  0.00    +0.000 C 
ATOM      6  C   UNL     1      50.134   7.584  11.601  0.00  0.00    +0.000 C 
ENDROOT
BRANCH   1   7
ATOM      7  C   UNL     1      52.186   9.152  11.598  0.00  0.00    +0.000 C 
BRANCH   7   8
ATOM      8  N   UNL     1      52.450  10.267  12.519  0.00  0.00    +0.000 NA
ATOM      9  H   UNL     1      53.156  10.895  12.142  0.00  0.00    +0.000 HD
ATOM     10  H   UNL     1      52.811   9.920  13.405  0.00  0.00    +0.000 HD
ENDBRANCH   7   8
BRANCH   7  11
ATOM     11  C   UNL     1      53.000   9.361  10.294  0.00  0.00    +0.000 C 
BRANCH  11  12
ATOM     12  C   UNL     1      53.157   8.140   9.419  0.00  0.00    +0.000 A 
ATOM     13  C   UNL     1      53.395   6.869   9.945  0.00  0.00    +0.000 A 
ATOM     14  C   UNL     1      53.500   5.776   9.087  0.00  0.00    +0.000 A 
ATOM     15  C   UNL     1      53.358   5.991   7.727  0.00  0.00    +0.000 A 
ATOM     16  N   UNL     1      53.121   7.200   7.179  0.00  0.00    +0.000 NA
ATOM     17  C   UNL     1      53.030   8.242   8.035  0.00  0.00    +0.000 A 
ENDBRANCH  11  12
ENDBRANCH   7  11
ENDBRANCH   1   7
BRANCH   4  18
ATOM     18  C   UNL     1      46.349   8.317  12.096  0.00  0.00    +0.000 C 
BRANCH  18  19
ATOM     19  N   UNL     1      45.937   6.947  11.879  0.00  0.00    +0.000 N 
ATOM     20  C   UNL     1      44.657   6.617  11.514  0.00  0.00    +0.000 C 
ATOM     21  O   UNL     1      43.786   7.468  11.337  0.00  0.00    +0.000 OA
ATOM     22  H   UNL     1      46.565   6.216  12.203  0.00  0.00    +0.000 HD
BRANCH  20  23
ATOM     23  C   UNL     1      44.388   5.195  11.282  0.00  0.00    +0.000 A 
ATOM     24  C   UNL     1      43.625   4.483  12.196  0.00  0.00    +0.000 A 
ATOM     25  S   UNL     1      43.400   2.847  11.767  0.00  0.00    +0.000 S 
ATOM     26  C   UNL     1      44.342   3.029  10.361  0.00  0.00    +0.000 A 
ATOM     27  N   UNL     1      44.577   1.975   9.534  0.00  0.00    +0.000 NA
ATOM     28  C   UNL     1      45.318   2.253   8.513  0.00  0.00    +0.000 A 
ATOM     29  N   UNL     1      45.843   3.492   8.241  0.00  0.00    +0.000 N 
ATOM     30  C   UNL     1      45.624   4.590   9.039  0.00  0.00    +0.000 A 
ATOM     31  O   UNL     1      46.073   5.691   8.747  0.00  0.00    +0.000 OA
ATOM     32  C   UNL     1      44.801   4.327  10.209  0.00  0.00    +0.000 A 
ATOM     33  H   UNL     1      46.403   3.644   7.417  0.00  0.00    +0.000 HD
ENDBRANCH  20  23
ENDBRANCH  18  19
ENDBRANCH   4  18
TORSDOF 7
ENDMDL
MODEL 9
REMARK VINA RESULT:    -6.256      4.751      6.419
REMARK INTER + INTRA:          -9.501
REMARK INTER:                  -8.348
REMARK INTRA:                  -1.153
REMARK UNBOUND:                -0.868
REMARK  Name = 
REMARK  7 active torsions:
REMARK  status: ('A' for Active; 'I' for Inactive)
REMARK    1  A    between atoms: N_1  and  C_2
REMARK    2  A    between atoms: C_2  and  C_3
REMARK    3  A    between atoms: C_2  and  C_10
REMARK    4  A    between atoms: C_3  and  C_4
REMARK    5  A    between atoms: C_13  and  C_14
REMARK    6  A    between atoms: C_14  and  N_15
REMARK    7  A    between atoms: C_16  and  C_18
REMARK                            x       y       z     vdW  Elec       q    Type
REMARK                         _______ _______ _______ _____ _____    ______ ____
ROOT
ATOM      1  C   UNL     1      45.032   6.529  12.758  0.00  0.00    +0.000 C 
ATOM      2  C   UNL     1      45.211   7.707  11.776  0.00  0.00    +0.000 C 
ATOM      3  C   UNL     1      46.348   8.647  12.160  0.00  0.00    +0.000 C 
ATOM      4  C   UNL     1      47.673   7.898  12.325  0.00  0.00    +0.000 C 
ATOM      5  C   UNL     1      47.506   6.763  13.342  0.00  0.00    +0.000 C 
ATOM      6  C   UNL     1      46.380   5.806  12.954  0.00  0.00    +0.000 C 
ENDROOT
BRANCH   1   7
ATOM      7  C   UNL     1      43.900   5.564  12.274  0.00  0.00    +0.000 C 
BRANCH   7   8
ATOM      8  N   UNL     1      42.810   5.515  13.260  0.00  0.00    +0.000 NA
ATOM      9  H   UNL     1      42.041   4.939  12.927  0.00  0.00    +0.000 HD
ATOM     10  H   UNL     1      42.431   6.447  13.418  0.00  0.00    +0.000 HD
ENDBRANCH   7   8
BRANCH   7  11
ATOM     11  C   UNL     1      44.415   4.125  12.007  0.00  0.00    +0.000 C 
BRANCH  11  12
ATOM     12  C   UNL     1      44.736   3.803  10.567  0.00  0.00    +0.000 A 
ATOM     13  C   UNL     1      45.276   4.749   9.692  0.00  0.00    +0.000 A 
ATOM     14  C   UNL     1      45.579   4.382   8.382  0.00  0.00    +0.000 A 
ATOM     15  C   UNL     1      45.337   3.076   7.991  0.00  0.00    +0.000 A 
ATOM     16  N   UNL     1      44.824   2.131   8.806  0.00  0.00    +0.000 NA
ATOM     17  C   UNL     1      44.534   2.518  10.069  0.00  0.00    +0.000 A 
ENDBRANCH  11  12
ENDBRANCH   7  11
ENDBRANCH   1   7
BRANCH   4  18
ATOM     18  C   UNL     1      48.805   8.837  12.769  0.00  0.00    +0.000 C 
BRANCH  18  19
ATOM     19  N   UNL     1      49.712   9.181  11.695  0.00  0.00    +0.000 N 
ATOM     20  C   UNL     1      50.874   9.876  11.913  0.00  0.00    +0.000 C 
ATOM     21  O   UNL     1      51.220  10.238  13.037  0.00  0.00    +0.000 OA
ATOM     22  H   UNL     1      49.368   9.075  10.745  0.00  0.00    +0.000 HD
BRANCH  20  23
ATOM     23  C   UNL     1      51.723  10.116  10.742  0.00  0.00    +0.000 A 
ATOM     24  C   UNL     1      52.035  11.418  10.376  0.00  0.00    +0.000 A 
ATOM     25  S   UNL     1      53.040  11.516   9.002  0.00  0.00    +0.000 S 
ATOM     26  C   UNL     1      53.065   9.822   8.831  0.00  0.00    +0.000 A 
ATOM     27  N   UNL     1      53.740   9.231   7.808  0.00  0.00    +0.000 NA
ATOM     28  C   UNL     1      53.662   7.942   7.794  0.00  0.00    +0.000 A 
ATOM     29  N   UNL     1      52.974   7.188   8.711  0.00  0.00    +0.000 N 
ATOM     30  C   UNL     1      52.288   7.738   9.768  0.00  0.00    +0.000 A 
ATOM     31  O   UNL     1      51.716   7.036  10.592  0.00  0.00    +0.000 OA
ATOM     32  C   UNL     1      52.336   9.190   9.825  0.00  0.00    +0.000 A 
ATOM     33  H   UNL     1      52.966   6.183   8.650  0.00  0.00    +0.000 HD
ENDBRANCH  20  23
ENDBRANCH  18  19
ENDBRANCH   4  18
TORSDOF 7
ENDMDL
