MODEL 1
REMARK VINA RESULT:    -8.176      0.000      0.000
REMARK INTER + INTRA:         -11.272
REMARK INTER:                 -10.566
REMARK INTRA:                  -0.707
REMARK UNBOUND:                -0.707
REMARK  Name = 
REMARK  5 active torsions:
REMARK  status: ('A' for Active; 'I' for Inactive)
REMARK    1  A    between atoms: C_2  and  C_3
REMARK    2  A    between atoms: C_6  and  N_7
REMARK    3  A    between atoms: N_7  and  C_8
REMARK    4  A    between atoms: C_8  and  C_9
REMARK    5  A    between atoms: C_13  and  C_14
REMARK                            x       y       z     vdW  Elec       q    Type
REMARK                         _______ _______ _______ _____ _____    ______ ____
ROOT
ATOM      1  C   UNL     1      43.876   5.012  11.185  0.00  0.00    +0.000 C 
ATOM      2  C   UNL     1      42.621   5.067  12.044  0.00  0.00    +0.000 C 
ATOM      3  C   UNL     1      42.969   6.219  11.161  0.00  0.00    +0.000 C 
ENDROOT
BRANCH   1   4
ATOM      4  C   UNL     1      45.247   5.130  11.831  0.00  0.00    +0.000 A 
ATOM      5  C   UNL     1      45.654   4.285  12.875  0.00  0.00    +0.000 A 
ATOM      6  C   UNL     1      46.809   4.555  13.607  0.00  0.00    +0.000 A 
ATOM      7  C   UNL     1      47.569   5.689  13.317  0.00  0.00    +0.000 A 
ATOM      8  C   UNL     1      47.212   6.557  12.273  0.00  0.00    +0.000 A 
ATOM      9  C   UNL     1      46.073   6.226  11.519  0.00  0.00    +0.000 A 
BRANCH   8  10
ATOM     10  C   UNL     1      47.930   7.821  12.034  0.00  0.00    +0.000 A 
ATOM     11  C   UNL     1      49.283   7.837  11.660  0.00  0.00    +0.000 A 
ATOM     12  C   UNL     1      49.958   9.042  11.478  0.00  0.00    +0.000 A 
ATOM     13  C   UNL     1      49.264  10.220  11.688  0.00  0.00    +0.000 A 
ATOM     14  N   UNL     1      47.969  10.264  12.061  0.00  0.00    +0.000 NA
ATOM     15  C   UNL     1      47.340   9.073  12.219  0.00  0.00    +0.000 A 
ENDBRANCH   8  10
ENDBRANCH   1   4
BRANCH   1  16
ATOM     16  N   UNL     1      43.823   3.905  10.210  0.00  0.00    +0.000 N 
ATOM     17  H   UNL     1      43.359   3.076  10.581  0.00  0.00    +0.000 HD
BRANCH  16  21
ATOM     18  C   UNL     1      46.641   2.623   7.496  0.00  0.00    +0.000 A 
ATOM     19  N   UNL     1      46.374   3.940   7.492  0.00  0.00    +0.000 NA
ATOM     20  C   UNL     1      45.474   4.364   8.410  0.00  0.00    +0.000 A 
ATOM     21  C   UNL     1      44.853   3.547   9.331  0.00  0.00    +0.000 A 
ATOM     22  C   UNL     1      45.219   2.212   9.222  0.00  0.00    +0.000 A 
ATOM     23  N   UNL     1      46.107   1.712   8.336  0.00  0.00    +0.000 NA
BRANCH  18  25
ATOM     24  N   UNL     1      48.278   1.708   5.686  0.00  0.00    +0.000 NA
ATOM     25  C   UNL     1      47.543   2.119   6.490  0.00  0.00    +0.000 C 
ENDBRANCH  18  25
ENDBRANCH  16  21
ENDBRANCH   1  16
TORSDOF 5
ENDMDL
MODEL 2
REMARK VINA RESULT:    -7.859      2.911      6.886
REMARK INTER + INTRA:         -10.863
REMARK INTER:                  -9.998
REMARK INTRA:                  -0.865
REMARK UNBOUND:                -0.707
REMARK  Name = 
REMARK  5 active torsions:
REMARK  status: ('A' for Active; 'I' for Inactive)
REMARK    1  A    between atoms: C_2  and  C_3
REMARK    2  A    between atoms: C_6  and  N_7
REMARK    3  A    between atoms: N_7  and  C_8
REMARK    4  A    between atoms: C_8  and  C_9
REMARK    5  A    between atoms: C_13  and  C_14
REMARK                            x       y       z     vdW  Elec       q    Type
REMARK                         _______ _______ _______ _____ _____    ______ ____
ROOT
ATOM      1  C   UNL     1      46.090   7.292  12.167  0.00  0.00    +0.000 C 
ATOM      2  C   UNL     1      46.332   8.729  11.728  0.00  0.00    +0.000 C 
ATOM      3  C   UNL     1      45.503   8.451  12.937  0.00  0.00    +0.000 C 
ENDROOT
BRANCH   1   4
ATOM      4  C   UNL     1      45.164   6.396  11.360  0.00  0.00    +0.000 A 
ATOM      5  C   UNL     1      43.815   6.217  11.702  0.00  0.00    +0.000 A 
ATOM      6  C   UNL     1      43.048   5.222  11.100  0.00  0.00    +0.000 A 
ATOM      7  C   UNL     1      43.626   4.373  10.153  0.00  0.00    +0.000 A 
ATOM      8  C   UNL     1      44.967   4.521   9.767  0.00  0.00    +0.000 A 
ATOM      9  C   UNL     1      45.697   5.569  10.353  0.00  0.00    +0.000 A 
BRANCH   8  10
ATOM     10  C   UNL     1      45.626   3.559   8.865  0.00  0.00    +0.000 A 
ATOM     11  C   UNL     1      46.293   3.981   7.704  0.00  0.00    +0.000 A 
ATOM     12  C   UNL     1      46.874   3.055   6.841  0.00  0.00    +0.000 A 
ATOM     13  C   UNL     1      46.765   1.711   7.152  0.00  0.00    +0.000 A 
ATOM     14  N   UNL     1      46.125   1.249   8.244  0.00  0.00    +0.000 NA
ATOM     15  C   UNL     1      45.580   2.178   9.069  0.00  0.00    +0.000 A 
ENDBRANCH   8  10
ENDBRANCH   1   4
BRANCH   1  16
ATOM     16  N   UNL     1      47.349   6.607  12.516  0.00  0.00    +0.000 N 
ATOM     17  H   UNL     1      47.868   6.295  11.695  0.00  0.00    +0.000 HD
BRANCH  16  21
ATOM     18  C   UNL     1      47.705   4.210  15.845  0.00  0.00    +0.000 A 
ATOM     19  N   UNL     1      47.090   3.661  14.784  0.00  0.00    +0.000 NA
ATOM     20  C   UNL     1      47.007   4.438  13.679  0.00  0.00    +0.000 A 
ATOM     21  C   UNL     1      47.520   5.713  13.582  0.00  0.00    +0.000 A 
ATOM     22  C   UNL     1      48.126   6.157  14.748  0.00  0.00    +0.000 A 
ATOM     23  N   UNL     1      48.250   5.445  15.889  0.00  0.00    +0.000 NA
BRANCH  18  25
ATOM     24  N   UNL     1      47.800   2.830  18.054  0.00  0.00    +0.000 NA
ATOM     25  C   UNL     1      47.756   3.441  17.064  0.00  0.00    +0.000 C 
ENDBRANCH  18  25
ENDBRANCH  16  21
ENDBRANCH   1  16
TORSDOF 5
ENDMDL
MODEL 3
REMARK VINA RESULT:    -7.344      2.219      3.761
REMARK INTER + INTRA:         -10.197
REMARK INTER:                  -9.846
REMARK INTRA:                  -0.351
REMARK UNBOUND:                -0.707
REMARK  Name = 
REMARK  5 active torsions:
REMARK  status: ('A' for Active; 'I' for Inactive)
REMARK    1  A    between atoms: C_2  and  C_3
REMARK    2  A    between atoms: C_6  and  N_7
REMARK    3  A    between atoms: N_7  and  C_8
REMARK    4  A    between atoms: C_8  and  C_9
REMARK    5  A    between atoms: C_13  and  C_14
REMARK                            x       y       z     vdW  Elec       q    Type
REMARK                         _______ _______ _______ _____ _____    ______ ____
ROOT
ATOM      1  C   UNL     1      44.124   5.057  11.739  0.00  0.00    +0.000 C 
ATOM      2  C   UNL     1      42.821   5.104  12.525  0.00  0.00    +0.000 C 
ATOM      3  C   UNL     1      42.986   5.950  11.307  0.00  0.00    +0.000 C 
ENDROOT
BRANCH   1   4
ATOM      4  C   UNL     1      45.382   5.688  12.313  0.00  0.00    +0.000 A 
ATOM      5  C   UNL     1      46.203   6.537  11.555  0.00  0.00    +0.000 A 
ATOM      6  C   UNL     1      47.463   6.915  12.015  0.00  0.00    +0.000 A 
ATOM      7  C   UNL     1      47.931   6.435  13.240  0.00  0.00    +0.000 A 
ATOM      8  C   UNL     1      47.142   5.596  14.041  0.00  0.00    +0.000 A 
ATOM      9  C   UNL     1      45.855   5.278  13.574  0.00  0.00    +0.000 A 
BRANCH   8  10
ATOM     10  C   UNL     1      47.666   4.981  15.274  0.00  0.00    +0.000 A 
ATOM     11  C   UNL     1      47.297   3.683  15.661  0.00  0.00    +0.000 A 
ATOM     12  C   UNL     1      47.770   3.134  16.851  0.00  0.00    +0.000 A 
ATOM     13  C   UNL     1      48.600   3.904  17.644  0.00  0.00    +0.000 A 
ATOM     14  N   UNL     1      48.976   5.160  17.329  0.00  0.00    +0.000 NA
ATOM     15  C   UNL     1      48.507   5.660  16.159  0.00  0.00    +0.000 A 
ENDBRANCH   8  10
ENDBRANCH   1   4
BRANCH   1  16
ATOM     16  N   UNL     1      44.386   3.712  11.194  0.00  0.00    +0.000 N 
ATOM     17  H   UNL     1      44.812   3.086  11.878  0.00  0.00    +0.000 HD
BRANCH  16  21
ATOM     18  C   UNL     1      46.037   3.094   7.473  0.00  0.00    +0.000 A 
ATOM     19  N   UNL     1      45.746   1.989   8.182  0.00  0.00    +0.000 NA
ATOM     20  C   UNL     1      45.170   2.195   9.389  0.00  0.00    +0.000 A 
ATOM     21  C   UNL     1      44.858   3.434   9.904  0.00  0.00    +0.000 A 
ATOM     22  C   UNL     1      45.214   4.486   9.072  0.00  0.00    +0.000 A 
ATOM     23  N   UNL     1      45.790   4.364   7.857  0.00  0.00    +0.000 NA
BRANCH  18  25
ATOM     24  N   UNL     1      47.250   2.786   5.187  0.00  0.00    +0.000 NA
ATOM     25  C   UNL     1      46.713   2.923   6.211  0.00  0.00    +0.000 C 
ENDBRANCH  18  25
ENDBRANCH  16  21
ENDBRANCH   1  16
TORSDOF 5
ENDMDL
MODEL 4
REMARK VINA RESULT:    -6.790      1.413      2.349
REMARK INTER + INTRA:          -9.482
REMARK INTER:                  -9.780
REMARK INTRA:                   0.298
REMARK UNBOUND:                -0.707
REMARK  Name = 
REMARK  5 active torsions:
REMARK  status: ('A' for Active; 'I' for Inactive)
REMARK    1  A    between atoms: C_2  and  C_3
REMARK    2  A    between atoms: C_6  and  N_7
REMARK    3  A    between atoms: N_7  and  C_8
REMARK    4  A    between atoms: C_8  and  C_9
REMARK    5  A    between atoms: C_13  and  C_14
REMARK                            x       y       z     vdW  Elec       q    Type
REMARK                         _______ _______ _______ _____ _____    ______ ____
ROOT
ATOM      1  C   UNL     1      44.220   4.377  11.686  0.00  0.00    +0.000 C 
ATOM      2  C   UNL     1      45.036   3.239  12.282  0.00  0.00    +0.000 C 
ATOM      3  C   UNL     1      43.717   3.601  12.879  0.00  0.00    +0.000 C 
ENDROOT
BRANCH   1   4
ATOM      4  C   UNL     1      44.670   5.817  11.877  0.00  0.00    +0.000 A 
ATOM      5  C   UNL     1      43.927   6.901  11.387  0.00  0.00    +0.000 A 
ATOM      6  C   UNL     1      44.464   8.187  11.364  0.00  0.00    +0.000 A 
ATOM      7  C   UNL     1      45.766   8.407  11.819  0.00  0.00    +0.000 A 
ATOM      8  C   UNL     1      46.544   7.358  12.332  0.00  0.00    +0.000 A 
ATOM      9  C   UNL     1      45.953   6.084  12.392  0.00  0.00    +0.000 A 
BRANCH   8  10
ATOM     10  C   UNL     1      47.958   7.547  12.699  0.00  0.00    +0.000 A 
ATOM     11  C   UNL     1      48.870   8.153  11.820  0.00  0.00    +0.000 A 
ATOM     12  C   UNL     1      50.213   8.286  12.168  0.00  0.00    +0.000 A 
ATOM     13  C   UNL     1      50.624   7.795  13.393  0.00  0.00    +0.000 A 
ATOM     14  N   UNL     1      49.797   7.192  14.270  0.00  0.00    +0.000 NA
ATOM     15  C   UNL     1      48.495   7.089  13.905  0.00  0.00    +0.000 A 
ENDBRANCH   8  10
ENDBRANCH   1   4
BRANCH   1  16
ATOM     16  N   UNL     1      43.839   4.104  10.288  0.00  0.00    +0.000 N 
ATOM     17  H   UNL     1      42.885   3.754  10.201  0.00  0.00    +0.000 HD
BRANCH  16  21
ATOM     18  C   UNL     1      46.529   2.604   7.555  0.00  0.00    +0.000 A 
ATOM     19  N   UNL     1      45.872   1.696   8.297  0.00  0.00    +0.000 NA
ATOM     20  C   UNL     1      44.962   2.190   9.168  0.00  0.00    +0.000 A 
ATOM     21  C   UNL     1      44.669   3.529   9.316  0.00  0.00    +0.000 A 
ATOM     22  C   UNL     1      45.421   4.355   8.492  0.00  0.00    +0.000 A 
ATOM     23  N   UNL     1      46.345   3.940   7.598  0.00  0.00    +0.000 NA
BRANCH  18  25
ATOM     24  N   UNL     1      48.375   1.732   5.935  0.00  0.00    +0.000 NA
ATOM     25  C   UNL     1      47.555   2.125   6.662  0.00  0.00    +0.000 C 
ENDBRANCH  18  25
ENDBRANCH  16  21
ENDBRANCH   1  16
TORSDOF 5
ENDMDL
MODEL 5
REMARK VINA RESULT:    -6.754      2.623      7.190
REMARK INTER + INTRA:          -9.436
REMARK INTER:                  -8.757
REMARK INTRA:                  -0.678
REMARK UNBOUND:                -0.707
REMARK  Name = 
REMARK  5 active torsions:
REMARK  status: ('A' for Active; 'I' for Inactive)
REMARK    1  A    between atoms: C_2  and  C_3
REMARK    2  A    between atoms: C_6  and  N_7
REMARK    3  A    between atoms: N_7  and  C_8
REMARK    4  A    between atoms: C_8  and  C_9
REMARK    5  A    between atoms: C_13  and  C_14
REMARK                            x       y       z     vdW  Elec       q    Type
REMARK                         _______ _______ _______ _____ _____    ______ ____
ROOT
ATOM      1  C   UNL     1      45.969   7.285  11.844  0.00  0.00    +0.000 C 
ATOM      2  C   UNL     1      45.816   8.766  11.526  0.00  0.00    +0.000 C 
ATOM      3  C   UNL     1      45.340   8.232  12.836  0.00  0.00    +0.000 C 
ENDROOT
BRANCH   1   4
ATOM      4  C   UNL     1      45.092   6.261  11.141  0.00  0.00    +0.000 A 
ATOM      5  C   UNL     1      43.813   5.927  11.611  0.00  0.00    +0.000 A 
ATOM      6  C   UNL     1      43.124   4.829  11.099  0.00  0.00    +0.000 A 
ATOM      7  C   UNL     1      43.714   4.034  10.114  0.00  0.00    +0.000 A 
ATOM      8  C   UNL     1      44.985   4.335   9.601  0.00  0.00    +0.000 A 
ATOM      9  C   UNL     1      45.629   5.480  10.099  0.00  0.00    +0.000 A 
BRANCH   8  10
ATOM     10  C   UNL     1      45.673   3.439   8.654  0.00  0.00    +0.000 A 
ATOM     11  C   UNL     1      45.660   2.046   8.822  0.00  0.00    +0.000 A 
ATOM     12  C   UNL     1      46.351   1.216   7.941  0.00  0.00    +0.000 A 
ATOM     13  C   UNL     1      47.058   1.803   6.907  0.00  0.00    +0.000 A 
ATOM     14  N   UNL     1      47.117   3.134   6.706  0.00  0.00    +0.000 NA
ATOM     15  C   UNL     1      46.425   3.912   7.575  0.00  0.00    +0.000 A 
ENDBRANCH   8  10
ENDBRANCH   1   4
BRANCH   1  16
ATOM     16  N   UNL     1      47.386   6.873  11.861  0.00  0.00    +0.000 N 
ATOM     17  H   UNL     1      47.584   6.116  11.206  0.00  0.00    +0.000 HD
BRANCH  16  21
ATOM     18  C   UNL     1      49.715   6.879  15.256  0.00  0.00    +0.000 A 
ATOM     19  N   UNL     1      48.644   6.067  15.276  0.00  0.00    +0.000 NA
ATOM     20  C   UNL     1      47.901   6.040  14.145  0.00  0.00    +0.000 A 
ATOM     21  C   UNL     1      48.186   6.761  13.005  0.00  0.00    +0.000 A 
ATOM     22  C   UNL     1      49.317   7.558  13.123  0.00  0.00    +0.000 A 
ATOM     23  N   UNL     1      50.109   7.640  14.214  0.00  0.00    +0.000 NA
BRANCH  18  25
ATOM     24  N   UNL     1      51.133   7.083  17.433  0.00  0.00    +0.000 NA
ATOM     25  C   UNL     1      50.495   6.989  16.464  0.00  0.00    +0.000 C 
ENDBRANCH  18  25
ENDBRANCH  16  21
ENDBRANCH   1  16
TORSDOF 5
ENDMDL
MODEL 6
REMARK VINA RESULT:    -6.294      5.632      8.358
REMARK INTER + INTRA:          -8.840
REMARK INTER:                  -8.379
REMARK INTRA:                  -0.461
REMARK UNBOUND:                -0.707
REMARK  Name = 
REMARK  5 active torsions:
REMARK  status: ('A' for Active; 'I' for Inactive)
REMARK    1  A    between atoms: C_2  and  C_3
REMARK    2  A    between atoms: C_6  and  N_7
REMARK    3  A    between atoms: N_7  and  C_8
REMARK    4  A    between atoms: C_8  and  C_9
REMARK    5  A    between atoms: C_13  and  C_14
REMARK                            x       y       z     vdW  Elec       q    Type
REMARK                         _______ _______ _______ _____ _____    ______ ____
ROOT
ATOM      1  C   UNL     1      48.143   4.449  16.995  0.00  0.00    +0.000 C 
ATOM      2  C   UNL     1      47.210   4.768  18.155  0.00  0.00    +0.000 C 
ATOM      3  C   UNL     1      47.163   3.422  17.511  0.00  0.00    +0.000 C 
ENDROOT
BRANCH   1   4
ATOM      4  C   UNL     1      47.904   5.078  15.632  0.00  0.00    +0.000 A 
ATOM      5  C   UNL     1      48.528   6.272  15.242  0.00  0.00    +0.000 A 
ATOM      6  C   UNL     1      48.124   6.953  14.095  0.00  0.00    +0.000 A 
ATOM      7  C   UNL     1      47.071   6.455  13.325  0.00  0.00    +0.000 A 
ATOM      8  C   UNL     1      46.424   5.257  13.664  0.00  0.00    +0.000 A 
ATOM      9  C   UNL     1      46.893   4.567  14.795  0.00  0.00    +0.000 A 
BRANCH   8  10
ATOM     10  C   UNL     1      45.234   4.783  12.935  0.00  0.00    +0.000 A 
ATOM     11  C   UNL     1      45.274   3.631  12.134  0.00  0.00    +0.000 A 
ATOM     12  C   UNL     1      44.151   3.222  11.419  0.00  0.00    +0.000 A 
ATOM     13  C   UNL     1      43.002   3.986  11.510  0.00  0.00    +0.000 A 
ATOM     14  N   UNL     1      42.910   5.108  12.252  0.00  0.00    +0.000 NA
ATOM     15  C   UNL     1      44.019   5.472  12.943  0.00  0.00    +0.000 A 
ENDBRANCH   8  10
ENDBRANCH   1   4
BRANCH   1  16
ATOM     16  N   UNL     1      49.560   4.529  17.395  0.00  0.00    +0.000 N 
ATOM     17  H   UNL     1      50.009   5.390  17.082  0.00  0.00    +0.000 HD
BRANCH  16  21
ATOM     18  C   UNL     1      52.273   1.447  17.700  0.00  0.00    +0.000 A 
ATOM     19  N   UNL     1      51.085   1.137  17.154  0.00  0.00    +0.000 NA
ATOM     20  C   UNL     1      50.209   2.160  17.022  0.00  0.00    +0.000 A 
ATOM     21  C   UNL     1      50.469   3.463  17.387  0.00  0.00    +0.000 A 
ATOM     22  C   UNL     1      51.730   3.642  17.938  0.00  0.00    +0.000 A 
ATOM     23  N   UNL     1      52.659   2.676  18.103  0.00  0.00    +0.000 NA
BRANCH  18  25
ATOM     24  N   UNL     1      53.959  -0.499  18.102  0.00  0.00    +0.000 NA
ATOM     25  C   UNL     1      53.210   0.374  17.921  0.00  0.00    +0.000 C 
ENDBRANCH  18  25
ENDBRANCH  16  21
ENDBRANCH   1  16
TORSDOF 5
ENDMDL
MODEL 7
REMARK VINA RESULT:    -5.975      3.217      6.115
REMARK INTER + INTRA:          -8.428
REMARK INTER:                  -8.142
REMARK INTRA:                  -0.286
REMARK UNBOUND:                -0.707
REMARK  Name = 
REMARK  5 active torsions:
REMARK  status: ('A' for Active; 'I' for Inactive)
REMARK    1  A    between atoms: C_2  and  C_3
REMARK    2  A    between atoms: C_6  and  N_7
REMARK    3  A    between atoms: N_7  and  C_8
REMARK    4  A    between atoms: C_8  and  C_9
REMARK    5  A    between atoms: C_13  and  C_14
REMARK                            x       y       z     vdW  Elec       q    Type
REMARK                         _______ _______ _______ _____ _____    ______ ____
ROOT
ATOM      1  C   UNL     1      48.262   7.808  12.570  0.00  0.00    +0.000 C 
ATOM      2  C   UNL     1      48.629   9.042  11.758  0.00  0.00    +0.000 C 
ATOM      3  C   UNL     1      49.090   7.694  11.312  0.00  0.00    +0.000 C 
ENDROOT
BRANCH   1   4
ATOM      4  C   UNL     1      48.925   7.558  13.915  0.00  0.00    +0.000 A 
ATOM      5  C   UNL     1      50.186   8.082  14.234  0.00  0.00    +0.000 A 
ATOM      6  C   UNL     1      50.875   7.655  15.367  0.00  0.00    +0.000 A 
ATOM      7  C   UNL     1      50.317   6.679  16.196  0.00  0.00    +0.000 A 
ATOM      8  C   UNL     1      49.052   6.135  15.928  0.00  0.00    +0.000 A 
ATOM      9  C   UNL     1      48.360   6.627  14.808  0.00  0.00    +0.000 A 
BRANCH   8  10
ATOM     10  C   UNL     1      48.504   5.018  16.719  0.00  0.00    +0.000 A 
ATOM     11  C   UNL     1      49.205   4.476  17.807  0.00  0.00    +0.000 A 
ATOM     12  C   UNL     1      48.690   3.394  18.517  0.00  0.00    +0.000 A 
ATOM     13  C   UNL     1      47.479   2.861  18.113  0.00  0.00    +0.000 A 
ATOM     14  N   UNL     1      46.770   3.332  17.068  0.00  0.00    +0.000 NA
ATOM     15  C   UNL     1      47.294   4.393  16.406  0.00  0.00    +0.000 A 
ENDBRANCH   8  10
ENDBRANCH   1   4
BRANCH   1  16
ATOM     16  N   UNL     1      46.802   7.608  12.632  0.00  0.00    +0.000 N 
ATOM     17  H   UNL     1      46.378   8.055  13.445  0.00  0.00    +0.000 HD
BRANCH  16  21
ATOM     18  C   UNL     1      44.567   4.236  11.868  0.00  0.00    +0.000 A 
ATOM     19  N   UNL     1      45.031   4.894  10.792  0.00  0.00    +0.000 NA
ATOM     20  C   UNL     1      45.796   5.981  11.047  0.00  0.00    +0.000 A 
ATOM     21  C   UNL     1      46.129   6.423  12.309  0.00  0.00    +0.000 A 
ATOM     22  C   UNL     1      45.582   5.654  13.327  0.00  0.00    +0.000 A 
ATOM     23  N   UNL     1      44.811   4.558  13.156  0.00  0.00    +0.000 NA
BRANCH  18  25
ATOM     24  N   UNL     1      42.995   2.197  11.461  0.00  0.00    +0.000 NA
ATOM     25  C   UNL     1      43.693   3.112  11.641  0.00  0.00    +0.000 C 
ENDBRANCH  18  25
ENDBRANCH  16  21
ENDBRANCH   1  16
TORSDOF 5
ENDMDL
MODEL 8
REMARK VINA RESULT:    -5.958      3.364      8.162
REMARK INTER + INTRA:          -8.407
REMARK INTER:                  -7.520
REMARK INTRA:                  -0.887
REMARK UNBOUND:                -0.707
REMARK  Name = 
REMARK  5 active torsions:
REMARK  status: ('A' for Active; 'I' for Inactive)
REMARK    1  A    between atoms: C_2  and  C_3
REMARK    2  A    between atoms: C_6  and  N_7
REMARK    3  A    between atoms: N_7  and  C_8
REMARK    4  A    between atoms: C_8  and  C_9
REMARK    5  A    between atoms: C_13  and  C_14
REMARK                            x       y       z     vdW  Elec       q    Type
REMARK                         _______ _______ _______ _____ _____    ______ ____
ROOT
ATOM      1  C   UNL     1      49.230   7.862  12.442  0.00  0.00    +0.000 C 
ATOM      2  C   UNL     1      50.275   7.653  11.355  0.00  0.00    +0.000 C 
ATOM      3  C   UNL     1      50.124   8.993  11.995  0.00  0.00    +0.000 C 
ENDROOT
BRANCH   1   4
ATOM      4  C   UNL     1      47.754   7.900  12.080  0.00  0.00    +0.000 A 
ATOM      5  C   UNL     1      47.008   9.087  12.116  0.00  0.00    +0.000 A 
ATOM      6  C   UNL     1      45.618   9.066  12.011  0.00  0.00    +0.000 A 
ATOM      7  C   UNL     1      44.948   7.847  11.883  0.00  0.00    +0.000 A 
ATOM      8  C   UNL     1      45.650   6.634  11.828  0.00  0.00    +0.000 A 
ATOM      9  C   UNL     1      47.053   6.695  11.881  0.00  0.00    +0.000 A 
BRANCH   8  10
ATOM     10  C   UNL     1      44.955   5.334  11.819  0.00  0.00    +0.000 A 
ATOM     11  C   UNL     1      44.723   4.634  10.624  0.00  0.00    +0.000 A 
ATOM     12  C   UNL     1      44.027   3.427  10.630  0.00  0.00    +0.000 A 
ATOM     13  C   UNL     1      43.562   2.945  11.840  0.00  0.00    +0.000 A 
ATOM     14  N   UNL     1      43.744   3.580  13.015  0.00  0.00    +0.000 NA
ATOM     15  C   UNL     1      44.434   4.747  12.975  0.00  0.00    +0.000 A 
ENDBRANCH   8  10
ENDBRANCH   1   4
BRANCH   1  16
ATOM     16  N   UNL     1      49.484   7.007  13.617  0.00  0.00    +0.000 N 
ATOM     17  H   UNL     1      49.362   6.014  13.415  0.00  0.00    +0.000 HD
BRANCH  16  21
ATOM     18  C   UNL     1      48.606   7.663  17.585  0.00  0.00    +0.000 A 
ATOM     19  N   UNL     1      48.803   8.760  16.834  0.00  0.00    +0.000 NA
ATOM     20  C   UNL     1      49.055   8.542  15.523  0.00  0.00    +0.000 A 
ATOM     21  C   UNL     1      49.099   7.298  14.932  0.00  0.00    +0.000 A 
ATOM     22  C   UNL     1      48.881   6.255  15.821  0.00  0.00    +0.000 A 
ATOM     23  N   UNL     1      48.623   6.389  17.140  0.00  0.00    +0.000 NA
BRANCH  18  25
ATOM     24  N   UNL     1      48.239   7.985  20.145  0.00  0.00    +0.000 NA
ATOM     25  C   UNL     1      48.400   7.847  19.001  0.00  0.00    +0.000 C 
ENDBRANCH  18  25
ENDBRANCH  16  21
ENDBRANCH   1  16
TORSDOF 5
ENDMDL
