MODEL 1
REMARK VINA RESULT:    -8.374      0.000      0.000
REMARK INTER + INTRA:         -10.355
REMARK INTER:                  -9.843
REMARK INTRA:                  -0.513
REMARK UNBOUND:                -0.513
REMARK  Name = 
REMARK  3 active torsions:
REMARK  status: ('A' for Active; 'I' for Inactive)
REMARK    1  A    between atoms: C_2  and  C_4
REMARK    2  A    between atoms: N_8  and  C_9
REMARK    3  A    between atoms: C_9  and  C_10
REMARK                            x       y       z     vdW  Elec       q    Type
REMARK                         _______ _______ _______ _____ _____    ______ ____
ROOT
ATOM      1  C   UNL     1      46.484   2.645   7.506  0.00  0.00    +0.000 A 
ATOM      2  C   UNL     1      46.198   3.994   7.693  0.00  0.00    +0.000 A 
ATOM      3  C   UNL     1      45.326   4.373   8.719  0.00  0.00    +0.000 A 
ATOM      4  C   UNL     1      44.752   3.404   9.529  0.00  0.00    +0.000 A 
ATOM      5  N   UNL     1      43.815   3.694  10.519  0.00  0.00    +0.000 N 
ATOM      6  N   UNL     1      45.005   2.090   9.339  0.00  0.00    +0.000 NA
ATOM      7  C   UNL     1      45.855   1.736   8.335  0.00  0.00    +0.000 A 
ATOM      8  H   UNL     1      43.596   2.811  10.983  0.00  0.00    +0.000 HD
ENDROOT
BRANCH   1  10
ATOM      9  N   UNL     1      47.721   3.019   5.449  0.00  0.00    +0.000 N 
ATOM     10  C   UNL     1      47.399   2.151   6.459  0.00  0.00    +0.000 C 
ATOM     11  O   UNL     1      47.882   1.031   6.502  0.00  0.00    +0.000 OA
ATOM     12  H   UNL     1      48.424   2.704   4.797  0.00  0.00    +0.000 HD
ATOM     13  H   UNL     1      47.543   4.013   5.508  0.00  0.00    +0.000 HD
ENDBRANCH   1  10
BRANCH   5  14
ATOM     14  C   UNL     1      43.846   4.873  11.408  0.00  0.00    +0.000 C 
ATOM     15  C   UNL     1      42.525   5.096  12.145  0.00  0.00    +0.000 C 
ATOM     16  C   UNL     1      43.021   6.135  11.199  0.00  0.00    +0.000 C 
BRANCH  14  17
ATOM     17  C   UNL     1      45.150   5.067  12.204  0.00  0.00    +0.000 A 
ATOM     18  C   UNL     1      45.998   6.141  11.914  0.00  0.00    +0.000 A 
ATOM     19  C   UNL     1      47.085   6.414  12.741  0.00  0.00    +0.000 A 
ATOM     20  C   UNL     1      47.325   5.596  13.834  0.00  0.00    +0.000 A 
ATOM     21  C   UNL     1      46.476   4.523  14.039  0.00  0.00    +0.000 A 
ATOM     22  N   UNL     1      45.410   4.243  13.255  0.00  0.00    +0.000 NA
ENDBRANCH  14  17
ENDBRANCH   5  14
TORSDOF 3
ENDMDL
MODEL 2
REMARK VINA RESULT:    -6.384      3.188      6.142
REMARK INTER + INTRA:          -8.016
REMARK INTER:                  -7.735
REMARK INTRA:                  -0.281
REMARK UNBOUND:                -0.513
REMARK  Name = 
REMARK  3 active torsions:
REMARK  status: ('A' for Active; 'I' for Inactive)
REMARK    1  A    between atoms: C_2  and  C_4
REMARK    2  A    between atoms: N_8  and  C_9
REMARK    3  A    between atoms: C_9  and  C_10
REMARK                            x       y       z     vdW  Elec       q    Type
REMARK                         _______ _______ _______ _____ _____    ______ ____
ROOT
ATOM      1  C   UNL     1      48.407   6.798  13.508  0.00  0.00    +0.000 A 
ATOM      2  C   UNL     1      47.481   5.850  13.933  0.00  0.00    +0.000 A 
ATOM      3  C   UNL     1      46.414   5.512  13.094  0.00  0.00    +0.000 A 
ATOM      4  C   UNL     1      46.286   6.130  11.859  0.00  0.00    +0.000 A 
ATOM      5  N   UNL     1      45.210   5.907  11.002  0.00  0.00    +0.000 N 
ATOM      6  N   UNL     1      47.166   7.069  11.449  0.00  0.00    +0.000 NA
ATOM      7  C   UNL     1      48.200   7.389  12.276  0.00  0.00    +0.000 A 
ATOM      8  H   UNL     1      45.391   6.449  10.156  0.00  0.00    +0.000 HD
ENDROOT
BRANCH   1  10
ATOM      9  N   UNL     1      50.222   8.354  13.940  0.00  0.00    +0.000 N 
ATOM     10  C   UNL     1      49.570   7.210  14.318  0.00  0.00    +0.000 C 
ATOM     11  O   UNL     1      49.921   6.585  15.306  0.00  0.00    +0.000 OA
ATOM     12  H   UNL     1      50.950   8.678  14.561  0.00  0.00    +0.000 HD
ATOM     13  H   UNL     1      49.822   9.020  13.292  0.00  0.00    +0.000 HD
ENDBRANCH   1  10
BRANCH   5  14
ATOM     14  C   UNL     1      44.552   4.603  10.775  0.00  0.00    +0.000 C 
ATOM     15  C   UNL     1      43.040   4.656  10.989  0.00  0.00    +0.000 C 
ATOM     16  C   UNL     1      43.873   3.777  11.858  0.00  0.00    +0.000 C 
BRANCH  14  17
ATOM     17  C   UNL     1      45.076   3.799   9.570  0.00  0.00    +0.000 A 
ATOM     18  C   UNL     1      45.694   4.457   8.501  0.00  0.00    +0.000 A 
ATOM     19  C   UNL     1      46.317   3.721   7.496  0.00  0.00    +0.000 A 
ATOM     20  C   UNL     1      46.295   2.336   7.559  0.00  0.00    +0.000 A 
ATOM     21  C   UNL     1      45.627   1.747   8.618  0.00  0.00    +0.000 A 
ATOM     22  N   UNL     1      45.022   2.440   9.609  0.00  0.00    +0.000 NA
ENDBRANCH  14  17
ENDBRANCH   5  14
TORSDOF 3
ENDMDL
MODEL 3
REMARK VINA RESULT:    -6.063      3.062      6.326
REMARK INTER + INTRA:          -7.639
REMARK INTER:                  -8.050
REMARK INTRA:                   0.411
REMARK UNBOUND:                -0.513
REMARK  Name = 
REMARK  3 active torsions:
REMARK  status: ('A' for Active; 'I' for Inactive)
REMARK    1  A    between atoms: C_2  and  C_4
REMARK    2  A    between atoms: N_8  and  C_9
REMARK    3  A    between atoms: C_9  and  C_10
REMARK                            x       y       z     vdW  Elec       q    Type
REMARK                         _______ _______ _______ _____ _____    ______ ____
ROOT
ATOM      1  C   UNL     1      47.935   5.790  14.764  0.00  0.00    +0.000 A 
ATOM      2  C   UNL     1      47.566   6.095  13.457  0.00  0.00    +0.000 A 
ATOM      3  C   UNL     1      46.769   5.194  12.743  0.00  0.00    +0.000 A 
ATOM      4  C   UNL     1      46.366   4.008  13.339  0.00  0.00    +0.000 A 
ATOM      5  N   UNL     1      45.640   3.025  12.668  0.00  0.00    +0.000 N 
ATOM      6  N   UNL     1      46.741   3.692  14.598  0.00  0.00    +0.000 NA
ATOM      7  C   UNL     1      47.518   4.578  15.281  0.00  0.00    +0.000 A 
ATOM      8  H   UNL     1      45.445   2.289  13.349  0.00  0.00    +0.000 HD
ENDROOT
BRANCH   1  10
ATOM      9  N   UNL     1      48.124   7.707  16.244  0.00  0.00    +0.000 N 
ATOM     10  C   UNL     1      48.763   6.682  15.598  0.00  0.00    +0.000 C 
ATOM     11  O   UNL     1      49.962   6.499  15.742  0.00  0.00    +0.000 OA
ATOM     12  H   UNL     1      48.683   8.245  16.889  0.00  0.00    +0.000 HD
ATOM     13  H   UNL     1      47.118   7.742  16.346  0.00  0.00    +0.000 HD
ENDBRANCH   1  10
BRANCH   5  14
ATOM     14  C   UNL     1      44.557   3.275  11.695  0.00  0.00    +0.000 C 
ATOM     15  C   UNL     1      43.540   4.303  12.189  0.00  0.00    +0.000 C 
ATOM     16  C   UNL     1      43.096   2.908  11.913  0.00  0.00    +0.000 C 
BRANCH  14  17
ATOM     17  C   UNL     1      44.999   3.358  10.221  0.00  0.00    +0.000 A 
ATOM     18  C   UNL     1      45.268   4.601   9.637  0.00  0.00    +0.000 A 
ATOM     19  C   UNL     1      45.829   4.665   8.363  0.00  0.00    +0.000 A 
ATOM     20  C   UNL     1      46.092   3.488   7.681  0.00  0.00    +0.000 A 
ATOM     21  C   UNL     1      45.760   2.294   8.296  0.00  0.00    +0.000 A 
ATOM     22  N   UNL     1      45.222   2.206   9.534  0.00  0.00    +0.000 NA
ENDBRANCH  14  17
ENDBRANCH   5  14
TORSDOF 3
ENDMDL
MODEL 4
REMARK VINA RESULT:    -5.538      4.653      7.686
REMARK INTER + INTRA:          -7.022
REMARK INTER:                  -7.277
REMARK INTRA:                   0.255
REMARK UNBOUND:                -0.513
REMARK  Name = 
REMARK  3 active torsions:
REMARK  status: ('A' for Active; 'I' for Inactive)
REMARK    1  A    between atoms: C_2  and  C_4
REMARK    2  A    between atoms: N_8  and  C_9
REMARK    3  A    between atoms: C_9  and  C_10
REMARK                            x       y       z     vdW  Elec       q    Type
REMARK                         _______ _______ _______ _____ _____    ______ ____
ROOT
ATOM      1  C   UNL     1      48.379   4.328  17.584  0.00  0.00    +0.000 A 
ATOM      2  C   UNL     1      48.502   5.581  16.991  0.00  0.00    +0.000 A 
ATOM      3  C   UNL     1      48.097   5.753  15.663  0.00  0.00    +0.000 A 
ATOM      4  C   UNL     1      47.589   4.675  14.953  0.00  0.00    +0.000 A 
ATOM      5  N   UNL     1      47.240   4.746  13.605  0.00  0.00    +0.000 N 
ATOM      6  N   UNL     1      47.490   3.449  15.512  0.00  0.00    +0.000 NA
ATOM      7  C   UNL     1      47.889   3.296  16.806  0.00  0.00    +0.000 A 
ATOM      8  H   UNL     1      46.859   3.832  13.352  0.00  0.00    +0.000 HD
ENDROOT
BRANCH   1  10
ATOM      9  N   UNL     1      48.251   2.928  19.565  0.00  0.00    +0.000 N 
ATOM     10  C   UNL     1      48.768   4.053  18.980  0.00  0.00    +0.000 C 
ATOM     11  O   UNL     1      49.547   4.773  19.585  0.00  0.00    +0.000 OA
ATOM     12  H   UNL     1      48.605   2.699  20.482  0.00  0.00    +0.000 HD
ATOM     13  H   UNL     1      47.810   2.191  19.031  0.00  0.00    +0.000 HD
ENDBRANCH   1  10
BRANCH   5  14
ATOM     14  C   UNL     1      46.583   5.896  12.951  0.00  0.00    +0.000 C 
ATOM     15  C   UNL     1      47.542   6.717  12.090  0.00  0.00    +0.000 C 
ATOM     16  C   UNL     1      46.881   7.355  13.263  0.00  0.00    +0.000 C 
BRANCH  14  17
ATOM     17  C   UNL     1      45.175   5.621  12.389  0.00  0.00    +0.000 A 
ATOM     18  C   UNL     1      45.013   5.256  11.048  0.00  0.00    +0.000 A 
ATOM     19  C   UNL     1      43.765   4.843  10.584  0.00  0.00    +0.000 A 
ATOM     20  C   UNL     1      42.692   4.822  11.461  0.00  0.00    +0.000 A 
ATOM     21  C   UNL     1      42.909   5.240  12.762  0.00  0.00    +0.000 A 
ATOM     22  N   UNL     1      44.111   5.637  13.237  0.00  0.00    +0.000 NA
ENDBRANCH  14  17
ENDBRANCH   5  14
TORSDOF 3
ENDMDL
MODEL 5
REMARK VINA RESULT:    -5.489      3.094      5.290
REMARK INTER + INTRA:          -6.964
REMARK INTER:                  -7.041
REMARK INTRA:                   0.077
REMARK UNBOUND:                -0.513
REMARK  Name = 
REMARK  3 active torsions:
REMARK  status: ('A' for Active; 'I' for Inactive)
REMARK    1  A    between atoms: C_2  and  C_4
REMARK    2  A    between atoms: N_8  and  C_9
REMARK    3  A    between atoms: C_9  and  C_10
REMARK                            x       y       z     vdW  Elec       q    Type
REMARK                         _______ _______ _______ _____ _____    ______ ____
ROOT
ATOM      1  C   UNL     1      44.828   4.983  11.057  0.00  0.00    +0.000 A 
ATOM      2  C   UNL     1      45.841   5.806  10.575  0.00  0.00    +0.000 A 
ATOM      3  C   UNL     1      46.550   6.614  11.469  0.00  0.00    +0.000 A 
ATOM      4  C   UNL     1      46.230   6.594  12.819  0.00  0.00    +0.000 A 
ATOM      5  N   UNL     1      46.835   7.426  13.759  0.00  0.00    +0.000 N 
ATOM      6  N   UNL     1      45.231   5.817  13.292  0.00  0.00    +0.000 NA
ATOM      7  C   UNL     1      44.548   5.036  12.409  0.00  0.00    +0.000 A 
ATOM      8  H   UNL     1      46.445   7.173  14.669  0.00  0.00    +0.000 HD
ENDROOT
BRANCH   1  10
ATOM      9  N   UNL     1      44.035   4.354   8.848  0.00  0.00    +0.000 N 
ATOM     10  C   UNL     1      44.034   4.089  10.192  0.00  0.00    +0.000 C 
ATOM     11  O   UNL     1      43.428   3.129  10.642  0.00  0.00    +0.000 OA
ATOM     12  H   UNL     1      43.572   3.677   8.260  0.00  0.00    +0.000 HD
ATOM     13  H   UNL     1      44.707   4.975   8.417  0.00  0.00    +0.000 HD
ENDBRANCH   1  10
BRANCH   5  14
ATOM     14  C   UNL     1      48.264   7.802  13.778  0.00  0.00    +0.000 C 
ATOM     15  C   UNL     1      48.485   9.306  13.620  0.00  0.00    +0.000 C 
ATOM     16  C   UNL     1      49.023   8.374  12.589  0.00  0.00    +0.000 C 
BRANCH  14  17
ATOM     17  C   UNL     1      49.130   7.056  14.810  0.00  0.00    +0.000 A 
ATOM     18  C   UNL     1      50.464   7.426  15.008  0.00  0.00    +0.000 A 
ATOM     19  C   UNL     1      51.194   6.870  16.055  0.00  0.00    +0.000 A 
ATOM     20  C   UNL     1      50.589   5.933  16.879  0.00  0.00    +0.000 A 
ATOM     21  C   UNL     1      49.282   5.576  16.601  0.00  0.00    +0.000 A 
ATOM     22  N   UNL     1      48.550   6.108  15.596  0.00  0.00    +0.000 NA
ENDBRANCH  14  17
ENDBRANCH   5  14
TORSDOF 3
ENDMDL
