MODEL 1
REMARK VINA RESULT:    -8.419      0.000      0.000
REMARK INTER + INTRA:         -13.690
REMARK INTER:                 -12.357
REMARK INTRA:                  -1.333
REMARK UNBOUND:                -1.333
REMARK  Name = 
REMARK  9 active torsions:
REMARK  status: ('A' for Active; 'I' for Inactive)
REMARK    1  A    between atoms: C_1  and  O_2
REMARK    2  A    between atoms: O_2  and  C_3
REMARK    3  A    between atoms: C_10  and  C_11
REMARK    4  A    between atoms: N_13  and  C_14
REMARK    5  A    between atoms: C_14  and  C_15
REMARK    6  A    between atoms: C_18  and  C_19
REMARK    7  A    between atoms: C_19  and  N_20
REMARK    8  A    between atoms: N_20  and  C_21
REMARK    9  A    between atoms: C_21  and  C_22
REMARK                            x       y       z     vdW  Elec       q    Type
REMARK                         _______ _______ _______ _____ _____    ______ ____
ROOT
ATOM      1  C   UNL     1      48.050   6.866  13.140  0.00  0.00    +0.000 C 
ENDROOT
BRANCH   1   2
ATOM      2  C   UNL     1      46.918   6.033  12.590  0.00  0.00    +0.000 A 
ATOM      3  C   UNL     1      46.350   6.333  11.343  0.00  0.00    +0.000 A 
ATOM      4  C   UNL     1      45.282   5.578  10.841  0.00  0.00    +0.000 A 
ATOM      5  C   UNL     1      44.746   4.512  11.578  0.00  0.00    +0.000 A 
ATOM      6  C   UNL     1      45.306   4.220  12.829  0.00  0.00    +0.000 A 
ATOM      7  C   UNL     1      46.376   4.974  13.330  0.00  0.00    +0.000 A 
BRANCH   5   8
ATOM      8  C   UNL     1      43.589   3.698  11.037  0.00  0.00    +0.000 C 
BRANCH   8   9
ATOM      9  N   UNL     1      43.812   3.340   9.638  0.00  0.00    +0.000 NA
ATOM     10  H   UNL     1      44.291   4.109   9.169  0.00  0.00    +0.000 HD
BRANCH   9  11
ATOM     11  C   UNL     1      44.618   2.129   9.499  0.00  0.00    +0.000 C 
BRANCH  11  12
ATOM     12  C   UNL     1      45.620   2.277   8.375  0.00  0.00    +0.000 A 
ATOM     13  C   UNL     1      45.757   3.486   7.680  0.00  0.00    +0.000 A 
ATOM     14  C   UNL     1      46.714   3.618   6.668  0.00  0.00    +0.000 A 
ATOM     15  C   UNL     1      47.537   2.542   6.338  0.00  0.00    +0.000 A 
ATOM     16  C   UNL     1      47.398   1.330   7.010  0.00  0.00    +0.000 A 
ATOM     17  C   UNL     1      46.447   1.199   8.022  0.00  0.00    +0.000 A 
ENDBRANCH  11  12
ENDBRANCH   9  11
ENDBRANCH   8   9
ENDBRANCH   5   8
ENDBRANCH   1   2
BRANCH   1  20
ATOM     18  C   UNL     1      49.076   6.968  15.391  0.00  0.00    +0.000 C 
ATOM     19  O   UNL     1      50.212   6.893  14.925  0.00  0.00    +0.000 OA
ATOM     20  N   UNL     1      47.973   6.964  14.579  0.00  0.00    +0.000 N 
ATOM     21  H   UNL     1      47.048   7.025  14.983  0.00  0.00    +0.000 HD
BRANCH  18  29
ATOM     22  C   UNL     1      48.830   4.597  17.874  0.00  0.00    +0.000 A 
ATOM     23  N   UNL     1      48.758   3.893  19.020  0.00  0.00    +0.000 NA
ATOM     24  C   UNL     1      48.596   4.573  20.160  0.00  0.00    +0.000 A 
ATOM     25  N   UNL     1      48.479   5.891  20.298  0.00  0.00    +0.000 NA
ATOM     26  C   UNL     1      48.568   6.551  19.132  0.00  0.00    +0.000 A 
ATOM     27  S   UNL     1      48.430   8.245  19.112  0.00  0.00    +0.000 S 
ATOM     28  C   UNL     1      48.651   8.292  17.426  0.00  0.00    +0.000 A 
ATOM     29  C   UNL     1      48.843   7.044  16.846  0.00  0.00    +0.000 A 
ATOM     30  C   UNL     1      48.761   6.001  17.868  0.00  0.00    +0.000 A 
BRANCH  22  32
ATOM     31  C   UNL     1      47.847   3.214  16.260  0.00  0.00    +0.000 C 
ATOM     32  O   UNL     1      49.016   3.899  16.700  0.00  0.00    +0.000 OA
ENDBRANCH  22  32
ENDBRANCH  18  29
ENDBRANCH   1  20
TORSDOF 8
ENDMDL
MODEL 2
REMARK VINA RESULT:    -7.563      1.510      3.008
REMARK INTER + INTRA:         -12.433
REMARK INTER:                 -11.175
REMARK INTRA:                  -1.258
REMARK UNBOUND:                -1.333
REMARK  Name = 
REMARK  9 active torsions:
REMARK  status: ('A' for Active; 'I' for Inactive)
REMARK    1  A    between atoms: C_1  and  O_2
REMARK    2  A    between atoms: O_2  and  C_3
REMARK    3  A    between atoms: C_10  and  C_11
REMARK    4  A    between atoms: N_13  and  C_14
REMARK    5  A    between atoms: C_14  and  C_15
REMARK    6  A    between atoms: C_18  and  C_19
REMARK    7  A    between atoms: C_19  and  N_20
REMARK    8  A    between atoms: N_20  and  C_21
REMARK    9  A    between atoms: C_21  and  C_22
REMARK                            x       y       z     vdW  Elec       q    Type
REMARK                         _______ _______ _______ _____ _____    ______ ____
ROOT
ATOM      1  C   UNL     1      47.512   3.749  15.071  0.00  0.00    +0.000 C 
ENDROOT
BRANCH   1   2
ATOM      2  C   UNL     1      46.763   4.242  13.858  0.00  0.00    +0.000 A 
ATOM      3  C   UNL     1      45.957   3.372  13.111  0.00  0.00    +0.000 A 
ATOM      4  C   UNL     1      45.282   3.821  11.969  0.00  0.00    +0.000 A 
ATOM      5  C   UNL     1      45.404   5.149  11.537  0.00  0.00    +0.000 A 
ATOM      6  C   UNL     1      46.219   6.016  12.276  0.00  0.00    +0.000 A 
ATOM      7  C   UNL     1      46.893   5.568  13.421  0.00  0.00    +0.000 A 
BRANCH   5   8
ATOM      8  C   UNL     1      44.676   5.634  10.300  0.00  0.00    +0.000 C 
BRANCH   8   9
ATOM      9  N   UNL     1      45.348   5.176   9.086  0.00  0.00    +0.000 NA
ATOM     10  H   UNL     1      46.307   4.916   9.314  0.00  0.00    +0.000 HD
BRANCH   9  11
ATOM     11  C   UNL     1      44.679   4.025   8.484  0.00  0.00    +0.000 C 
BRANCH  11  12
ATOM     12  C   UNL     1      45.689   3.065   7.896  0.00  0.00    +0.000 A 
ATOM     13  C   UNL     1      45.822   1.759   8.387  0.00  0.00    +0.000 A 
ATOM     14  C   UNL     1      46.735   0.872   7.807  0.00  0.00    +0.000 A 
ATOM     15  C   UNL     1      47.526   1.283   6.736  0.00  0.00    +0.000 A 
ATOM     16  C   UNL     1      47.416   2.584   6.250  0.00  0.00    +0.000 A 
ATOM     17  C   UNL     1      46.503   3.468   6.825  0.00  0.00    +0.000 A 
ENDBRANCH  11  12
ENDBRANCH   9  11
ENDBRANCH   8   9
ENDBRANCH   5   8
ENDBRANCH   1   2
BRANCH   1  20
ATOM     18  C   UNL     1      48.597   4.863  16.997  0.00  0.00    +0.000 C 
ATOM     19  O   UNL     1      49.545   4.079  16.973  0.00  0.00    +0.000 OA
ATOM     20  N   UNL     1      47.570   4.763  16.097  0.00  0.00    +0.000 N 
ATOM     21  H   UNL     1      46.800   5.418  16.135  0.00  0.00    +0.000 HD
BRANCH  18  29
ATOM     22  C   UNL     1      48.514   8.298  16.802  0.00  0.00    +0.000 A 
ATOM     23  N   UNL     1      48.401   9.626  17.000  0.00  0.00    +0.000 NA
ATOM     24  C   UNL     1      48.256  10.059  18.255  0.00  0.00    +0.000 A 
ATOM     25  N   UNL     1      48.225   9.320  19.361  0.00  0.00    +0.000 NA
ATOM     26  C   UNL     1      48.330   8.004  19.116  0.00  0.00    +0.000 A 
ATOM     27  S   UNL     1      48.320   6.904  20.410  0.00  0.00    +0.000 S 
ATOM     28  C   UNL     1      48.460   5.580  19.352  0.00  0.00    +0.000 A 
ATOM     29  C   UNL     1      48.507   5.933  18.008  0.00  0.00    +0.000 A 
ATOM     30  C   UNL     1      48.460   7.389  17.874  0.00  0.00    +0.000 A 
BRANCH  22  32
ATOM     31  C   UNL     1      50.000   7.750  15.078  0.00  0.00    +0.000 C 
ATOM     32  O   UNL     1      48.644   7.848  15.507  0.00  0.00    +0.000 OA
ENDBRANCH  22  32
ENDBRANCH  18  29
ENDBRANCH   1  20
TORSDOF 8
ENDMDL
MODEL 3
REMARK VINA RESULT:    -7.524      1.793      2.014
REMARK INTER + INTRA:         -12.375
REMARK INTER:                 -11.134
REMARK INTRA:                  -1.241
REMARK UNBOUND:                -1.333
REMARK  Name = 
REMARK  9 active torsions:
REMARK  status: ('A' for Active; 'I' for Inactive)
REMARK    1  A    between atoms: C_1  and  O_2
REMARK    2  A    between atoms: O_2  and  C_3
REMARK    3  A    between atoms: C_10  and  C_11
REMARK    4  A    between atoms: N_13  and  C_14
REMARK    5  A    between atoms: C_14  and  C_15
REMARK    6  A    between atoms: C_18  and  C_19
REMARK    7  A    between atoms: C_19  and  N_20
REMARK    8  A    between atoms: N_20  and  C_21
REMARK    9  A    between atoms: C_21  and  C_22
REMARK                            x       y       z     vdW  Elec       q    Type
REMARK                         _______ _______ _______ _____ _____    ______ ____
ROOT
ATOM      1  C   UNL     1      47.452   7.657  13.551  0.00  0.00    +0.000 C 
ENDROOT
BRANCH   1   2
ATOM      2  C   UNL     1      46.556   6.555  13.040  0.00  0.00    +0.000 A 
ATOM      3  C   UNL     1      45.422   6.853  12.272  0.00  0.00    +0.000 A 
ATOM      4  C   UNL     1      44.574   5.834  11.819  0.00  0.00    +0.000 A 
ATOM      5  C   UNL     1      44.832   4.492  12.132  0.00  0.00    +0.000 A 
ATOM      6  C   UNL     1      45.959   4.195  12.909  0.00  0.00    +0.000 A 
ATOM      7  C   UNL     1      46.810   5.214  13.360  0.00  0.00    +0.000 A 
BRANCH   5   8
ATOM      8  C   UNL     1      43.914   3.390  11.644  0.00  0.00    +0.000 C 
BRANCH   8   9
ATOM      9  N   UNL     1      44.569   2.579  10.622  0.00  0.00    +0.000 NA
ATOM     10  H   UNL     1      44.193   1.632  10.656  0.00  0.00    +0.000 HD
BRANCH   9  11
ATOM     11  C   UNL     1      44.371   3.117   9.278  0.00  0.00    +0.000 C 
BRANCH  11  12
ATOM     12  C   UNL     1      45.486   2.677   8.354  0.00  0.00    +0.000 A 
ATOM     13  C   UNL     1      46.117   3.585   7.494  0.00  0.00    +0.000 A 
ATOM     14  C   UNL     1      47.172   3.171   6.674  0.00  0.00    +0.000 A 
ATOM     15  C   UNL     1      47.600   1.844   6.702  0.00  0.00    +0.000 A 
ATOM     16  C   UNL     1      46.969   0.928   7.540  0.00  0.00    +0.000 A 
ATOM     17  C   UNL     1      45.920   1.342   8.361  0.00  0.00    +0.000 A 
ENDBRANCH  11  12
ENDBRANCH   9  11
ENDBRANCH   8   9
ENDBRANCH   5   8
ENDBRANCH   1   2
BRANCH   1  20
ATOM     18  C   UNL     1      49.183   7.822  15.313  0.00  0.00    +0.000 C 
ATOM     19  O   UNL     1      48.836   8.965  15.609  0.00  0.00    +0.000 OA
ATOM     20  N   UNL     1      48.550   7.122  14.321  0.00  0.00    +0.000 N 
ATOM     21  H   UNL     1      48.851   6.184  14.094  0.00  0.00    +0.000 HD
BRANCH  18  29
ATOM     22  C   UNL     1      49.493   4.847  17.015  0.00  0.00    +0.000 A 
ATOM     23  N   UNL     1      49.894   3.734  17.659  0.00  0.00    +0.000 NA
ATOM     24  C   UNL     1      51.181   3.645  18.007  0.00  0.00    +0.000 A 
ATOM     25  N   UNL     1      52.133   4.552  17.803  0.00  0.00    +0.000 NA
ATOM     26  C   UNL     1      51.690   5.639  17.150  0.00  0.00    +0.000 A 
ATOM     27  S   UNL     1      52.764   6.911  16.809  0.00  0.00    +0.000 S 
ATOM     28  C   UNL     1      51.542   7.799  16.027  0.00  0.00    +0.000 A 
ATOM     29  C   UNL     1      50.309   7.158  15.995  0.00  0.00    +0.000 A 
ATOM     30  C   UNL     1      50.396   5.877  16.696  0.00  0.00    +0.000 A 
BRANCH  22  32
ATOM     31  C   UNL     1      47.268   4.467  17.639  0.00  0.00    +0.000 C 
ATOM     32  O   UNL     1      48.170   4.933  16.639  0.00  0.00    +0.000 OA
ENDBRANCH  22  32
ENDBRANCH  18  29
ENDBRANCH   1  20
TORSDOF 8
ENDMDL
MODEL 4
REMARK VINA RESULT:    -6.942      4.048      5.838
REMARK INTER + INTRA:         -11.522
REMARK INTER:                 -10.417
REMARK INTRA:                  -1.104
REMARK UNBOUND:                -1.333
REMARK  Name = 
REMARK  9 active torsions:
REMARK  status: ('A' for Active; 'I' for Inactive)
REMARK    1  A    between atoms: C_1  and  O_2
REMARK    2  A    between atoms: O_2  and  C_3
REMARK    3  A    between atoms: C_10  and  C_11
REMARK    4  A    between atoms: N_13  and  C_14
REMARK    5  A    between atoms: C_14  and  C_15
REMARK    6  A    between atoms: C_18  and  C_19
REMARK    7  A    between atoms: C_19  and  N_20
REMARK    8  A    between atoms: N_20  and  C_21
REMARK    9  A    between atoms: C_21  and  C_22
REMARK                            x       y       z     vdW  Elec       q    Type
REMARK                         _______ _______ _______ _____ _____    ______ ____
ROOT
ATOM      1  C   UNL     1      48.462   7.235  13.832  0.00  0.00    +0.000 C 
ENDROOT
BRANCH   1   2
ATOM      2  C   UNL     1      47.395   6.378  13.194  0.00  0.00    +0.000 A 
ATOM      3  C   UNL     1      46.907   5.238  13.849  0.00  0.00    +0.000 A 
ATOM      4  C   UNL     1      45.936   4.427  13.248  0.00  0.00    +0.000 A 
ATOM      5  C   UNL     1      45.437   4.727  11.972  0.00  0.00    +0.000 A 
ATOM      6  C   UNL     1      45.933   5.860  11.314  0.00  0.00    +0.000 A 
ATOM      7  C   UNL     1      46.902   6.674  11.916  0.00  0.00    +0.000 A 
BRANCH   5   8
ATOM      8  C   UNL     1      44.389   3.848  11.322  0.00  0.00    +0.000 C 
BRANCH   8   9
ATOM      9  N   UNL     1      45.002   2.672  10.708  0.00  0.00    +0.000 NA
ATOM     10  H   UNL     1      44.835   1.860  11.302  0.00  0.00    +0.000 HD
BRANCH   9  11
ATOM     11  C   UNL     1      44.465   2.400   9.376  0.00  0.00    +0.000 C 
BRANCH  11  12
ATOM     12  C   UNL     1      45.569   2.405   8.342  0.00  0.00    +0.000 A 
ATOM     13  C   UNL     1      46.345   1.263   8.101  0.00  0.00    +0.000 A 
ATOM     14  C   UNL     1      47.337   1.274   7.115  0.00  0.00    +0.000 A 
ATOM     15  C   UNL     1      47.566   2.426   6.365  0.00  0.00    +0.000 A 
ATOM     16  C   UNL     1      46.813   3.573   6.605  0.00  0.00    +0.000 A 
ATOM     17  C   UNL     1      45.821   3.562   7.586  0.00  0.00    +0.000 A 
ENDBRANCH  11  12
ENDBRANCH   9  11
ENDBRANCH   8   9
ENDBRANCH   5   8
ENDBRANCH   1   2
BRANCH   1  20
ATOM     18  C   UNL     1      50.153   8.240  12.329  0.00  0.00    +0.000 C 
ATOM     19  O   UNL     1      49.535   9.302  12.271  0.00  0.00    +0.000 OA
ATOM     20  N   UNL     1      49.690   7.189  13.074  0.00  0.00    +0.000 N 
ATOM     21  H   UNL     1      50.213   6.324  13.107  0.00  0.00    +0.000 HD
BRANCH  18  29
ATOM     22  C   UNL     1      53.423   9.135  12.919  0.00  0.00    +0.000 A 
ATOM     23  N   UNL     1      54.760   9.302  12.938  0.00  0.00    +0.000 NA
ATOM     24  C   UNL     1      55.467   8.788  11.927  0.00  0.00    +0.000 A 
ATOM     25  N   UNL     1      54.996   8.130  10.870  0.00  0.00    +0.000 NA
ATOM     26  C   UNL     1      53.662   7.979  10.899  0.00  0.00    +0.000 A 
ATOM     27  S   UNL     1      52.880   7.171   9.625  0.00  0.00    +0.000 S 
ATOM     28  C   UNL     1      51.361   7.371  10.364  0.00  0.00    +0.000 A 
ATOM     29  C   UNL     1      51.409   8.037  11.583  0.00  0.00    +0.000 A 
ATOM     30  C   UNL     1      52.786   8.426  11.884  0.00  0.00    +0.000 A 
BRANCH  22  32
ATOM     31  C   UNL     1      52.327  11.012  13.789  0.00  0.00    +0.000 C 
ATOM     32  O   UNL     1      52.695   9.647  13.970  0.00  0.00    +0.000 OA
ENDBRANCH  22  32
ENDBRANCH  18  29
ENDBRANCH   1  20
TORSDOF 8
ENDMDL
MODEL 5
REMARK VINA RESULT:    -6.447      1.941      2.592
REMARK INTER + INTRA:         -10.795
REMARK INTER:                  -9.494
REMARK INTRA:                  -1.301
REMARK UNBOUND:                -1.333
REMARK  Name = 
REMARK  9 active torsions:
REMARK  status: ('A' for Active; 'I' for Inactive)
REMARK    1  A    between atoms: C_1  and  O_2
REMARK    2  A    between atoms: O_2  and  C_3
REMARK    3  A    between atoms: C_10  and  C_11
REMARK    4  A    between atoms: N_13  and  C_14
REMARK    5  A    between atoms: C_14  and  C_15
REMARK    6  A    between atoms: C_18  and  C_19
REMARK    7  A    between atoms: C_19  and  N_20
REMARK    8  A    between atoms: N_20  and  C_21
REMARK    9  A    between atoms: C_21  and  C_22
REMARK                            x       y       z     vdW  Elec       q    Type
REMARK                         _______ _______ _______ _____ _____    ______ ____
ROOT
ATOM      1  C   UNL     1      49.168   7.723  13.978  0.00  0.00    +0.000 C 
ENDROOT
BRANCH   1   2
ATOM      2  C   UNL     1      47.974   7.182  13.230  0.00  0.00    +0.000 A 
ATOM      3  C   UNL     1      47.167   8.031  12.460  0.00  0.00    +0.000 A 
ATOM      4  C   UNL     1      46.043   7.537  11.786  0.00  0.00    +0.000 A 
ATOM      5  C   UNL     1      45.689   6.183  11.874  0.00  0.00    +0.000 A 
ATOM      6  C   UNL     1      46.489   5.336  12.653  0.00  0.00    +0.000 A 
ATOM      7  C   UNL     1      47.616   5.830  13.326  0.00  0.00    +0.000 A 
BRANCH   5   8
ATOM      8  C   UNL     1      44.472   5.649  11.148  0.00  0.00    +0.000 C 
BRANCH   8   9
ATOM      9  N   UNL     1      44.515   4.192  11.060  0.00  0.00    +0.000 NA
ATOM     10  H   UNL     1      43.976   3.795  11.829  0.00  0.00    +0.000 HD
BRANCH   9  11
ATOM     11  C   UNL     1      43.968   3.698   9.798  0.00  0.00    +0.000 C 
BRANCH  11  12
ATOM     12  C   UNL     1      45.074   3.210   8.889  0.00  0.00    +0.000 A 
ATOM     13  C   UNL     1      45.435   1.856   8.844  0.00  0.00    +0.000 A 
ATOM     14  C   UNL     1      46.434   1.416   7.970  0.00  0.00    +0.000 A 
ATOM     15  C   UNL     1      47.086   2.325   7.138  0.00  0.00    +0.000 A 
ATOM     16  C   UNL     1      46.749   3.676   7.185  0.00  0.00    +0.000 A 
ATOM     17  C   UNL     1      45.749   4.115   8.053  0.00  0.00    +0.000 A 
ENDBRANCH  11  12
ENDBRANCH   9  11
ENDBRANCH   8   9
ENDBRANCH   5   8
ENDBRANCH   1   2
BRANCH   1  20
ATOM     18  C   UNL     1      48.949   7.585  16.440  0.00  0.00    +0.000 C 
ATOM     19  O   UNL     1      48.413   8.690  16.498  0.00  0.00    +0.000 OA
ATOM     20  N   UNL     1      49.341   7.048  15.242  0.00  0.00    +0.000 N 
ATOM     21  H   UNL     1      49.781   6.138  15.217  0.00  0.00    +0.000 HD
BRANCH  18  29
ATOM     22  C   UNL     1      51.683   5.816  17.555  0.00  0.00    +0.000 A 
ATOM     23  N   UNL     1      52.611   5.121  18.239  0.00  0.00    +0.000 NA
ATOM     24  C   UNL     1      52.277   4.655  19.447  0.00  0.00    +0.000 A 
ATOM     25  N   UNL     1      51.104   4.785  20.061  0.00  0.00    +0.000 NA
ATOM     26  C   UNL     1      50.214   5.492  19.346  0.00  0.00    +0.000 A 
ATOM     27  S   UNL     1      48.654   5.752  19.968  0.00  0.00    +0.000 S 
ATOM     28  C   UNL     1      48.206   6.657  18.599  0.00  0.00    +0.000 A 
ATOM     29  C   UNL     1      49.217   6.792  17.655  0.00  0.00    +0.000 A 
ATOM     30  C   UNL     1      50.408   6.067  18.093  0.00  0.00    +0.000 A 
BRANCH  22  32
ATOM     31  C   UNL     1      52.764   7.534  16.388  0.00  0.00    +0.000 C 
ATOM     32  O   UNL     1      52.032   6.313  16.318  0.00  0.00    +0.000 OA
ENDBRANCH  22  32
ENDBRANCH  18  29
ENDBRANCH   1  20
TORSDOF 8
ENDMDL
MODEL 6
REMARK VINA RESULT:    -6.396      3.454      8.526
REMARK INTER + INTRA:         -10.720
REMARK INTER:                  -8.591
REMARK INTRA:                  -2.129
REMARK UNBOUND:                -1.333
REMARK  Name = 
REMARK  9 active torsions:
REMARK  status: ('A' for Active; 'I' for Inactive)
REMARK    1  A    between atoms: C_1  and  O_2
REMARK    2  A    between atoms: O_2  and  C_3
REMARK    3  A    between atoms: C_10  and  C_11
REMARK    4  A    between atoms: N_13  and  C_14
REMARK    5  A    between atoms: C_14  and  C_15
REMARK    6  A    between atoms: C_18  and  C_19
REMARK    7  A    between atoms: C_19  and  N_20
REMARK    8  A    between atoms: N_20  and  C_21
REMARK    9  A    between atoms: C_21  and  C_22
REMARK                            x       y       z     vdW  Elec       q    Type
REMARK                         _______ _______ _______ _____ _____    ______ ____
ROOT
ATOM      1  C   UNL     1      48.657   8.220  14.876  0.00  0.00    +0.000 C 
ENDROOT
BRANCH   1   2
ATOM      2  C   UNL     1      49.157   7.697  16.200  0.00  0.00    +0.000 A 
ATOM      3  C   UNL     1      48.590   8.139  17.404  0.00  0.00    +0.000 A 
ATOM      4  C   UNL     1      49.071   7.675  18.635  0.00  0.00    +0.000 A 
ATOM      5  C   UNL     1      50.138   6.768  18.696  0.00  0.00    +0.000 A 
ATOM      6  C   UNL     1      50.711   6.335  17.493  0.00  0.00    +0.000 A 
ATOM      7  C   UNL     1      50.229   6.797  16.260  0.00  0.00    +0.000 A 
BRANCH   5   8
ATOM      8  C   UNL     1      50.659   6.269  20.028  0.00  0.00    +0.000 C 
BRANCH   8   9
ATOM      9  N   UNL     1      50.465   4.827  20.157  0.00  0.00    +0.000 NA
ATOM     10  H   UNL     1      50.877   4.512  21.035  0.00  0.00    +0.000 HD
BRANCH   9  11
ATOM     11  C   UNL     1      49.053   4.454  20.139  0.00  0.00    +0.000 C 
BRANCH  11  12
ATOM     12  C   UNL     1      48.646   3.958  18.769  0.00  0.00    +0.000 A 
ATOM     13  C   UNL     1      49.391   2.976  18.101  0.00  0.00    +0.000 A 
ATOM     14  C   UNL     1      48.980   2.501  16.851  0.00  0.00    +0.000 A 
ATOM     15  C   UNL     1      47.826   3.007  16.255  0.00  0.00    +0.000 A 
ATOM     16  C   UNL     1      47.086   3.995  16.901  0.00  0.00    +0.000 A 
ATOM     17  C   UNL     1      47.493   4.466  18.149  0.00  0.00    +0.000 A 
ENDBRANCH  11  12
ENDBRANCH   9  11
ENDBRANCH   8   9
ENDBRANCH   5   8
ENDBRANCH   1   2
BRANCH   1  20
ATOM     18  C   UNL     1      47.823   6.381  13.443  0.00  0.00    +0.000 C 
ATOM     19  O   UNL     1      48.955   6.131  13.029  0.00  0.00    +0.000 OA
ATOM     20  N   UNL     1      47.604   7.384  14.349  0.00  0.00    +0.000 N 
ATOM     21  H   UNL     1      46.666   7.573  14.676  0.00  0.00    +0.000 HD
BRANCH  18  29
ATOM     22  C   UNL     1      44.860   7.312  11.961  0.00  0.00    +0.000 A 
ATOM     23  N   UNL     1      43.675   7.396  11.327  0.00  0.00    +0.000 NA
ATOM     24  C   UNL     1      43.019   6.259  11.075  0.00  0.00    +0.000 A 
ATOM     25  N   UNL     1      43.399   5.025  11.397  0.00  0.00    +0.000 NA
ATOM     26  C   UNL     1      44.590   4.989  12.018  0.00  0.00    +0.000 A 
ATOM     27  S   UNL     1      45.233   3.497  12.515  0.00  0.00    +0.000 S 
ATOM     28  C   UNL     1      46.628   4.247  13.133  0.00  0.00    +0.000 A 
ATOM     29  C   UNL     1      46.646   5.628  12.972  0.00  0.00    +0.000 A 
ATOM     30  C   UNL     1      45.409   6.070  12.330  0.00  0.00    +0.000 A 
BRANCH  22  32
ATOM     31  C   UNL     1      44.793   9.651  11.895  0.00  0.00    +0.000 C 
ATOM     32  O   UNL     1      45.546   8.481  12.204  0.00  0.00    +0.000 OA
ENDBRANCH  22  32
ENDBRANCH  18  29
ENDBRANCH   1  20
TORSDOF 8
ENDMDL
MODEL 7
REMARK VINA RESULT:    -6.291      4.459      6.516
REMARK INTER + INTRA:         -10.566
REMARK INTER:                  -9.337
REMARK INTRA:                  -1.229
REMARK UNBOUND:                -1.333
REMARK  Name = 
REMARK  9 active torsions:
REMARK  status: ('A' for Active; 'I' for Inactive)
REMARK    1  A    between atoms: C_1  and  O_2
REMARK    2  A    between atoms: O_2  and  C_3
REMARK    3  A    between atoms: C_10  and  C_11
REMARK    4  A    between atoms: N_13  and  C_14
REMARK    5  A    between atoms: C_14  and  C_15
REMARK    6  A    between atoms: C_18  and  C_19
REMARK    7  A    between atoms: C_19  and  N_20
REMARK    8  A    between atoms: N_20  and  C_21
REMARK    9  A    between atoms: C_21  and  C_22
REMARK                            x       y       z     vdW  Elec       q    Type
REMARK                         _______ _______ _______ _____ _____    ______ ____
ROOT
ATOM      1  C   UNL     1      49.471   7.027  13.394  0.00  0.00    +0.000 C 
ENDROOT
BRANCH   1   2
ATOM      2  C   UNL     1      48.054   6.722  12.975  0.00  0.00    +0.000 A 
ATOM      3  C   UNL     1      47.455   5.501  13.312  0.00  0.00    +0.000 A 
ATOM      4  C   UNL     1      46.149   5.205  12.902  0.00  0.00    +0.000 A 
ATOM      5  C   UNL     1      45.412   6.117  12.133  0.00  0.00    +0.000 A 
ATOM      6  C   UNL     1      46.015   7.333  11.786  0.00  0.00    +0.000 A 
ATOM      7  C   UNL     1      47.321   7.631  12.199  0.00  0.00    +0.000 A 
BRANCH   5   8
ATOM      8  C   UNL     1      44.000   5.795  11.687  0.00  0.00    +0.000 C 
BRANCH   8   9
ATOM      9  N   UNL     1      43.976   5.391  10.283  0.00  0.00    +0.000 NA
ATOM     10  H   UNL     1      44.856   5.661   9.844  0.00  0.00    +0.000 HD
BRANCH   9  11
ATOM     11  C   UNL     1      43.793   3.951  10.125  0.00  0.00    +0.000 C 
BRANCH  11  12
ATOM     12  C   UNL     1      44.819   3.381   9.171  0.00  0.00    +0.000 A 
ATOM     13  C   UNL     1      45.092   2.007   9.133  0.00  0.00    +0.000 A 
ATOM     14  C   UNL     1      46.018   1.492   8.219  0.00  0.00    +0.000 A 
ATOM     15  C   UNL     1      46.682   2.345   7.340  0.00  0.00    +0.000 A 
ATOM     16  C   UNL     1      46.432   3.715   7.379  0.00  0.00    +0.000 A 
ATOM     17  C   UNL     1      45.507   4.229   8.287  0.00  0.00    +0.000 A 
ENDBRANCH  11  12
ENDBRANCH   9  11
ENDBRANCH   8   9
ENDBRANCH   5   8
ENDBRANCH   1   2
BRANCH   1  20
ATOM     18  C   UNL     1      51.319   8.498  12.651  0.00  0.00    +0.000 C 
ATOM     19  O   UNL     1      51.874   8.428  13.746  0.00  0.00    +0.000 OA
ATOM     20  N   UNL     1      50.144   7.837  12.407  0.00  0.00    +0.000 N 
ATOM     21  H   UNL     1      49.704   7.909  11.499  0.00  0.00    +0.000 HD
BRANCH  18  29
ATOM     22  C   UNL     1      52.639   7.726   9.568  0.00  0.00    +0.000 A 
ATOM     23  N   UNL     1      53.130   7.705   8.314  0.00  0.00    +0.000 NA
ATOM     24  C   UNL     1      53.419   8.876   7.737  0.00  0.00    +0.000 A 
ATOM     25  N   UNL     1      53.292  10.087   8.272  0.00  0.00    +0.000 NA
ATOM     26  C   UNL     1      52.790  10.060   9.518  0.00  0.00    +0.000 A 
ATOM     27  S   UNL     1      52.567  11.516  10.366  0.00  0.00    +0.000 S 
ATOM     28  C   UNL     1      51.941  10.692  11.715  0.00  0.00    +0.000 A 
ATOM     29  C   UNL     1      51.876   9.312  11.555  0.00  0.00    +0.000 A 
ATOM     30  C   UNL     1      52.415   8.937  10.248  0.00  0.00    +0.000 A 
BRANCH  22  32
ATOM     31  C   UNL     1      53.393   5.581  10.125  0.00  0.00    +0.000 C 
ATOM     32  O   UNL     1      52.323   6.522  10.157  0.00  0.00    +0.000 OA
ENDBRANCH  22  32
ENDBRANCH  18  29
ENDBRANCH   1  20
TORSDOF 8
ENDMDL
MODEL 8
REMARK VINA RESULT:    -6.252      3.095      8.688
REMARK INTER + INTRA:         -10.509
REMARK INTER:                  -8.852
REMARK INTRA:                  -1.657
REMARK UNBOUND:                -1.333
REMARK  Name = 
REMARK  9 active torsions:
REMARK  status: ('A' for Active; 'I' for Inactive)
REMARK    1  A    between atoms: C_1  and  O_2
REMARK    2  A    between atoms: O_2  and  C_3
REMARK    3  A    between atoms: C_10  and  C_11
REMARK    4  A    between atoms: N_13  and  C_14
REMARK    5  A    between atoms: C_14  and  C_15
REMARK    6  A    between atoms: C_18  and  C_19
REMARK    7  A    between atoms: C_19  and  N_20
REMARK    8  A    between atoms: N_20  and  C_21
REMARK    9  A    between atoms: C_21  and  C_22
REMARK                            x       y       z     vdW  Elec       q    Type
REMARK                         _______ _______ _______ _____ _____    ______ ____
ROOT
ATOM      1  C   UNL     1      47.877   7.733  11.826  0.00  0.00    +0.000 C 
ENDROOT
BRANCH   1   2
ATOM      2  C   UNL     1      48.475   7.906  13.201  0.00  0.00    +0.000 A 
ATOM      3  C   UNL     1      47.795   8.627  14.191  0.00  0.00    +0.000 A 
ATOM      4  C   UNL     1      48.359   8.811  15.460  0.00  0.00    +0.000 A 
ATOM      5  C   UNL     1      49.624   8.290  15.768  0.00  0.00    +0.000 A 
ATOM      6  C   UNL     1      50.309   7.579  14.774  0.00  0.00    +0.000 A 
ATOM      7  C   UNL     1      49.743   7.391  13.504  0.00  0.00    +0.000 A 
BRANCH   5   8
ATOM      8  C   UNL     1      50.235   8.491  17.139  0.00  0.00    +0.000 C 
BRANCH   8   9
ATOM      9  N   UNL     1      50.584   7.211  17.748  0.00  0.00    +0.000 NA
ATOM     10  H   UNL     1      51.360   7.350  18.395  0.00  0.00    +0.000 HD
BRANCH   9  11
ATOM     11  C   UNL     1      49.463   6.621  18.476  0.00  0.00    +0.000 C 
BRANCH  11  12
ATOM     12  C   UNL     1      49.044   5.311  17.846  0.00  0.00    +0.000 A 
ATOM     13  C   UNL     1      48.020   5.259  16.891  0.00  0.00    +0.000 A 
ATOM     14  C   UNL     1      47.670   4.045  16.290  0.00  0.00    +0.000 A 
ATOM     15  C   UNL     1      48.336   2.872  16.642  0.00  0.00    +0.000 A 
ATOM     16  C   UNL     1      49.345   2.908  17.602  0.00  0.00    +0.000 A 
ATOM     17  C   UNL     1      49.697   4.119  18.199  0.00  0.00    +0.000 A 
ENDBRANCH  11  12
ENDBRANCH   9  11
ENDBRANCH   8   9
ENDBRANCH   5   8
ENDBRANCH   1   2
BRANCH   1  20
ATOM     18  C   UNL     1      45.686   6.613  11.555  0.00  0.00    +0.000 C 
ATOM     19  O   UNL     1      45.107   7.687  11.397  0.00  0.00    +0.000 OA
ATOM     20  N   UNL     1      47.038   6.560  11.765  0.00  0.00    +0.000 N 
ATOM     21  H   UNL     1      47.494   5.666  11.893  0.00  0.00    +0.000 HD
BRANCH  18  29
ATOM     22  C   UNL     1      45.300   4.124   9.209  0.00  0.00    +0.000 A 
ATOM     23  N   UNL     1      45.044   3.001   8.511  0.00  0.00    +0.000 NA
ATOM     24  C   UNL     1      44.308   2.054   9.101  0.00  0.00    +0.000 A 
ATOM     25  N   UNL     1      43.772   2.096  10.318  0.00  0.00    +0.000 NA
ATOM     26  C   UNL     1      44.062   3.229  10.980  0.00  0.00    +0.000 A 
ATOM     27  S   UNL     1      43.453   3.465  12.549  0.00  0.00    +0.000 S 
ATOM     28  C   UNL     1      44.218   4.978  12.672  0.00  0.00    +0.000 A 
ATOM     29  C   UNL     1      44.953   5.333  11.547  0.00  0.00    +0.000 A 
ATOM     30  C   UNL     1      44.831   4.295  10.524  0.00  0.00    +0.000 A 
BRANCH  22  32
ATOM     31  C   UNL     1      46.854   4.600   7.524  0.00  0.00    +0.000 C 
ATOM     32  O   UNL     1      46.074   5.093   8.609  0.00  0.00    +0.000 OA
ENDBRANCH  22  32
ENDBRANCH  18  29
ENDBRANCH   1  20
TORSDOF 8
ENDMDL
MODEL 9
REMARK VINA RESULT:    -5.840      3.874      9.004
REMARK INTER + INTRA:          -9.905
REMARK INTER:                  -7.832
REMARK INTRA:                  -2.073
REMARK UNBOUND:                -1.333
REMARK  Name = 
REMARK  9 active torsions:
REMARK  status: ('A' for Active; 'I' for Inactive)
REMARK    1  A    between atoms: C_1  and  O_2
REMARK    2  A    between atoms: O_2  and  C_3
REMARK    3  A    between atoms: C_10  and  C_11
REMARK    4  A    between atoms: N_13  and  C_14
REMARK    5  A    between atoms: C_14  and  C_15
REMARK    6  A    between atoms: C_18  and  C_19
REMARK    7  A    between atoms: C_19  and  N_20
REMARK    8  A    between atoms: N_20  and  C_21
REMARK    9  A    between atoms: C_21  and  C_22
REMARK                            x       y       z     vdW  Elec       q    Type
REMARK                         _______ _______ _______ _____ _____    ______ ____
ROOT
ATOM      1  C   UNL     1      47.591   3.528  16.394  0.00  0.00    +0.000 C 
ENDROOT
BRANCH   1   2
ATOM      2  C   UNL     1      47.964   4.358  17.598  0.00  0.00    +0.000 A 
ATOM      3  C   UNL     1      49.081   4.027  18.377  0.00  0.00    +0.000 A 
ATOM      4  C   UNL     1      49.414   4.780  19.511  0.00  0.00    +0.000 A 
ATOM      5  C   UNL     1      48.631   5.875  19.902  0.00  0.00    +0.000 A 
ATOM      6  C   UNL     1      47.508   6.199  19.130  0.00  0.00    +0.000 A 
ATOM      7  C   UNL     1      47.176   5.448  17.994  0.00  0.00    +0.000 A 
BRANCH   5   8
ATOM      8  C   UNL     1      48.989   6.687  21.130  0.00  0.00    +0.000 C 
BRANCH   8   9
ATOM      9  N   UNL     1      50.338   7.238  21.016  0.00  0.00    +0.000 NA
ATOM     10  H   UNL     1      50.982   6.490  20.758  0.00  0.00    +0.000 HD
BRANCH   9  11
ATOM     11  C   UNL     1      50.420   8.297  20.012  0.00  0.00    +0.000 C 
BRANCH  11  12
ATOM     12  C   UNL     1      50.945   7.754  18.702  0.00  0.00    +0.000 A 
ATOM     13  C   UNL     1      52.104   6.966  18.654  0.00  0.00    +0.000 A 
ATOM     14  C   UNL     1      52.555   6.441  17.439  0.00  0.00    +0.000 A 
ATOM     15  C   UNL     1      51.857   6.702  16.261  0.00  0.00    +0.000 A 
ATOM     16  C   UNL     1      50.714   7.497  16.292  0.00  0.00    +0.000 A 
ATOM     17  C   UNL     1      50.260   8.018  17.505  0.00  0.00    +0.000 A 
ENDBRANCH  11  12
ENDBRANCH   9  11
ENDBRANCH   8   9
ENDBRANCH   5   8
ENDBRANCH   1   2
BRANCH   1  20
ATOM     18  C   UNL     1      46.720   4.112  14.151  0.00  0.00    +0.000 C 
ATOM     19  O   UNL     1      47.498   3.336  13.598  0.00  0.00    +0.000 OA
ATOM     20  N   UNL     1      46.707   4.255  15.513  0.00  0.00    +0.000 N 
ATOM     21  H   UNL     1      46.059   4.899  15.947  0.00  0.00    +0.000 HD
BRANCH  18  29
ATOM     22  C   UNL     1      46.741   7.405  13.151  0.00  0.00    +0.000 A 
ATOM     23  N   UNL     1      46.534   8.613  12.591  0.00  0.00    +0.000 NA
ATOM     24  C   UNL     1      45.427   8.780  11.860  0.00  0.00    +0.000 A 
ATOM     25  N   UNL     1      44.475   7.880  11.629  0.00  0.00    +0.000 NA
ATOM     26  C   UNL     1      44.729   6.690  12.198  0.00  0.00    +0.000 A 
ATOM     27  S   UNL     1      43.616   5.418  12.018  0.00  0.00    +0.000 S 
ATOM     28  C   UNL     1      44.595   4.367  12.929  0.00  0.00    +0.000 A 
ATOM     29  C   UNL     1      45.778   4.942  13.377  0.00  0.00    +0.000 A 
ATOM     30  C   UNL     1      45.839   6.343  12.962  0.00  0.00    +0.000 A 
BRANCH  22  32
ATOM     31  C   UNL     1      49.046   7.000  13.085  0.00  0.00    +0.000 C 
ATOM     32  O   UNL     1      47.891   7.226  13.888  0.00  0.00    +0.000 OA
ENDBRANCH  22  32
ENDBRANCH  18  29
ENDBRANCH   1  20
TORSDOF 8
ENDMDL
