MODEL 1
REMARK VINA RESULT:    -7.692      0.000      0.000
REMARK INTER + INTRA:         -10.769
REMARK INTER:                  -9.940
REMARK INTRA:                  -0.829
REMARK UNBOUND:                -0.829
REMARK  Name = 
REMARK  8 active torsions:
REMARK  status: ('A' for Active; 'I' for Inactive)
REMARK    1  A    between atoms: C_1  and  C_2
REMARK    2  A    between atoms: C_2  and  C_3
REMARK    3  A    between atoms: C_2  and  C_4
REMARK    4  A    between atoms: C_2  and  C_5
REMARK    5  A    between atoms: C_8  and  C_9
REMARK    6  A    between atoms: C_9  and  O_10
REMARK    7  A    between atoms: O_10  and  C_11
REMARK    8  A    between atoms: C_14  and  C_15
REMARK                            x       y       z     vdW  Elec       q    Type
REMARK                         _______ _______ _______ _____ _____    ______ ____
ROOT
ATOM      1  O   UNL     1      43.507   4.005  10.124  0.00  0.00    +0.000 OA
ENDROOT
BRANCH   1   2
ATOM      2  C   UNL     1      44.476   3.485   9.321  0.00  0.00    +0.000 A 
ATOM      3  C   UNL     1      44.903   2.162   9.292  0.00  0.00    +0.000 A 
ATOM      4  C   UNL     1      45.907   1.784   8.401  0.00  0.00    +0.000 A 
ATOM      5  C   UNL     1      46.451   2.750   7.567  0.00  0.00    +0.000 A 
ATOM      6  N   UNL     1      46.070   4.056   7.568  0.00  0.00    +0.000 NA
ATOM      7  C   UNL     1      45.092   4.380   8.447  0.00  0.00    +0.000 A 
BRANCH   5   8
ATOM      8  C   UNL     1      47.521   2.362   6.586  0.00  0.00    +0.000 C 
ATOM      9  N   UNL     1      47.569   3.106   5.445  0.00  0.00    +0.000 N 
ATOM     10  O   UNL     1      48.292   1.432   6.798  0.00  0.00    +0.000 OA
ATOM     11  H   UNL     1      46.904   3.860   5.307  0.00  0.00    +0.000 HD
ATOM     12  H   UNL     1      48.256   2.889   4.741  0.00  0.00    +0.000 HD
ENDBRANCH   5   8
ENDBRANCH   1   2
BRANCH   1  13
ATOM     13  C   UNL     1      43.653   3.814  11.534  0.00  0.00    +0.000 C 
BRANCH  13  17
ATOM     14  C   UNL     1      46.857   6.327  13.093  0.00  0.00    +0.000 A 
ATOM     15  C   UNL     1      45.831   6.848  12.289  0.00  0.00    +0.000 A 
ATOM     16  C   UNL     1      44.794   6.059  11.794  0.00  0.00    +0.000 A 
ATOM     17  C   UNL     1      44.759   4.689  12.059  0.00  0.00    +0.000 A 
ATOM     18  C   UNL     1      45.762   4.152  12.875  0.00  0.00    +0.000 A 
ATOM     19  C   UNL     1      46.794   4.954  13.382  0.00  0.00    +0.000 A 
BRANCH  14  21
ATOM     20  C   UNL     1      48.564   6.668  14.937  0.00  0.00    +0.000 C 
ATOM     21  C   UNL     1      47.999   7.226  13.608  0.00  0.00    +0.000 C 
ATOM     22  C   UNL     1      47.476   8.654  13.868  0.00  0.00    +0.000 C 
ATOM     23  C   UNL     1      49.177   7.345  12.616  0.00  0.00    +0.000 C 
ENDBRANCH  14  21
ENDBRANCH  13  17
ENDBRANCH   1  13
TORSDOF 5
ENDMDL
MODEL 2
REMARK VINA RESULT:    -7.671      0.105      1.413
REMARK INTER + INTRA:         -10.742
REMARK INTER:                  -9.906
REMARK INTRA:                  -0.836
REMARK UNBOUND:                -0.829
REMARK  Name = 
REMARK  8 active torsions:
REMARK  status: ('A' for Active; 'I' for Inactive)
REMARK    1  A    between atoms: C_1  and  C_2
REMARK    2  A    between atoms: C_2  and  C_3
REMARK    3  A    between atoms: C_2  and  C_4
REMARK    4  A    between atoms: C_2  and  C_5
REMARK    5  A    between atoms: C_8  and  C_9
REMARK    6  A    between atoms: C_9  and  O_10
REMARK    7  A    between atoms: O_10  and  C_11
REMARK    8  A    between atoms: C_14  and  C_15
REMARK                            x       y       z     vdW  Elec       q    Type
REMARK                         _______ _______ _______ _____ _____    ______ ____
ROOT
ATOM      1  O   UNL     1      43.584   4.015  10.203  0.00  0.00    +0.000 OA
ENDROOT
BRANCH   1   2
ATOM      2  C   UNL     1      44.521   3.480   9.373  0.00  0.00    +0.000 A 
ATOM      3  C   UNL     1      44.908   2.145   9.316  0.00  0.00    +0.000 A 
ATOM      4  C   UNL     1      45.883   1.752   8.399  0.00  0.00    +0.000 A 
ATOM      5  C   UNL     1      46.438   2.714   7.568  0.00  0.00    +0.000 A 
ATOM      6  N   UNL     1      46.096   4.030   7.596  0.00  0.00    +0.000 NA
ATOM      7  C   UNL     1      45.145   4.369   8.500  0.00  0.00    +0.000 A 
BRANCH   5   8
ATOM      8  C   UNL     1      47.476   2.310   6.559  0.00  0.00    +0.000 C 
ATOM      9  N   UNL     1      47.454   3.001   5.385  0.00  0.00    +0.000 N 
ATOM     10  O   UNL     1      48.283   1.413   6.779  0.00  0.00    +0.000 OA
ATOM     11  H   UNL     1      46.761   3.729   5.243  0.00  0.00    +0.000 HD
ATOM     12  H   UNL     1      48.116   2.770   4.662  0.00  0.00    +0.000 HD
ENDBRANCH   5   8
ENDBRANCH   1   2
BRANCH   1  13
ATOM     13  C   UNL     1      43.744   3.784  11.605  0.00  0.00    +0.000 C 
BRANCH  13  17
ATOM     14  C   UNL     1      46.931   6.332  13.141  0.00  0.00    +0.000 A 
ATOM     15  C   UNL     1      46.920   4.946  13.361  0.00  0.00    +0.000 A 
ATOM     16  C   UNL     1      45.915   4.118  12.865  0.00  0.00    +0.000 A 
ATOM     17  C   UNL     1      44.845   4.656  12.148  0.00  0.00    +0.000 A 
ATOM     18  C   UNL     1      44.846   6.034  11.900  0.00  0.00    +0.000 A 
ATOM     19  C   UNL     1      45.868   6.859  12.389  0.00  0.00    +0.000 A 
BRANCH  14  21
ATOM     20  C   UNL     1      47.524   8.655  13.969  0.00  0.00    +0.000 C 
ATOM     21  C   UNL     1      48.051   7.221  13.720  0.00  0.00    +0.000 C 
ATOM     22  C   UNL     1      49.230   7.306  12.728  0.00  0.00    +0.000 C 
ATOM     23  C   UNL     1      48.618   6.695  15.058  0.00  0.00    +0.000 C 
ENDBRANCH  14  21
ENDBRANCH  13  17
ENDBRANCH   1  13
TORSDOF 5
ENDMDL
MODEL 3
REMARK VINA RESULT:    -7.166      3.301      6.815
REMARK INTER + INTRA:         -10.089
REMARK INTER:                  -9.299
REMARK INTRA:                  -0.790
REMARK UNBOUND:                -0.829
REMARK  Name = 
REMARK  8 active torsions:
REMARK  status: ('A' for Active; 'I' for Inactive)
REMARK    1  A    between atoms: C_1  and  C_2
REMARK    2  A    between atoms: C_2  and  C_3
REMARK    3  A    between atoms: C_2  and  C_4
REMARK    4  A    between atoms: C_2  and  C_5
REMARK    5  A    between atoms: C_8  and  C_9
REMARK    6  A    between atoms: C_9  and  O_10
REMARK    7  A    between atoms: O_10  and  C_11
REMARK    8  A    between atoms: C_14  and  C_15
REMARK                            x       y       z     vdW  Elec       q    Type
REMARK                         _______ _______ _______ _____ _____    ______ ____
ROOT
ATOM      1  O   UNL     1      44.210   5.928  11.266  0.00  0.00    +0.000 OA
ENDROOT
BRANCH   1   2
ATOM      2  C   UNL     1      45.115   5.597  12.227  0.00  0.00    +0.000 A 
ATOM      3  C   UNL     1      46.444   6.006  12.286  0.00  0.00    +0.000 A 
ATOM      4  C   UNL     1      47.245   5.585  13.347  0.00  0.00    +0.000 A 
ATOM      5  C   UNL     1      46.685   4.763  14.314  0.00  0.00    +0.000 A 
ATOM      6  N   UNL     1      45.395   4.332  14.291  0.00  0.00    +0.000 NA
ATOM      7  C   UNL     1      44.652   4.766  13.245  0.00  0.00    +0.000 A 
BRANCH   5   8
ATOM      8  C   UNL     1      47.524   4.311  15.477  0.00  0.00    +0.000 C 
ATOM      9  N   UNL     1      47.674   5.219  16.481  0.00  0.00    +0.000 N 
ATOM     10  O   UNL     1      48.044   3.200  15.511  0.00  0.00    +0.000 OA
ATOM     11  H   UNL     1      47.234   6.131  16.405  0.00  0.00    +0.000 HD
ATOM     12  H   UNL     1      48.235   4.982  17.283  0.00  0.00    +0.000 HD
ENDBRANCH   5   8
ENDBRANCH   1   2
BRANCH   1  13
ATOM     13  C   UNL     1      43.482   4.859  10.656  0.00  0.00    +0.000 C 
BRANCH  13  17
ATOM     14  C   UNL     1      46.049   2.696   7.873  0.00  0.00    +0.000 A 
ATOM     15  C   UNL     1      46.032   4.099   7.928  0.00  0.00    +0.000 A 
ATOM     16  C   UNL     1      45.226   4.803   8.822  0.00  0.00    +0.000 A 
ATOM     17  C   UNL     1      44.366   4.123   9.685  0.00  0.00    +0.000 A 
ATOM     18  C   UNL     1      44.381   2.722   9.660  0.00  0.00    +0.000 A 
ATOM     19  C   UNL     1      45.205   2.021   8.770  0.00  0.00    +0.000 A 
BRANCH  14  21
ATOM     20  C   UNL     1      47.028   0.448   7.223  0.00  0.00    +0.000 C 
ATOM     21  C   UNL     1      46.940   1.950   6.859  0.00  0.00    +0.000 C 
ATOM     22  C   UNL     1      48.368   2.535   6.875  0.00  0.00    +0.000 C 
ATOM     23  C   UNL     1      46.424   2.047   5.405  0.00  0.00    +0.000 C 
ENDBRANCH  14  21
ENDBRANCH  13  17
ENDBRANCH   1  13
TORSDOF 5
ENDMDL
MODEL 4
REMARK VINA RESULT:    -6.964      3.032      6.826
REMARK INTER + INTRA:          -9.828
REMARK INTER:                  -9.032
REMARK INTRA:                  -0.796
REMARK UNBOUND:                -0.829
REMARK  Name = 
REMARK  8 active torsions:
REMARK  status: ('A' for Active; 'I' for Inactive)
REMARK    1  A    between atoms: C_1  and  C_2
REMARK    2  A    between atoms: C_2  and  C_3
REMARK    3  A    between atoms: C_2  and  C_4
REMARK    4  A    between atoms: C_2  and  C_5
REMARK    5  A    between atoms: C_8  and  C_9
REMARK    6  A    between atoms: C_9  and  O_10
REMARK    7  A    between atoms: O_10  and  C_11
REMARK    8  A    between atoms: C_14  and  C_15
REMARK                            x       y       z     vdW  Elec       q    Type
REMARK                         _______ _______ _______ _____ _____    ______ ____
ROOT
ATOM      1  O   UNL     1      43.965   4.118  12.329  0.00  0.00    +0.000 OA
ENDROOT
BRANCH   1   2
ATOM      2  C   UNL     1      44.963   4.963  12.709  0.00  0.00    +0.000 A 
ATOM      3  C   UNL     1      46.190   4.599  13.255  0.00  0.00    +0.000 A 
ATOM      4  C   UNL     1      47.114   5.589  13.588  0.00  0.00    +0.000 A 
ATOM      5  C   UNL     1      46.774   6.915  13.363  0.00  0.00    +0.000 A 
ATOM      6  N   UNL     1      45.584   7.316  12.840  0.00  0.00    +0.000 NA
ATOM      7  C   UNL     1      44.717   6.323  12.530  0.00  0.00    +0.000 A 
BRANCH   5   8
ATOM      8  C   UNL     1      47.761   7.999  13.696  0.00  0.00    +0.000 C 
ATOM      9  N   UNL     1      47.357   8.890  14.643  0.00  0.00    +0.000 N 
ATOM     10  O   UNL     1      48.854   8.076  13.143  0.00  0.00    +0.000 OA
ATOM     11  H   UNL     1      46.439   8.793  15.067  0.00  0.00    +0.000 HD
ATOM     12  H   UNL     1      47.968   9.648  14.903  0.00  0.00    +0.000 HD
ENDBRANCH   5   8
ENDBRANCH   1   2
BRANCH   1  13
ATOM     13  C   UNL     1      43.387   4.328  11.038  0.00  0.00    +0.000 C 
BRANCH  13  17
ATOM     14  C   UNL     1      45.987   2.726   7.926  0.00  0.00    +0.000 A 
ATOM     15  C   UNL     1      45.267   1.889   8.793  0.00  0.00    +0.000 A 
ATOM     16  C   UNL     1      44.422   2.387   9.784  0.00  0.00    +0.000 A 
ATOM     17  C   UNL     1      44.289   3.763   9.972  0.00  0.00    +0.000 A 
ATOM     18  C   UNL     1      44.984   4.617   9.106  0.00  0.00    +0.000 A 
ATOM     19  C   UNL     1      45.819   4.109   8.102  0.00  0.00    +0.000 A 
BRANCH  14  21
ATOM     20  C   UNL     1      46.338   2.374   5.439  0.00  0.00    +0.000 C 
ATOM     21  C   UNL     1      46.926   2.140   6.852  0.00  0.00    +0.000 C 
ATOM     22  C   UNL     1      47.090   0.620   7.061  0.00  0.00    +0.000 C 
ATOM     23  C   UNL     1      48.341   2.759   6.875  0.00  0.00    +0.000 C 
ENDBRANCH  14  21
ENDBRANCH  13  17
ENDBRANCH   1  13
TORSDOF 5
ENDMDL
MODEL 5
REMARK VINA RESULT:    -5.883      5.493      7.969
REMARK INTER + INTRA:          -8.431
REMARK INTER:                  -7.827
REMARK INTRA:                  -0.604
REMARK UNBOUND:                -0.829
REMARK  Name = 
REMARK  8 active torsions:
REMARK  status: ('A' for Active; 'I' for Inactive)
REMARK    1  A    between atoms: C_1  and  C_2
REMARK    2  A    between atoms: C_2  and  C_3
REMARK    3  A    between atoms: C_2  and  C_4
REMARK    4  A    between atoms: C_2  and  C_5
REMARK    5  A    between atoms: C_8  and  C_9
REMARK    6  A    between atoms: C_9  and  O_10
REMARK    7  A    between atoms: O_10  and  C_11
REMARK    8  A    between atoms: C_14  and  C_15
REMARK                            x       y       z     vdW  Elec       q    Type
REMARK                         _______ _______ _______ _____ _____    ______ ____
ROOT
ATOM      1  O   UNL     1      47.836   5.052  16.352  0.00  0.00    +0.000 OA
ENDROOT
BRANCH   1   2
ATOM      2  C   UNL     1      48.766   4.109  16.668  0.00  0.00    +0.000 A 
ATOM      3  C   UNL     1      48.590   2.730  16.627  0.00  0.00    +0.000 A 
ATOM      4  C   UNL     1      49.649   1.892  16.976  0.00  0.00    +0.000 A 
ATOM      5  C   UNL     1      50.851   2.469  17.359  0.00  0.00    +0.000 A 
ATOM      6  N   UNL     1      51.064   3.811  17.422  0.00  0.00    +0.000 NA
ATOM      7  C   UNL     1      50.010   4.587  17.073  0.00  0.00    +0.000 A 
BRANCH   5   8
ATOM      8  C   UNL     1      52.012   1.586  17.722  0.00  0.00    +0.000 C 
ATOM      9  N   UNL     1      51.691   0.312  18.082  0.00  0.00    +0.000 N 
ATOM     10  O   UNL     1      53.170   1.992  17.703  0.00  0.00    +0.000 OA
ATOM     11  H   UNL     1      50.718   0.022  18.093  0.00  0.00    +0.000 HD
ATOM     12  H   UNL     1      52.423  -0.327  18.348  0.00  0.00    +0.000 HD
ENDBRANCH   5   8
ENDBRANCH   1   2
BRANCH   1  13
ATOM     13  C   UNL     1      48.135   5.926  15.260  0.00  0.00    +0.000 C 
BRANCH  13  17
ATOM     14  C   UNL     1      45.684   4.924  11.797  0.00  0.00    +0.000 A 
ATOM     15  C   UNL     1      45.807   4.056  12.893  0.00  0.00    +0.000 A 
ATOM     16  C   UNL     1      46.577   4.370  14.013  0.00  0.00    +0.000 A 
ATOM     17  C   UNL     1      47.293   5.566  14.066  0.00  0.00    +0.000 A 
ATOM     18  C   UNL     1      47.170   6.455  12.991  0.00  0.00    +0.000 A 
ATOM     19  C   UNL     1      46.381   6.141  11.876  0.00  0.00    +0.000 A 
BRANCH  14  21
ATOM     20  C   UNL     1      45.489   5.082   9.273  0.00  0.00    +0.000 C 
ATOM     21  C   UNL     1      44.837   4.537  10.567  0.00  0.00    +0.000 C 
ATOM     22  C   UNL     1      43.422   5.140  10.685  0.00  0.00    +0.000 C 
ATOM     23  C   UNL     1      44.671   3.011  10.396  0.00  0.00    +0.000 C 
ENDBRANCH  14  21
ENDBRANCH  13  17
ENDBRANCH   1  13
TORSDOF 5
ENDMDL
MODEL 6
REMARK VINA RESULT:    -5.836      4.364      6.665
REMARK INTER + INTRA:          -8.371
REMARK INTER:                  -7.812
REMARK INTRA:                  -0.559
REMARK UNBOUND:                -0.829
REMARK  Name = 
REMARK  8 active torsions:
REMARK  status: ('A' for Active; 'I' for Inactive)
REMARK    1  A    between atoms: C_1  and  C_2
REMARK    2  A    between atoms: C_2  and  C_3
REMARK    3  A    between atoms: C_2  and  C_4
REMARK    4  A    between atoms: C_2  and  C_5
REMARK    5  A    between atoms: C_8  and  C_9
REMARK    6  A    between atoms: C_9  and  O_10
REMARK    7  A    between atoms: O_10  and  C_11
REMARK    8  A    between atoms: C_14  and  C_15
REMARK                            x       y       z     vdW  Elec       q    Type
REMARK                         _______ _______ _______ _____ _____    ______ ____
ROOT
ATOM      1  O   UNL     1      47.775   5.331  14.968  0.00  0.00    +0.000 OA
ENDROOT
BRANCH   1   2
ATOM      2  C   UNL     1      46.881   4.933  14.022  0.00  0.00    +0.000 A 
ATOM      3  C   UNL     1      46.063   5.760  13.259  0.00  0.00    +0.000 A 
ATOM      4  C   UNL     1      45.201   5.195  12.319  0.00  0.00    +0.000 A 
ATOM      5  C   UNL     1      45.188   3.815  12.177  0.00  0.00    +0.000 A 
ATOM      6  N   UNL     1      45.964   2.969  12.907  0.00  0.00    +0.000 NA
ATOM      7  C   UNL     1      46.787   3.559  13.807  0.00  0.00    +0.000 A 
BRANCH   5   8
ATOM      8  C   UNL     1      44.281   3.185  11.158  0.00  0.00    +0.000 C 
ATOM      9  N   UNL     1      44.906   2.517  10.148  0.00  0.00    +0.000 N 
ATOM     10  O   UNL     1      43.060   3.276  11.229  0.00  0.00    +0.000 OA
ATOM     11  H   UNL     1      45.921   2.476  10.124  0.00  0.00    +0.000 HD
ATOM     12  H   UNL     1      44.355   2.082   9.426  0.00  0.00    +0.000 HD
ENDBRANCH   5   8
ENDBRANCH   1   2
BRANCH   1  13
ATOM     13  C   UNL     1      47.651   4.752  16.270  0.00  0.00    +0.000 C 
BRANCH  13  17
ATOM     14  C   UNL     1      51.575   3.690  17.848  0.00  0.00    +0.000 A 
ATOM     15  C   UNL     1      51.231   5.018  17.550  0.00  0.00    +0.000 A 
ATOM     16  C   UNL     1      49.976   5.373  17.057  0.00  0.00    +0.000 A 
ATOM     17  C   UNL     1      49.012   4.396  16.806  0.00  0.00    +0.000 A 
ATOM     18  C   UNL     1      49.327   3.066  17.114  0.00  0.00    +0.000 A 
ATOM     19  C   UNL     1      50.585   2.718  17.624  0.00  0.00    +0.000 A 
BRANCH  14  21
ATOM     20  C   UNL     1      54.060   4.138  17.617  0.00  0.00    +0.000 C 
ATOM     21  C   UNL     1      52.979   3.330  18.375  0.00  0.00    +0.000 C 
ATOM     22  C   UNL     1      53.259   1.828  18.162  0.00  0.00    +0.000 C 
ATOM     23  C   UNL     1      53.156   3.618  19.883  0.00  0.00    +0.000 C 
ENDBRANCH  14  21
ENDBRANCH  13  17
ENDBRANCH   1  13
TORSDOF 5
ENDMDL
MODEL 7
REMARK VINA RESULT:    -5.579      3.154      5.392
REMARK INTER + INTRA:          -8.038
REMARK INTER:                  -7.448
REMARK INTRA:                  -0.590
REMARK UNBOUND:                -0.829
REMARK  Name = 
REMARK  8 active torsions:
REMARK  status: ('A' for Active; 'I' for Inactive)
REMARK    1  A    between atoms: C_1  and  C_2
REMARK    2  A    between atoms: C_2  and  C_3
REMARK    3  A    between atoms: C_2  and  C_4
REMARK    4  A    between atoms: C_2  and  C_5
REMARK    5  A    between atoms: C_8  and  C_9
REMARK    6  A    between atoms: C_9  and  O_10
REMARK    7  A    between atoms: O_10  and  C_11
REMARK    8  A    between atoms: C_14  and  C_15
REMARK                            x       y       z     vdW  Elec       q    Type
REMARK                         _______ _______ _______ _____ _____    ______ ____
ROOT
ATOM      1  O   UNL     1      46.834   7.004  13.190  0.00  0.00    +0.000 OA
ENDROOT
BRANCH   1   2
ATOM      2  C   UNL     1      46.114   6.035  12.561  0.00  0.00    +0.000 A 
ATOM      3  C   UNL     1      45.641   6.074  11.254  0.00  0.00    +0.000 A 
ATOM      4  C   UNL     1      44.921   4.991  10.751  0.00  0.00    +0.000 A 
ATOM      5  C   UNL     1      44.698   3.901  11.580  0.00  0.00    +0.000 A 
ATOM      6  N   UNL     1      45.134   3.824  12.867  0.00  0.00    +0.000 NA
ATOM      7  C   UNL     1      45.830   4.897  13.314  0.00  0.00    +0.000 A 
BRANCH   5   8
ATOM      8  C   UNL     1      43.941   2.714  11.055  0.00  0.00    +0.000 C 
ATOM      9  N   UNL     1      44.445   2.151   9.921  0.00  0.00    +0.000 N 
ATOM     10  O   UNL     1      42.932   2.289  11.608  0.00  0.00    +0.000 OA
ATOM     11  H   UNL     1      45.278   2.543   9.492  0.00  0.00    +0.000 HD
ATOM     12  H   UNL     1      43.977   1.359   9.511  0.00  0.00    +0.000 HD
ENDBRANCH   5   8
ENDBRANCH   1   2
BRANCH   1  13
ATOM     13  C   UNL     1      46.894   8.287  12.561  0.00  0.00    +0.000 C 
BRANCH  13  17
ATOM     14  C   UNL     1      50.944   9.002  11.114  0.00  0.00    +0.000 A 
ATOM     15  C   UNL     1      50.034  10.052  11.315  0.00  0.00    +0.000 A 
ATOM     16  C   UNL     1      48.740   9.838  11.790  0.00  0.00    +0.000 A 
ATOM     17  C   UNL     1      48.288   8.545  12.052  0.00  0.00    +0.000 A 
ATOM     18  C   UNL     1      49.186   7.485  11.876  0.00  0.00    +0.000 A 
ATOM     19  C   UNL     1      50.490   7.707  11.413  0.00  0.00    +0.000 A 
BRANCH  14  21
ATOM     20  C   UNL     1      53.410   9.109  11.699  0.00  0.00    +0.000 C 
ATOM     21  C   UNL     1      52.362   9.273  10.571  0.00  0.00    +0.000 C 
ATOM     22  C   UNL     1      52.459  10.714  10.029  0.00  0.00    +0.000 C 
ATOM     23  C   UNL     1      52.767   8.325   9.419  0.00  0.00    +0.000 C 
ENDBRANCH  14  21
ENDBRANCH  13  17
ENDBRANCH   1  13
TORSDOF 5
ENDMDL
MODEL 8
REMARK VINA RESULT:    -5.544      5.336      8.913
REMARK INTER + INTRA:          -7.994
REMARK INTER:                  -7.451
REMARK INTRA:                  -0.543
REMARK UNBOUND:                -0.829
REMARK  Name = 
REMARK  8 active torsions:
REMARK  status: ('A' for Active; 'I' for Inactive)
REMARK    1  A    between atoms: C_1  and  C_2
REMARK    2  A    between atoms: C_2  and  C_3
REMARK    3  A    between atoms: C_2  and  C_4
REMARK    4  A    between atoms: C_2  and  C_5
REMARK    5  A    between atoms: C_8  and  C_9
REMARK    6  A    between atoms: C_9  and  O_10
REMARK    7  A    between atoms: O_10  and  C_11
REMARK    8  A    between atoms: C_14  and  C_15
REMARK                            x       y       z     vdW  Elec       q    Type
REMARK                         _______ _______ _______ _____ _____    ______ ____
ROOT
ATOM      1  O   UNL     1      48.952   5.896  15.050  0.00  0.00    +0.000 OA
ENDROOT
BRANCH   1   2
ATOM      2  C   UNL     1      48.656   6.204  16.343  0.00  0.00    +0.000 A 
ATOM      3  C   UNL     1      48.732   7.462  16.931  0.00  0.00    +0.000 A 
ATOM      4  C   UNL     1      48.386   7.616  18.273  0.00  0.00    +0.000 A 
ATOM      5  C   UNL     1      47.976   6.497  18.983  0.00  0.00    +0.000 A 
ATOM      6  N   UNL     1      47.895   5.247  18.452  0.00  0.00    +0.000 NA
ATOM      7  C   UNL     1      48.239   5.143  17.145  0.00  0.00    +0.000 A 
BRANCH   5   8
ATOM      8  C   UNL     1      47.580   6.641  20.426  0.00  0.00    +0.000 C 
ATOM      9  N   UNL     1      47.150   5.499  21.034  0.00  0.00    +0.000 N 
ATOM     10  O   UNL     1      47.634   7.717  21.011  0.00  0.00    +0.000 OA
ATOM     11  H   UNL     1      47.111   4.633  20.507  0.00  0.00    +0.000 HD
ATOM     12  H   UNL     1      46.858   5.532  21.997  0.00  0.00    +0.000 HD
ENDBRANCH   5   8
ENDBRANCH   1   2
BRANCH   1  13
ATOM     13  C   UNL     1      48.483   6.793  14.040  0.00  0.00    +0.000 C 
BRANCH  13  17
ATOM     14  C   UNL     1      45.106   4.990  11.952  0.00  0.00    +0.000 A 
ATOM     15  C   UNL     1      45.806   6.085  11.421  0.00  0.00    +0.000 A 
ATOM     16  C   UNL     1      46.896   6.662  12.072  0.00  0.00    +0.000 A 
ATOM     17  C   UNL     1      47.313   6.184  13.314  0.00  0.00    +0.000 A 
ATOM     18  C   UNL     1      46.640   5.081  13.854  0.00  0.00    +0.000 A 
ATOM     19  C   UNL     1      45.555   4.494  13.188  0.00  0.00    +0.000 A 
BRANCH  14  21
ATOM     20  C   UNL     1      44.182   4.294   9.695  0.00  0.00    +0.000 C 
ATOM     21  C   UNL     1      43.894   4.387  11.214  0.00  0.00    +0.000 C 
ATOM     22  C   UNL     1      42.650   5.277  11.415  0.00  0.00    +0.000 C 
ATOM     23  C   UNL     1      43.524   2.969  11.704  0.00  0.00    +0.000 C 
ENDBRANCH  14  21
ENDBRANCH  13  17
ENDBRANCH   1  13
TORSDOF 5
ENDMDL
MODEL 9
REMARK VINA RESULT:    -5.520      3.827      6.204
REMARK INTER + INTRA:          -7.963
REMARK INTER:                  -7.247
REMARK INTRA:                  -0.715
REMARK UNBOUND:                -0.829
REMARK  Name = 
REMARK  8 active torsions:
REMARK  status: ('A' for Active; 'I' for Inactive)
REMARK    1  A    between atoms: C_1  and  C_2
REMARK    2  A    between atoms: C_2  and  C_3
REMARK    3  A    between atoms: C_2  and  C_4
REMARK    4  A    between atoms: C_2  and  C_5
REMARK    5  A    between atoms: C_8  and  C_9
REMARK    6  A    between atoms: C_9  and  O_10
REMARK    7  A    between atoms: O_10  and  C_11
REMARK    8  A    between atoms: C_14  and  C_15
REMARK                            x       y       z     vdW  Elec       q    Type
REMARK                         _______ _______ _______ _____ _____    ______ ____
ROOT
ATOM      1  O   UNL     1      48.407   5.962  13.357  0.00  0.00    +0.000 OA
ENDROOT
BRANCH   1   2
ATOM      2  C   UNL     1      47.152   5.838  12.842  0.00  0.00    +0.000 A 
ATOM      3  C   UNL     1      46.651   6.491  11.721  0.00  0.00    +0.000 A 
ATOM      4  C   UNL     1      45.339   6.249  11.315  0.00  0.00    +0.000 A 
ATOM      5  C   UNL     1      44.571   5.358  12.052  0.00  0.00    +0.000 A 
ATOM      6  N   UNL     1      45.018   4.705  13.158  0.00  0.00    +0.000 NA
ATOM      7  C   UNL     1      46.297   4.968  13.517  0.00  0.00    +0.000 A 
BRANCH   5   8
ATOM      8  C   UNL     1      43.161   5.067  11.623  0.00  0.00    +0.000 C 
ATOM      9  N   UNL     1      42.293   6.114  11.707  0.00  0.00    +0.000 N 
ATOM     10  O   UNL     1      42.815   3.957  11.230  0.00  0.00    +0.000 OA
ATOM     11  H   UNL     1      42.620   7.013  12.048  0.00  0.00    +0.000 HD
ATOM     12  H   UNL     1      41.330   5.981  11.446  0.00  0.00    +0.000 HD
ENDBRANCH   5   8
ENDBRANCH   1   2
BRANCH   1  13
ATOM     13  C   UNL     1      48.856   7.282  13.673  0.00  0.00    +0.000 C 
BRANCH  13  17
ATOM     14  C   UNL     1      48.352   8.092  17.928  0.00  0.00    +0.000 A 
ATOM     15  C   UNL     1      48.707   6.820  17.453  0.00  0.00    +0.000 A 
ATOM     16  C   UNL     1      48.884   6.550  16.097  0.00  0.00    +0.000 A 
ATOM     17  C   UNL     1      48.677   7.548  15.144  0.00  0.00    +0.000 A 
ATOM     18  C   UNL     1      48.340   8.830  15.597  0.00  0.00    +0.000 A 
ATOM     19  C   UNL     1      48.180   9.099  16.963  0.00  0.00    +0.000 A 
BRANCH  14  21
ATOM     20  C   UNL     1      47.116   9.486  19.649  0.00  0.00    +0.000 C 
ATOM     21  C   UNL     1      48.148   8.351  19.434  0.00  0.00    +0.000 C 
ATOM     22  C   UNL     1      49.479   8.779  20.086  0.00  0.00    +0.000 C 
ATOM     23  C   UNL     1      47.641   7.110  20.204  0.00  0.00    +0.000 C 
ENDBRANCH  14  21
ENDBRANCH  13  17
ENDBRANCH   1  13
TORSDOF 5
ENDMDL
