MODEL 1
REMARK VINA RESULT:    -7.872      0.000      0.000
REMARK INTER + INTRA:         -12.875
REMARK INTER:                 -11.554
REMARK INTRA:                  -1.321
REMARK UNBOUND:                -1.321
REMARK  Name = 
REMARK  10 active torsions:
REMARK  status: ('A' for Active; 'I' for Inactive)
REMARK    1  A    between atoms: C_1  and  C_2
REMARK    2  A    between atoms: C_2  and  N_3
REMARK    3  A    between atoms: N_3  and  C_4
REMARK    4  A    between atoms: N_3  and  C_25
REMARK    5  A    between atoms: C_4  and  C_5
REMARK    6  A    between atoms: C_8  and  C_9
REMARK    7  A    between atoms: C_9  and  N_10
REMARK    8  A    between atoms: C_11  and  C_13
REMARK    9  A    between atoms: C_25  and  C_26
REMARK   10  A    between atoms: C_25  and  C_27
REMARK                            x       y       z     vdW  Elec       q    Type
REMARK                         _______ _______ _______ _____ _____    ______ ____
ROOT
ATOM      1  C   UNL     1      45.346   6.351  11.041  0.00  0.00    +0.000 A 
ATOM      2  C   UNL     1      44.669   7.259  11.856  0.00  0.00    +0.000 A 
ATOM      3  C   UNL     1      45.398   8.039  12.755  0.00  0.00    +0.000 A 
ATOM      4  C   UNL     1      46.784   7.890  12.839  0.00  0.00    +0.000 A 
ATOM      5  C   UNL     1      47.382   7.026  11.929  0.00  0.00    +0.000 A 
ATOM      6  N   UNL     1      46.701   6.259  11.045  0.00  0.00    +0.000 NA
ENDROOT
BRANCH   1   7
ATOM      7  C   UNL     1      44.575   5.303  10.239  0.00  0.00    +0.000 C 
BRANCH   7   8
ATOM      8  N   UNL     1      45.094   3.914  10.325  0.00  0.00    +0.000 NA
BRANCH   8  10
ATOM      9  C   UNL     1      43.396   3.747  12.217  0.00  0.00    +0.000 C 
ATOM     10  C   UNL     1      44.756   3.349  11.648  0.00  0.00    +0.000 C 
ENDBRANCH   8  10
BRANCH   8  11
ATOM     11  C   UNL     1      44.680   3.065   9.168  0.00  0.00    +0.000 C 
ATOM     12  C   UNL     1      44.076   1.710   9.588  0.00  0.00    +0.000 C 
BRANCH  11  13
ATOM     13  C   UNL     1      45.720   2.805   8.071  0.00  0.00    +0.000 A 
ATOM     14  C   UNL     1      46.389   1.580   8.025  0.00  0.00    +0.000 A 
ATOM     15  C   UNL     1      47.380   1.378   7.071  0.00  0.00    +0.000 A 
ATOM     16  C   UNL     1      47.699   2.408   6.197  0.00  0.00    +0.000 A 
ATOM     17  C   UNL     1      46.998   3.597   6.309  0.00  0.00    +0.000 A 
ATOM     18  N   UNL     1      46.019   3.816   7.215  0.00  0.00    +0.000 NA
ENDBRANCH  11  13
ENDBRANCH   8  11
ENDBRANCH   7   8
ENDBRANCH   1   7
BRANCH   4  19
ATOM     19  C   UNL     1      47.594   8.605  13.877  0.00  0.00    +0.000 C 
BRANCH  19  20
ATOM     20  N   UNL     1      47.880   7.771  15.014  0.00  0.00    +0.000 N 
ATOM     21  C   UNL     1      49.100   7.159  15.149  0.00  0.00    +0.000 C 
ATOM     22  O   UNL     1      50.011   7.339  14.345  0.00  0.00    +0.000 OA
ATOM     23  H   UNL     1      47.085   7.420  15.542  0.00  0.00    +0.000 HD
BRANCH  21  24
ATOM     24  C   UNL     1      49.286   6.322  16.340  0.00  0.00    +0.000 A 
ATOM     25  C   UNL     1      50.265   6.654  17.268  0.00  0.00    +0.000 A 
ATOM     26  S   UNL     1      50.308   5.611  18.616  0.00  0.00    +0.000 S 
ATOM     27  C   UNL     1      49.058   4.649  17.982  0.00  0.00    +0.000 A 
ATOM     28  N   UNL     1      48.621   3.543  18.642  0.00  0.00    +0.000 NA
ATOM     29  C   UNL     1      47.689   2.890  18.033  0.00  0.00    +0.000 A 
ATOM     30  N   UNL     1      47.150   3.242  16.821  0.00  0.00    +0.000 N 
ATOM     31  C   UNL     1      47.543   4.361  16.130  0.00  0.00    +0.000 A 
ATOM     32  O   UNL     1      47.017   4.672  15.064  0.00  0.00    +0.000 OA
ATOM     33  C   UNL     1      48.599   5.127  16.767  0.00  0.00    +0.000 A 
ATOM     34  H   UNL     1      46.420   2.688  16.400  0.00  0.00    +0.000 HD
ENDBRANCH  21  24
ENDBRANCH  19  20
ENDBRANCH   4  19
TORSDOF 8
ENDMDL
MODEL 2
REMARK VINA RESULT:    -7.473      2.752      3.711
REMARK INTER + INTRA:         -12.289
REMARK INTER:                 -11.226
REMARK INTRA:                  -1.063
REMARK UNBOUND:                -1.321
REMARK  Name = 
REMARK  10 active torsions:
REMARK  status: ('A' for Active; 'I' for Inactive)
REMARK    1  A    between atoms: C_1  and  C_2
REMARK    2  A    between atoms: C_2  and  N_3
REMARK    3  A    between atoms: N_3  and  C_4
REMARK    4  A    between atoms: N_3  and  C_25
REMARK    5  A    between atoms: C_4  and  C_5
REMARK    6  A    between atoms: C_8  and  C_9
REMARK    7  A    between atoms: C_9  and  N_10
REMARK    8  A    between atoms: C_11  and  C_13
REMARK    9  A    between atoms: C_25  and  C_26
REMARK   10  A    between atoms: C_25  and  C_27
REMARK                            x       y       z     vdW  Elec       q    Type
REMARK                         _______ _______ _______ _____ _____    ______ ____
ROOT
ATOM      1  C   UNL     1      46.889   4.866  13.398  0.00  0.00    +0.000 A 
ATOM      2  C   UNL     1      47.616   6.042  13.585  0.00  0.00    +0.000 A 
ATOM      3  C   UNL     1      48.151   6.316  14.844  0.00  0.00    +0.000 A 
ATOM      4  C   UNL     1      47.941   5.425  15.898  0.00  0.00    +0.000 A 
ATOM      5  C   UNL     1      47.281   4.240  15.599  0.00  0.00    +0.000 A 
ATOM      6  N   UNL     1      46.752   3.945  14.387  0.00  0.00    +0.000 NA
ENDROOT
BRANCH   1   7
ATOM      7  C   UNL     1      46.071   4.652  12.125  0.00  0.00    +0.000 C 
BRANCH   7   8
ATOM      8  N   UNL     1      44.612   4.456  12.319  0.00  0.00    +0.000 NA
BRANCH   8  10
ATOM      9  C   UNL     1      43.026   6.313  11.594  0.00  0.00    +0.000 C 
ATOM     10  C   UNL     1      43.986   5.755  12.642  0.00  0.00    +0.000 C 
ENDBRANCH   8  10
BRANCH   8  11
ATOM     11  C   UNL     1      43.967   3.724  11.189  0.00  0.00    +0.000 C 
ATOM     12  C   UNL     1      43.290   2.407  11.620  0.00  0.00    +0.000 C 
BRANCH  11  13
ATOM     13  C   UNL     1      44.821   3.438   9.948  0.00  0.00    +0.000 A 
ATOM     14  C   UNL     1      45.184   4.486   9.099  0.00  0.00    +0.000 A 
ATOM     15  C   UNL     1      45.899   4.209   7.939  0.00  0.00    +0.000 A 
ATOM     16  C   UNL     1      46.218   2.893   7.638  0.00  0.00    +0.000 A 
ATOM     17  C   UNL     1      45.815   1.907   8.523  0.00  0.00    +0.000 A 
ATOM     18  N   UNL     1      45.134   2.148   9.665  0.00  0.00    +0.000 NA
ENDBRANCH  11  13
ENDBRANCH   8  11
ENDBRANCH   7   8
ENDBRANCH   1   7
BRANCH   4  19
ATOM     19  C   UNL     1      48.380   5.737  17.297  0.00  0.00    +0.000 C 
BRANCH  19  20
ATOM     20  N   UNL     1      49.495   4.928  17.710  0.00  0.00    +0.000 N 
ATOM     21  C   UNL     1      50.778   5.267  17.363  0.00  0.00    +0.000 C 
ATOM     22  O   UNL     1      51.033   6.296  16.741  0.00  0.00    +0.000 OA
ATOM     23  H   UNL     1      49.294   3.974  18.000  0.00  0.00    +0.000 HD
BRANCH  21  24
ATOM     24  C   UNL     1      51.843   4.371  17.828  0.00  0.00    +0.000 A 
ATOM     25  C   UNL     1      52.983   4.903  18.417  0.00  0.00    +0.000 A 
ATOM     26  S   UNL     1      54.090   3.721  18.948  0.00  0.00    +0.000 S 
ATOM     27  C   UNL     1      53.112   2.460  18.362  0.00  0.00    +0.000 A 
ATOM     28  N   UNL     1      53.502   1.161  18.469  0.00  0.00    +0.000 NA
ATOM     29  C   UNL     1      52.678   0.311  17.956  0.00  0.00    +0.000 A 
ATOM     30  N   UNL     1      51.495   0.639  17.344  0.00  0.00    +0.000 N 
ATOM     31  C   UNL     1      51.049   1.932  17.233  0.00  0.00    +0.000 A 
ATOM     32  O   UNL     1      49.968   2.194  16.712  0.00  0.00    +0.000 OA
ATOM     33  C   UNL     1      51.946   2.932  17.786  0.00  0.00    +0.000 A 
ATOM     34  H   UNL     1      50.894  -0.077  16.965  0.00  0.00    +0.000 HD
ENDBRANCH  21  24
ENDBRANCH  19  20
ENDBRANCH   4  19
TORSDOF 8
ENDMDL
MODEL 3
REMARK VINA RESULT:    -6.926      1.625      2.310
REMARK INTER + INTRA:         -11.486
REMARK INTER:                  -9.956
REMARK INTRA:                  -1.530
REMARK UNBOUND:                -1.321
REMARK  Name = 
REMARK  10 active torsions:
REMARK  status: ('A' for Active; 'I' for Inactive)
REMARK    1  A    between atoms: C_1  and  C_2
REMARK    2  A    between atoms: C_2  and  N_3
REMARK    3  A    between atoms: N_3  and  C_4
REMARK    4  A    between atoms: N_3  and  C_25
REMARK    5  A    between atoms: C_4  and  C_5
REMARK    6  A    between atoms: C_8  and  C_9
REMARK    7  A    between atoms: C_9  and  N_10
REMARK    8  A    between atoms: C_11  and  C_13
REMARK    9  A    between atoms: C_25  and  C_26
REMARK   10  A    between atoms: C_25  and  C_27
REMARK                            x       y       z     vdW  Elec       q    Type
REMARK                         _______ _______ _______ _____ _____    ______ ____
ROOT
ATOM      1  C   UNL     1      46.769   7.580  12.159  0.00  0.00    +0.000 A 
ATOM      2  C   UNL     1      46.708   8.457  13.241  0.00  0.00    +0.000 A 
ATOM      3  C   UNL     1      47.887   8.794  13.908  0.00  0.00    +0.000 A 
ATOM      4  C   UNL     1      49.101   8.240  13.497  0.00  0.00    +0.000 A 
ATOM      5  C   UNL     1      49.078   7.446  12.357  0.00  0.00    +0.000 A 
ATOM      6  N   UNL     1      47.951   7.104  11.688  0.00  0.00    +0.000 NA
ENDROOT
BRANCH   1   7
ATOM      7  C   UNL     1      45.490   6.984  11.570  0.00  0.00    +0.000 C 
BRANCH   7   8
ATOM      8  N   UNL     1      45.426   5.501  11.534  0.00  0.00    +0.000 NA
BRANCH   8  10
ATOM      9  C   UNL     1      46.324   4.313  13.602  0.00  0.00    +0.000 C 
ATOM     10  C   UNL     1      45.154   4.993  12.895  0.00  0.00    +0.000 C 
ENDBRANCH   8  10
BRANCH   8  11
ATOM     11  C   UNL     1      44.498   4.983  10.485  0.00  0.00    +0.000 C 
ATOM     12  C   UNL     1      43.236   4.310  11.062  0.00  0.00    +0.000 C 
BRANCH  11  13
ATOM     13  C   UNL     1      45.085   4.057   9.413  0.00  0.00    +0.000 A 
ATOM     14  C   UNL     1      45.027   2.672   9.584  0.00  0.00    +0.000 A 
ATOM     15  C   UNL     1      45.624   1.841   8.642  0.00  0.00    +0.000 A 
ATOM     16  C   UNL     1      46.283   2.407   7.561  0.00  0.00    +0.000 A 
ATOM     17  C   UNL     1      46.306   3.789   7.463  0.00  0.00    +0.000 A 
ATOM     18  N   UNL     1      45.722   4.620   8.354  0.00  0.00    +0.000 NA
ENDBRANCH  11  13
ENDBRANCH   8  11
ENDBRANCH   7   8
ENDBRANCH   1   7
BRANCH   4  19
ATOM     19  C   UNL     1      50.371   8.465  14.261  0.00  0.00    +0.000 C 
BRANCH  19  20
ATOM     20  N   UNL     1      50.311   7.920  15.590  0.00  0.00    +0.000 N 
ATOM     21  C   UNL     1      51.378   7.243  16.123  0.00  0.00    +0.000 C 
ATOM     22  O   UNL     1      52.440   7.124  15.518  0.00  0.00    +0.000 OA
ATOM     23  H   UNL     1      49.387   7.794  15.998  0.00  0.00    +0.000 HD
BRANCH  21  24
ATOM     24  C   UNL     1      51.210   6.719  17.483  0.00  0.00    +0.000 A 
ATOM     25  C   UNL     1      52.091   7.108  18.484  0.00  0.00    +0.000 A 
ATOM     26  S   UNL     1      51.719   6.451  20.013  0.00  0.00    +0.000 S 
ATOM     27  C   UNL     1      50.401   5.583  19.381  0.00  0.00    +0.000 A 
ATOM     28  N   UNL     1      49.651   4.772  20.175  0.00  0.00    +0.000 NA
ATOM     29  C   UNL     1      48.701   4.150  19.559  0.00  0.00    +0.000 A 
ATOM     30  N   UNL     1      48.430   4.267  18.219  0.00  0.00    +0.000 N 
ATOM     31  C   UNL     1      49.145   5.090  17.385  0.00  0.00    +0.000 A 
ATOM     32  O   UNL     1      48.856   5.203  16.195  0.00  0.00    +0.000 OA
ATOM     33  C   UNL     1      50.233   5.805  18.026  0.00  0.00    +0.000 A 
ATOM     34  H   UNL     1      47.669   3.754  17.800  0.00  0.00    +0.000 HD
ENDBRANCH  21  24
ENDBRANCH  19  20
ENDBRANCH   4  19
TORSDOF 8
ENDMDL
MODEL 4
REMARK VINA RESULT:    -6.904      2.829      8.486
REMARK INTER + INTRA:         -11.454
REMARK INTER:                  -9.967
REMARK INTRA:                  -1.487
REMARK UNBOUND:                -1.321
REMARK  Name = 
REMARK  10 active torsions:
REMARK  status: ('A' for Active; 'I' for Inactive)
REMARK    1  A    between atoms: C_1  and  C_2
REMARK    2  A    between atoms: C_2  and  N_3
REMARK    3  A    between atoms: N_3  and  C_4
REMARK    4  A    between atoms: N_3  and  C_25
REMARK    5  A    between atoms: C_4  and  C_5
REMARK    6  A    between atoms: C_8  and  C_9
REMARK    7  A    between atoms: C_9  and  N_10
REMARK    8  A    between atoms: C_11  and  C_13
REMARK    9  A    between atoms: C_25  and  C_26
REMARK   10  A    between atoms: C_25  and  C_27
REMARK                            x       y       z     vdW  Elec       q    Type
REMARK                         _______ _______ _______ _____ _____    ______ ____
ROOT
ATOM      1  C   UNL     1      49.779   7.644  15.435  0.00  0.00    +0.000 A 
ATOM      2  C   UNL     1      49.462   8.900  14.919  0.00  0.00    +0.000 A 
ATOM      3  C   UNL     1      48.585   8.987  13.836  0.00  0.00    +0.000 A 
ATOM      4  C   UNL     1      48.052   7.824  13.278  0.00  0.00    +0.000 A 
ATOM      5  C   UNL     1      48.355   6.625  13.911  0.00  0.00    +0.000 A 
ATOM      6  N   UNL     1      49.200   6.509  14.964  0.00  0.00    +0.000 NA
ENDROOT
BRANCH   1   7
ATOM      7  C   UNL     1      50.923   7.482  16.436  0.00  0.00    +0.000 C 
BRANCH   7   8
ATOM      8  N   UNL     1      51.358   6.087  16.699  0.00  0.00    +0.000 NA
BRANCH   8  10
ATOM      9  C   UNL     1      53.535   7.201  15.985  0.00  0.00    +0.000 C 
ATOM     10  C   UNL     1      52.834   6.021  16.653  0.00  0.00    +0.000 C 
ENDBRANCH   8  10
BRANCH   8  11
ATOM     11  C   UNL     1      50.753   5.511  17.937  0.00  0.00    +0.000 C 
ATOM     12  C   UNL     1      51.763   4.733  18.807  0.00  0.00    +0.000 C 
BRANCH  11  13
ATOM     13  C   UNL     1      49.496   4.649  17.779  0.00  0.00    +0.000 A 
ATOM     14  C   UNL     1      49.608   3.338  17.310  0.00  0.00    +0.000 A 
ATOM     15  C   UNL     1      48.456   2.586  17.102  0.00  0.00    +0.000 A 
ATOM     16  C   UNL     1      47.218   3.162  17.344  0.00  0.00    +0.000 A 
ATOM     17  C   UNL     1      47.186   4.470  17.798  0.00  0.00    +0.000 A 
ATOM     18  N   UNL     1      48.289   5.219  18.025  0.00  0.00    +0.000 NA
ENDBRANCH  11  13
ENDBRANCH   8  11
ENDBRANCH   7   8
ENDBRANCH   1   7
BRANCH   4  19
ATOM     19  C   UNL     1      47.214   7.855  12.036  0.00  0.00    +0.000 C 
BRANCH  19  20
ATOM     20  N   UNL     1      46.610   6.580  11.755  0.00  0.00    +0.000 N 
ATOM     21  C   UNL     1      45.246   6.443  11.702  0.00  0.00    +0.000 C 
ATOM     22  O   UNL     1      44.491   7.403  11.833  0.00  0.00    +0.000 OA
ATOM     23  H   UNL     1      47.188   5.754  11.887  0.00  0.00    +0.000 HD
BRANCH  21  24
ATOM     24  C   UNL     1      44.732   5.099  11.418  0.00  0.00    +0.000 A 
ATOM     25  C   UNL     1      43.997   4.424  12.384  0.00  0.00    +0.000 A 
ATOM     26  S   UNL     1      43.430   2.901  11.869  0.00  0.00    +0.000 S 
ATOM     27  C   UNL     1      44.191   3.066  10.358  0.00  0.00    +0.000 A 
ATOM     28  N   UNL     1      44.125   2.076   9.428  0.00  0.00    +0.000 NA
ATOM     29  C   UNL     1      44.772   2.321   8.338  0.00  0.00    +0.000 A 
ATOM     30  N   UNL     1      45.480   3.470   8.091  0.00  0.00    +0.000 N 
ATOM     31  C   UNL     1      45.555   4.505   8.989  0.00  0.00    +0.000 A 
ATOM     32  O   UNL     1      46.167   5.538   8.726  0.00  0.00    +0.000 OA
ATOM     33  C   UNL     1      44.853   4.275  10.238  0.00  0.00    +0.000 A 
ATOM     34  H   UNL     1      45.962   3.600   7.214  0.00  0.00    +0.000 HD
ENDBRANCH  21  24
ENDBRANCH  19  20
ENDBRANCH   4  19
TORSDOF 8
ENDMDL
MODEL 5
REMARK VINA RESULT:    -6.877      2.690      8.355
REMARK INTER + INTRA:         -11.415
REMARK INTER:                  -9.686
REMARK INTRA:                  -1.729
REMARK UNBOUND:                -1.321
REMARK  Name = 
REMARK  10 active torsions:
REMARK  status: ('A' for Active; 'I' for Inactive)
REMARK    1  A    between atoms: C_1  and  C_2
REMARK    2  A    between atoms: C_2  and  N_3
REMARK    3  A    between atoms: N_3  and  C_4
REMARK    4  A    between atoms: N_3  and  C_25
REMARK    5  A    between atoms: C_4  and  C_5
REMARK    6  A    between atoms: C_8  and  C_9
REMARK    7  A    between atoms: C_9  and  N_10
REMARK    8  A    between atoms: C_11  and  C_13
REMARK    9  A    between atoms: C_25  and  C_26
REMARK   10  A    between atoms: C_25  and  C_27
REMARK                            x       y       z     vdW  Elec       q    Type
REMARK                         _______ _______ _______ _____ _____    ______ ____
ROOT
ATOM      1  C   UNL     1      49.238   8.397  15.772  0.00  0.00    +0.000 A 
ATOM      2  C   UNL     1      49.685   7.291  15.049  0.00  0.00    +0.000 A 
ATOM      3  C   UNL     1      49.282   7.141  13.721  0.00  0.00    +0.000 A 
ATOM      4  C   UNL     1      48.431   8.084  13.142  0.00  0.00    +0.000 A 
ATOM      5  C   UNL     1      48.107   9.196  13.909  0.00  0.00    +0.000 A 
ATOM      6  N   UNL     1      48.484   9.371  15.198  0.00  0.00    +0.000 NA
ENDROOT
BRANCH   1   7
ATOM      7  C   UNL     1      49.435   8.467  17.286  0.00  0.00    +0.000 C 
BRANCH   7   8
ATOM      8  N   UNL     1      49.997   7.248  17.921  0.00  0.00    +0.000 NA
BRANCH   8  10
ATOM      9  C   UNL     1      52.394   6.913  18.716  0.00  0.00    +0.000 C 
ATOM     10  C   UNL     1      51.060   7.640  18.869  0.00  0.00    +0.000 C 
ENDBRANCH   8  10
BRANCH   8  11
ATOM     11  C   UNL     1      48.949   6.358  18.503  0.00  0.00    +0.000 C 
ATOM     12  C   UNL     1      49.065   6.194  20.033  0.00  0.00    +0.000 C 
BRANCH  11  13
ATOM     13  C   UNL     1      48.777   4.965  17.886  0.00  0.00    +0.000 A 
ATOM     14  C   UNL     1      49.794   4.016  18.020  0.00  0.00    +0.000 A 
ATOM     15  C   UNL     1      49.661   2.780  17.397  0.00  0.00    +0.000 A 
ATOM     16  C   UNL     1      48.529   2.522  16.637  0.00  0.00    +0.000 A 
ATOM     17  C   UNL     1      47.569   3.515  16.543  0.00  0.00    +0.000 A 
ATOM     18  N   UNL     1      47.663   4.719  17.150  0.00  0.00    +0.000 NA
ENDBRANCH  11  13
ENDBRANCH   8  11
ENDBRANCH   7   8
ENDBRANCH   1   7
BRANCH   4  19
ATOM     19  C   UNL     1      47.865   7.899  11.766  0.00  0.00    +0.000 C 
BRANCH  19  20
ATOM     20  N   UNL     1      47.120   6.674  11.645  0.00  0.00    +0.000 N 
ATOM     21  C   UNL     1      45.756   6.662  11.786  0.00  0.00    +0.000 C 
ATOM     22  O   UNL     1      45.111   7.693  11.964  0.00  0.00    +0.000 OA
ATOM     23  H   UNL     1      47.638   5.804  11.744  0.00  0.00    +0.000 HD
BRANCH  21  24
ATOM     24  C   UNL     1      45.094   5.360  11.652  0.00  0.00    +0.000 A 
ATOM     25  C   UNL     1      44.437   4.806  12.744  0.00  0.00    +0.000 A 
ATOM     26  S   UNL     1      43.676   3.320  12.400  0.00  0.00    +0.000 S 
ATOM     27  C   UNL     1      44.242   3.337  10.797  0.00  0.00    +0.000 A 
ATOM     28  N   UNL     1      43.969   2.312   9.946  0.00  0.00    +0.000 NA
ATOM     29  C   UNL     1      44.485   2.441   8.770  0.00  0.00    +0.000 A 
ATOM     30  N   UNL     1      45.252   3.504   8.364  0.00  0.00    +0.000 N 
ATOM     31  C   UNL     1      45.535   4.570   9.180  0.00  0.00    +0.000 A 
ATOM     32  O   UNL     1      46.194   5.527   8.779  0.00  0.00    +0.000 OA
ATOM     33  C   UNL     1      44.986   4.471  10.521  0.00  0.00    +0.000 A 
ATOM     34  H   UNL     1      45.624   3.544   7.427  0.00  0.00    +0.000 HD
ENDBRANCH  21  24
ENDBRANCH  19  20
ENDBRANCH   4  19
TORSDOF 8
ENDMDL
MODEL 6
REMARK VINA RESULT:    -6.785      2.960      4.204
REMARK INTER + INTRA:         -11.280
REMARK INTER:                 -10.334
REMARK INTRA:                  -0.946
REMARK UNBOUND:                -1.321
REMARK  Name = 
REMARK  10 active torsions:
REMARK  status: ('A' for Active; 'I' for Inactive)
REMARK    1  A    between atoms: C_1  and  C_2
REMARK    2  A    between atoms: C_2  and  N_3
REMARK    3  A    between atoms: N_3  and  C_4
REMARK    4  A    between atoms: N_3  and  C_25
REMARK    5  A    between atoms: C_4  and  C_5
REMARK    6  A    between atoms: C_8  and  C_9
REMARK    7  A    between atoms: C_9  and  N_10
REMARK    8  A    between atoms: C_11  and  C_13
REMARK    9  A    between atoms: C_25  and  C_26
REMARK   10  A    between atoms: C_25  and  C_27
REMARK                            x       y       z     vdW  Elec       q    Type
REMARK                         _______ _______ _______ _____ _____    ______ ____
ROOT
ATOM      1  C   UNL     1      46.688   5.146  12.996  0.00  0.00    +0.000 A 
ATOM      2  C   UNL     1      47.570   6.191  13.268  0.00  0.00    +0.000 A 
ATOM      3  C   UNL     1      48.159   6.271  14.531  0.00  0.00    +0.000 A 
ATOM      4  C   UNL     1      47.846   5.321  15.504  0.00  0.00    +0.000 A 
ATOM      5  C   UNL     1      47.026   4.268  15.118  0.00  0.00    +0.000 A 
ATOM      6  N   UNL     1      46.443   4.162  13.900  0.00  0.00    +0.000 NA
ENDROOT
BRANCH   1   7
ATOM      7  C   UNL     1      45.827   5.165  11.732  0.00  0.00    +0.000 C 
BRANCH   7   8
ATOM      8  N   UNL     1      44.368   4.987  11.942  0.00  0.00    +0.000 NA
BRANCH   8  10
ATOM      9  C   UNL     1      44.539   7.455  11.330  0.00  0.00    +0.000 C 
ATOM     10  C   UNL     1      43.706   6.308  11.898  0.00  0.00    +0.000 C 
ENDBRANCH   8  10
BRANCH   8  11
ATOM     11  C   UNL     1      43.768   3.966  11.031  0.00  0.00    +0.000 C 
ATOM     12  C   UNL     1      43.316   2.686  11.762  0.00  0.00    +0.000 C 
BRANCH  11  13
ATOM     13  C   UNL     1      44.579   3.552   9.798  0.00  0.00    +0.000 A 
ATOM     14  C   UNL     1      44.918   2.210   9.609  0.00  0.00    +0.000 A 
ATOM     15  C   UNL     1      45.713   1.851   8.525  0.00  0.00    +0.000 A 
ATOM     16  C   UNL     1      46.171   2.839   7.666  0.00  0.00    +0.000 A 
ATOM     17  C   UNL     1      45.801   4.149   7.922  0.00  0.00    +0.000 A 
ATOM     18  N   UNL     1      45.016   4.524   8.958  0.00  0.00    +0.000 NA
ENDBRANCH  11  13
ENDBRANCH   8  11
ENDBRANCH   7   8
ENDBRANCH   1   7
BRANCH   4  19
ATOM     19  C   UNL     1      48.347   5.437  16.913  0.00  0.00    +0.000 C 
BRANCH  19  20
ATOM     20  N   UNL     1      49.602   4.761  17.102  0.00  0.00    +0.000 N 
ATOM     21  C   UNL     1      49.650   3.504  17.648  0.00  0.00    +0.000 C 
ATOM     22  O   UNL     1      48.631   2.884  17.943  0.00  0.00    +0.000 OA
ATOM     23  H   UNL     1      50.443   5.334  17.098  0.00  0.00    +0.000 HD
BRANCH  21  24
ATOM     24  C   UNL     1      50.981   2.907  17.806  0.00  0.00    +0.000 A 
ATOM     25  C   UNL     1      51.220   1.624  17.332  0.00  0.00    +0.000 A 
ATOM     26  S   UNL     1      52.831   1.107  17.547  0.00  0.00    +0.000 S 
ATOM     27  C   UNL     1      53.251   2.557  18.329  0.00  0.00    +0.000 A 
ATOM     28  N   UNL     1      54.508   2.757  18.808  0.00  0.00    +0.000 NA
ATOM     29  C   UNL     1      54.679   3.888  19.405  0.00  0.00    +0.000 A 
ATOM     30  N   UNL     1      53.707   4.843  19.566  0.00  0.00    +0.000 N 
ATOM     31  C   UNL     1      52.433   4.696  19.080  0.00  0.00    +0.000 A 
ATOM     32  O   UNL     1      51.592   5.583  19.207  0.00  0.00    +0.000 OA
ATOM     33  C   UNL     1      52.182   3.433  18.408  0.00  0.00    +0.000 A 
ATOM     34  H   UNL     1      53.909   5.710  20.042  0.00  0.00    +0.000 HD
ENDBRANCH  21  24
ENDBRANCH  19  20
ENDBRANCH   4  19
TORSDOF 8
ENDMDL
MODEL 7
REMARK VINA RESULT:    -6.755      4.539      9.786
REMARK INTER + INTRA:         -11.236
REMARK INTER:                  -9.973
REMARK INTRA:                  -1.263
REMARK UNBOUND:                -1.321
REMARK  Name = 
REMARK  10 active torsions:
REMARK  status: ('A' for Active; 'I' for Inactive)
REMARK    1  A    between atoms: C_1  and  C_2
REMARK    2  A    between atoms: C_2  and  N_3
REMARK    3  A    between atoms: N_3  and  C_4
REMARK    4  A    between atoms: N_3  and  C_25
REMARK    5  A    between atoms: C_4  and  C_5
REMARK    6  A    between atoms: C_8  and  C_9
REMARK    7  A    between atoms: C_9  and  N_10
REMARK    8  A    between atoms: C_11  and  C_13
REMARK    9  A    between atoms: C_25  and  C_26
REMARK   10  A    between atoms: C_25  and  C_27
REMARK                            x       y       z     vdW  Elec       q    Type
REMARK                         _______ _______ _______ _____ _____    ______ ____
ROOT
ATOM      1  C   UNL     1      51.306   4.011  18.019  0.00  0.00    +0.000 A 
ATOM      2  C   UNL     1      50.963   2.745  17.544  0.00  0.00    +0.000 A 
ATOM      3  C   UNL     1      49.669   2.527  17.068  0.00  0.00    +0.000 A 
ATOM      4  C   UNL     1      48.737   3.565  17.090  0.00  0.00    +0.000 A 
ATOM      5  C   UNL     1      49.191   4.813  17.499  0.00  0.00    +0.000 A 
ATOM      6  N   UNL     1      50.440   5.056  17.963  0.00  0.00    +0.000 NA
ENDROOT
BRANCH   1   7
ATOM      7  C   UNL     1      52.612   4.226  18.784  0.00  0.00    +0.000 C 
BRANCH   7   8
ATOM      8  N   UNL     1      53.801   3.521  18.243  0.00  0.00    +0.000 NA
BRANCH   8  10
ATOM      9  C   UNL     1      55.518   4.333  16.544  0.00  0.00    +0.000 C 
ATOM     10  C   UNL     1      54.842   4.513  17.901  0.00  0.00    +0.000 C 
ENDBRANCH   8  10
BRANCH   8  11
ATOM     11  C   UNL     1      54.272   2.411  19.124  0.00  0.00    +0.000 C 
ATOM     12  C   UNL     1      55.538   2.766  19.932  0.00  0.00    +0.000 C 
BRANCH  11  13
ATOM     13  C   UNL     1      54.486   1.036  18.482  0.00  0.00    +0.000 A 
ATOM     14  C   UNL     1      54.475   0.910  17.091  0.00  0.00    +0.000 A 
ATOM     15  C   UNL     1      54.599  -0.351  16.517  0.00  0.00    +0.000 A 
ATOM     16  C   UNL     1      54.710  -1.461  17.341  0.00  0.00    +0.000 A 
ATOM     17  C   UNL     1      54.704  -1.259  18.711  0.00  0.00    +0.000 A 
ATOM     18  N   UNL     1      54.601  -0.045  19.296  0.00  0.00    +0.000 NA
ENDBRANCH  11  13
ENDBRANCH   8  11
ENDBRANCH   7   8
ENDBRANCH   1   7
BRANCH   4  19
ATOM     19  C   UNL     1      47.301   3.346  16.716  0.00  0.00    +0.000 C 
BRANCH  19  20
ATOM     20  N   UNL     1      46.818   4.349  15.804  0.00  0.00    +0.000 N 
ATOM     21  C   UNL     1      46.854   4.145  14.449  0.00  0.00    +0.000 C 
ATOM     22  O   UNL     1      47.244   3.087  13.961  0.00  0.00    +0.000 OA
ATOM     23  H   UNL     1      46.728   5.296  16.163  0.00  0.00    +0.000 HD
BRANCH  21  24
ATOM     24  C   UNL     1      46.345   5.233  13.607  0.00  0.00    +0.000 A 
ATOM     25  C   UNL     1      47.121   6.367  13.404  0.00  0.00    +0.000 A 
ATOM     26  S   UNL     1      46.404   7.506  12.357  0.00  0.00    +0.000 S 
ATOM     27  C   UNL     1      45.009   6.549  12.182  0.00  0.00    +0.000 A 
ATOM     28  N   UNL     1      43.962   6.969  11.423  0.00  0.00    +0.000 NA
ATOM     29  C   UNL     1      42.957   6.159  11.402  0.00  0.00    +0.000 A 
ATOM     30  N   UNL     1      42.903   4.963  12.072  0.00  0.00    +0.000 N 
ATOM     31  C   UNL     1      43.943   4.488  12.830  0.00  0.00    +0.000 A 
ATOM     32  O   UNL     1      43.881   3.395  13.390  0.00  0.00    +0.000 OA
ATOM     33  C   UNL     1      45.096   5.367  12.896  0.00  0.00    +0.000 A 
ATOM     34  H   UNL     1      42.086   4.374  12.011  0.00  0.00    +0.000 HD
ENDBRANCH  21  24
ENDBRANCH  19  20
ENDBRANCH   4  19
TORSDOF 8
ENDMDL
MODEL 8
REMARK VINA RESULT:    -6.573      3.125      8.177
REMARK INTER + INTRA:         -10.968
REMARK INTER:                  -9.515
REMARK INTRA:                  -1.453
REMARK UNBOUND:                -1.321
REMARK  Name = 
REMARK  10 active torsions:
REMARK  status: ('A' for Active; 'I' for Inactive)
REMARK    1  A    between atoms: C_1  and  C_2
REMARK    2  A    between atoms: C_2  and  N_3
REMARK    3  A    between atoms: N_3  and  C_4
REMARK    4  A    between atoms: N_3  and  C_25
REMARK    5  A    between atoms: C_4  and  C_5
REMARK    6  A    between atoms: C_8  and  C_9
REMARK    7  A    between atoms: C_9  and  N_10
REMARK    8  A    between atoms: C_11  and  C_13
REMARK    9  A    between atoms: C_25  and  C_26
REMARK   10  A    between atoms: C_25  and  C_27
REMARK                            x       y       z     vdW  Elec       q    Type
REMARK                         _______ _______ _______ _____ _____    ______ ____
ROOT
ATOM      1  C   UNL     1      48.650   7.910  16.257  0.00  0.00    +0.000 A 
ATOM      2  C   UNL     1      48.278   9.116  15.662  0.00  0.00    +0.000 A 
ATOM      3  C   UNL     1      48.135   9.172  14.275  0.00  0.00    +0.000 A 
ATOM      4  C   UNL     1      48.381   8.035  13.504  0.00  0.00    +0.000 A 
ATOM      5  C   UNL     1      48.662   6.858  14.188  0.00  0.00    +0.000 A 
ATOM      6  N   UNL     1      48.804   6.772  15.532  0.00  0.00    +0.000 NA
ENDROOT
BRANCH   1   7
ATOM      7  C   UNL     1      49.070   7.866  17.726  0.00  0.00    +0.000 C 
BRANCH   7   8
ATOM      8  N   UNL     1      50.097   6.852  18.075  0.00  0.00    +0.000 NA
BRANCH   8  10
ATOM      9  C   UNL     1      52.177   8.295  17.779  0.00  0.00    +0.000 C 
ATOM     10  C   UNL     1      51.247   7.524  18.714  0.00  0.00    +0.000 C 
ENDBRANCH   8  10
BRANCH   8  11
ATOM     11  C   UNL     1      49.542   5.704  18.852  0.00  0.00    +0.000 C 
ATOM     12  C   UNL     1      50.334   5.398  20.140  0.00  0.00    +0.000 C 
BRANCH  11  13
ATOM     13  C   UNL     1      49.316   4.384  18.106  0.00  0.00    +0.000 A 
ATOM     14  C   UNL     1      50.405   3.567  17.795  0.00  0.00    +0.000 A 
ATOM     15  C   UNL     1      50.199   2.406  17.057  0.00  0.00    +0.000 A 
ATOM     16  C   UNL     1      48.918   2.096  16.625  0.00  0.00    +0.000 A 
ATOM     17  C   UNL     1      47.890   2.960  16.964  0.00  0.00    +0.000 A 
ATOM     18  N   UNL     1      48.057   4.085  17.694  0.00  0.00    +0.000 NA
ENDBRANCH  11  13
ENDBRANCH   8  11
ENDBRANCH   7   8
ENDBRANCH   1   7
BRANCH   4  19
ATOM     19  C   UNL     1      48.371   8.078  12.006  0.00  0.00    +0.000 C 
BRANCH  19  20
ATOM     20  N   UNL     1      47.669   6.960  11.434  0.00  0.00    +0.000 N 
ATOM     21  C   UNL     1      46.299   6.951  11.362  0.00  0.00    +0.000 C 
ATOM     22  O   UNL     1      45.623   7.909  11.726  0.00  0.00    +0.000 OA
ATOM     23  H   UNL     1      48.177   6.082  11.359  0.00  0.00    +0.000 HD
BRANCH  21  24
ATOM     24  C   UNL     1      45.681   5.760  10.769  0.00  0.00    +0.000 A 
ATOM     25  C   UNL     1      45.834   5.508   9.412  0.00  0.00    +0.000 A 
ATOM     26  S   UNL     1      45.101   4.057   8.900  0.00  0.00    +0.000 S 
ATOM     27  C   UNL     1      44.507   3.741  10.462  0.00  0.00    +0.000 A 
ATOM     28  N   UNL     1      43.748   2.641  10.714  0.00  0.00    +0.000 NA
ATOM     29  C   UNL     1      43.340   2.541  11.935  0.00  0.00    +0.000 A 
ATOM     30  N   UNL     1      43.623   3.442  12.930  0.00  0.00    +0.000 N 
ATOM     31  C   UNL     1      44.403   4.553  12.728  0.00  0.00    +0.000 A 
ATOM     32  O   UNL     1      44.670   5.324  13.647  0.00  0.00    +0.000 OA
ATOM     33  C   UNL     1      44.880   4.719  11.367  0.00  0.00    +0.000 A 
ATOM     34  H   UNL     1      43.273   3.303  13.867  0.00  0.00    +0.000 HD
ENDBRANCH  21  24
ENDBRANCH  19  20
ENDBRANCH   4  19
TORSDOF 8
ENDMDL
MODEL 9
REMARK VINA RESULT:    -6.456      2.429      3.288
REMARK INTER + INTRA:         -10.796
REMARK INTER:                 -10.076
REMARK INTRA:                  -0.720
REMARK UNBOUND:                -1.321
REMARK  Name = 
REMARK  10 active torsions:
REMARK  status: ('A' for Active; 'I' for Inactive)
REMARK    1  A    between atoms: C_1  and  C_2
REMARK    2  A    between atoms: C_2  and  N_3
REMARK    3  A    between atoms: N_3  and  C_4
REMARK    4  A    between atoms: N_3  and  C_25
REMARK    5  A    between atoms: C_4  and  C_5
REMARK    6  A    between atoms: C_8  and  C_9
REMARK    7  A    between atoms: C_9  and  N_10
REMARK    8  A    between atoms: C_11  and  C_13
REMARK    9  A    between atoms: C_25  and  C_26
REMARK   10  A    between atoms: C_25  and  C_27
REMARK                            x       y       z     vdW  Elec       q    Type
REMARK                         _______ _______ _______ _____ _____    ______ ____
ROOT
ATOM      1  C   UNL     1      46.989   7.006  13.463  0.00  0.00    +0.000 A 
ATOM      2  C   UNL     1      47.397   8.339  13.519  0.00  0.00    +0.000 A 
ATOM      3  C   UNL     1      48.486   8.682  14.321  0.00  0.00    +0.000 A 
ATOM      4  C   UNL     1      49.139   7.697  15.065  0.00  0.00    +0.000 A 
ATOM      5  C   UNL     1      48.719   6.386  14.880  0.00  0.00    +0.000 A 
ATOM      6  N   UNL     1      47.668   6.022  14.107  0.00  0.00    +0.000 NA
ENDROOT
BRANCH   1   7
ATOM      7  C   UNL     1      45.657   6.627  12.814  0.00  0.00    +0.000 C 
BRANCH   7   8
ATOM      8  N   UNL     1      45.657   5.369  12.026  0.00  0.00    +0.000 NA
BRANCH   8  10
ATOM      9  C   UNL     1      46.344   3.233  13.232  0.00  0.00    +0.000 C 
ATOM     10  C   UNL     1      45.252   4.248  12.899  0.00  0.00    +0.000 C 
ENDBRANCH   8  10
BRANCH   8  11
ATOM     11  C   UNL     1      44.875   5.477  10.758  0.00  0.00    +0.000 C 
ATOM     12  C   UNL     1      43.349   5.430  10.974  0.00  0.00    +0.000 C 
BRANCH  11  13
ATOM     13  C   UNL     1      45.227   4.508   9.623  0.00  0.00    +0.000 A 
ATOM     14  C   UNL     1      44.830   3.171   9.704  0.00  0.00    +0.000 A 
ATOM     15  C   UNL     1      45.213   2.283   8.704  0.00  0.00    +0.000 A 
ATOM     16  C   UNL     1      46.001   2.739   7.658  0.00  0.00    +0.000 A 
ATOM     17  C   UNL     1      46.363   4.076   7.651  0.00  0.00    +0.000 A 
ATOM     18  N   UNL     1      45.992   4.965   8.599  0.00  0.00    +0.000 NA
ENDBRANCH  11  13
ENDBRANCH   8  11
ENDBRANCH   7   8
ENDBRANCH   1   7
BRANCH   4  19
ATOM     19  C   UNL     1      50.225   8.034  16.041  0.00  0.00    +0.000 C 
BRANCH  19  20
ATOM     20  N   UNL     1      51.052   6.898  16.349  0.00  0.00    +0.000 N 
ATOM     21  C   UNL     1      50.972   6.279  17.570  0.00  0.00    +0.000 C 
ATOM     22  O   UNL     1      50.160   6.628  18.424  0.00  0.00    +0.000 OA
ATOM     23  H   UNL     1      51.877   6.754  15.771  0.00  0.00    +0.000 HD
BRANCH  21  24
ATOM     24  C   UNL     1      51.864   5.135  17.786  0.00  0.00    +0.000 A 
ATOM     25  C   UNL     1      53.177   5.351  18.182  0.00  0.00    +0.000 A 
ATOM     26  S   UNL     1      54.057   3.914  18.442  0.00  0.00    +0.000 S 
ATOM     27  C   UNL     1      52.731   2.953  17.982  0.00  0.00    +0.000 A 
ATOM     28  N   UNL     1      52.825   1.597  17.951  0.00  0.00    +0.000 NA
ATOM     29  C   UNL     1      51.754   0.995  17.554  0.00  0.00    +0.000 A 
ATOM     30  N   UNL     1      50.592   1.627  17.187  0.00  0.00    +0.000 N 
ATOM     31  C   UNL     1      50.443   2.991  17.225  0.00  0.00    +0.000 A 
ATOM     32  O   UNL     1      49.379   3.527  16.925  0.00  0.00    +0.000 OA
ATOM     33  C   UNL     1      51.625   3.717  17.653  0.00  0.00    +0.000 A 
ATOM     34  H   UNL     1      49.788   1.095  16.889  0.00  0.00    +0.000 HD
ENDBRANCH  21  24
ENDBRANCH  19  20
ENDBRANCH   4  19
TORSDOF 8
ENDMDL
