MODEL 1
REMARK VINA RESULT:    -8.935      0.000      0.000
REMARK INTER + INTRA:         -12.343
REMARK INTER:                 -11.547
REMARK INTRA:                  -0.796
REMARK UNBOUND:                -0.796
REMARK  Name = 
REMARK  5 active torsions:
REMARK  status: ('A' for Active; 'I' for Inactive)
REMARK    1  A    between atoms: C_2  and  C_3
REMARK    2  A    between atoms: C_6  and  N_7
REMARK    3  A    between atoms: N_7  and  C_8
REMARK    4  A    between atoms: C_8  and  C_9
REMARK    5  A    between atoms: C_13  and  C_14
REMARK                            x       y       z     vdW  Elec       q    Type
REMARK                         _______ _______ _______ _____ _____    ______ ____
ROOT
ATOM      1  C   UNL     1      44.174   4.668  11.703  0.00  0.00    +0.000 C 
ATOM      2  C   UNL     1      43.377   3.671  12.530  0.00  0.00    +0.000 C 
ATOM      3  C   UNL     1      43.096   5.119  12.694  0.00  0.00    +0.000 C 
ENDROOT
BRANCH   1   4
ATOM      4  C   UNL     1      45.526   5.223  12.139  0.00  0.00    +0.000 A 
ATOM      5  C   UNL     1      46.064   6.362  11.511  0.00  0.00    +0.000 A 
ATOM      6  C   UNL     1      47.071   7.105  12.119  0.00  0.00    +0.000 A 
ATOM      7  C   UNL     1      47.576   6.698  13.353  0.00  0.00    +0.000 A 
ATOM      8  C   UNL     1      47.139   5.511  13.964  0.00  0.00    +0.000 A 
ATOM      9  C   UNL     1      46.147   4.766  13.307  0.00  0.00    +0.000 A 
BRANCH   8  10
ATOM     10  C   UNL     1      47.609   5.109  15.302  0.00  0.00    +0.000 A 
ATOM     11  C   UNL     1      48.586   5.837  15.994  0.00  0.00    +0.000 A 
ATOM     12  C   UNL     1      49.010   5.390  17.235  0.00  0.00    +0.000 A 
ATOM     13  N   UNL     1      48.538   4.282  17.837  0.00  0.00    +0.000 NA
ATOM     14  C   UNL     1      47.606   3.588  17.157  0.00  0.00    +0.000 A 
ATOM     15  F   UNL     1      47.118   2.477  17.728  0.00  0.00    +0.000 F 
ATOM     16  C   UNL     1      47.126   3.946  15.913  0.00  0.00    +0.000 A 
ENDBRANCH   8  10
ENDBRANCH   1   4
BRANCH   1  17
ATOM     17  N   UNL     1      43.953   4.649  10.255  0.00  0.00    +0.000 N 
ATOM     18  H   UNL     1      43.013   4.791   9.910  0.00  0.00    +0.000 HD
BRANCH  17  22
ATOM     19  C   UNL     1      46.597   2.668   7.590  0.00  0.00    +0.000 A 
ATOM     20  C   UNL     1      45.844   1.915   8.489  0.00  0.00    +0.000 A 
ATOM     21  C   UNL     1      44.965   2.560   9.380  0.00  0.00    +0.000 A 
ATOM     22  C   UNL     1      44.785   3.944   9.356  0.00  0.00    +0.000 A 
ATOM     23  C   UNL     1      45.568   4.688   8.458  0.00  0.00    +0.000 A 
ATOM     24  C   UNL     1      46.471   4.056   7.581  0.00  0.00    +0.000 A 
BRANCH  19  26
ATOM     25  N   UNL     1      48.254   1.501   5.982  0.00  0.00    +0.000 NA
ATOM     26  C   UNL     1      47.518   2.019   6.697  0.00  0.00    +0.000 C 
ENDBRANCH  19  26
ENDBRANCH  17  22
ENDBRANCH   1  17
TORSDOF 5
ENDMDL
MODEL 2
REMARK VINA RESULT:    -7.755      2.993      3.805
REMARK INTER + INTRA:         -10.819
REMARK INTER:                 -10.311
REMARK INTRA:                  -0.508
REMARK UNBOUND:                -0.796
REMARK  Name = 
REMARK  5 active torsions:
REMARK  status: ('A' for Active; 'I' for Inactive)
REMARK    1  A    between atoms: C_2  and  C_3
REMARK    2  A    between atoms: C_6  and  N_7
REMARK    3  A    between atoms: N_7  and  C_8
REMARK    4  A    between atoms: C_8  and  C_9
REMARK    5  A    between atoms: C_13  and  C_14
REMARK                            x       y       z     vdW  Elec       q    Type
REMARK                         _______ _______ _______ _____ _____    ______ ____
ROOT
ATOM      1  C   UNL     1      43.568   4.978  11.387  0.00  0.00    +0.000 C 
ATOM      2  C   UNL     1      42.276   5.677  11.780  0.00  0.00    +0.000 C 
ATOM      3  C   UNL     1      43.291   6.436  11.007  0.00  0.00    +0.000 C 
ENDROOT
BRANCH   1   4
ATOM      4  C   UNL     1      44.794   4.915  12.291  0.00  0.00    +0.000 A 
ATOM      5  C   UNL     1      45.199   3.691  12.857  0.00  0.00    +0.000 A 
ATOM      6  C   UNL     1      46.489   3.525  13.351  0.00  0.00    +0.000 A 
ATOM      7  C   UNL     1      47.383   4.593  13.314  0.00  0.00    +0.000 A 
ATOM      8  C   UNL     1      46.987   5.860  12.852  0.00  0.00    +0.000 A 
ATOM      9  C   UNL     1      45.668   6.004  12.394  0.00  0.00    +0.000 A 
BRANCH   8  10
ATOM     10  C   UNL     1      47.941   6.977  12.736  0.00  0.00    +0.000 A 
ATOM     11  C   UNL     1      49.144   7.001  13.455  0.00  0.00    +0.000 A 
ATOM     12  C   UNL     1      49.986   8.095  13.329  0.00  0.00    +0.000 A 
ATOM     13  N   UNL     1      49.724   9.159  12.545  0.00  0.00    +0.000 NA
ATOM     14  C   UNL     1      48.561   9.125  11.868  0.00  0.00    +0.000 A 
ATOM     15  F   UNL     1      48.269  10.172  11.082  0.00  0.00    +0.000 F 
ATOM     16  C   UNL     1      47.654   8.087  11.934  0.00  0.00    +0.000 A 
ENDBRANCH   8  10
ENDBRANCH   1   4
BRANCH   1  17
ATOM     17  N   UNL     1      43.455   3.879  10.424  0.00  0.00    +0.000 N 
ATOM     18  H   UNL     1      42.807   3.129  10.624  0.00  0.00    +0.000 HD
BRANCH  17  22
ATOM     19  C   UNL     1      46.493   2.597   7.750  0.00  0.00    +0.000 A 
ATOM     20  C   UNL     1      46.205   3.957   7.854  0.00  0.00    +0.000 A 
ATOM     21  C   UNL     1      45.198   4.395   8.736  0.00  0.00    +0.000 A 
ATOM     22  C   UNL     1      44.504   3.503   9.555  0.00  0.00    +0.000 A 
ATOM     23  C   UNL     1      44.793   2.135   9.420  0.00  0.00    +0.000 A 
ATOM     24  C   UNL     1      45.779   1.683   8.522  0.00  0.00    +0.000 A 
BRANCH  19  26
ATOM     25  N   UNL     1      48.304   1.772   6.097  0.00  0.00    +0.000 NA
ATOM     26  C   UNL     1      47.499   2.139   6.831  0.00  0.00    +0.000 C 
ENDBRANCH  19  26
ENDBRANCH  17  22
ENDBRANCH   1  17
TORSDOF 5
ENDMDL
MODEL 3
REMARK VINA RESULT:    -7.011      2.605      7.586
REMARK INTER + INTRA:          -9.857
REMARK INTER:                  -9.079
REMARK INTRA:                  -0.778
REMARK UNBOUND:                -0.796
REMARK  Name = 
REMARK  5 active torsions:
REMARK  status: ('A' for Active; 'I' for Inactive)
REMARK    1  A    between atoms: C_2  and  C_3
REMARK    2  A    between atoms: C_6  and  N_7
REMARK    3  A    between atoms: N_7  and  C_8
REMARK    4  A    between atoms: C_8  and  C_9
REMARK    5  A    between atoms: C_13  and  C_14
REMARK                            x       y       z     vdW  Elec       q    Type
REMARK                         _______ _______ _______ _____ _____    ______ ____
ROOT
ATOM      1  C   UNL     1      44.675   3.797  12.558  0.00  0.00    +0.000 C 
ATOM      2  C   UNL     1      43.481   4.186  13.417  0.00  0.00    +0.000 C 
ATOM      3  C   UNL     1      43.401   2.945  12.606  0.00  0.00    +0.000 C 
ENDROOT
BRANCH   1   4
ATOM      4  C   UNL     1      44.886   4.311  11.139  0.00  0.00    +0.000 A 
ATOM      5  C   UNL     1      45.009   5.692  10.893  0.00  0.00    +0.000 A 
ATOM      6  C   UNL     1      45.575   6.160   9.710  0.00  0.00    +0.000 A 
ATOM      7  C   UNL     1      45.997   5.250   8.743  0.00  0.00    +0.000 A 
ATOM      8  C   UNL     1      45.799   3.868   8.906  0.00  0.00    +0.000 A 
ATOM      9  C   UNL     1      45.193   3.431  10.094  0.00  0.00    +0.000 A 
BRANCH   8  10
ATOM     10  C   UNL     1      46.308   2.891   7.927  0.00  0.00    +0.000 A 
ATOM     11  C   UNL     1      46.778   3.282   6.666  0.00  0.00    +0.000 A 
ATOM     12  C   UNL     1      47.214   2.313   5.775  0.00  0.00    +0.000 A 
ATOM     13  N   UNL     1      47.220   0.994   6.044  0.00  0.00    +0.000 NA
ATOM     14  C   UNL     1      46.758   0.632   7.256  0.00  0.00    +0.000 A 
ATOM     15  F   UNL     1      46.746  -0.675   7.553  0.00  0.00    +0.000 F 
ATOM     16  C   UNL     1      46.294   1.520   8.206  0.00  0.00    +0.000 A 
ENDBRANCH   8  10
ENDBRANCH   1   4
BRANCH   1  17
ATOM     17  N   UNL     1      45.901   3.419  13.267  0.00  0.00    +0.000 N 
ATOM     18  H   UNL     1      45.999   2.463  13.582  0.00  0.00    +0.000 HD
BRANCH  17  22
ATOM     19  C   UNL     1      48.357   6.031  15.539  0.00  0.00    +0.000 A 
ATOM     20  C   UNL     1      48.034   6.369  14.226  0.00  0.00    +0.000 A 
ATOM     21  C   UNL     1      47.222   5.510  13.460  0.00  0.00    +0.000 A 
ATOM     22  C   UNL     1      46.683   4.341  13.999  0.00  0.00    +0.000 A 
ATOM     23  C   UNL     1      47.037   4.006  15.317  0.00  0.00    +0.000 A 
ATOM     24  C   UNL     1      47.871   4.844  16.083  0.00  0.00    +0.000 A 
BRANCH  19  26
ATOM     25  N   UNL     1      49.889   7.574  16.941  0.00  0.00    +0.000 NA
ATOM     26  C   UNL     1      49.209   6.888  16.318  0.00  0.00    +0.000 C 
ENDBRANCH  19  26
ENDBRANCH  17  22
ENDBRANCH   1  17
TORSDOF 5
ENDMDL
MODEL 4
REMARK VINA RESULT:    -6.829      3.629      7.259
REMARK INTER + INTRA:          -9.622
REMARK INTER:                  -8.903
REMARK INTRA:                  -0.719
REMARK UNBOUND:                -0.796
REMARK  Name = 
REMARK  5 active torsions:
REMARK  status: ('A' for Active; 'I' for Inactive)
REMARK    1  A    between atoms: C_2  and  C_3
REMARK    2  A    between atoms: C_6  and  N_7
REMARK    3  A    between atoms: N_7  and  C_8
REMARK    4  A    between atoms: C_8  and  C_9
REMARK    5  A    between atoms: C_13  and  C_14
REMARK                            x       y       z     vdW  Elec       q    Type
REMARK                         _______ _______ _______ _____ _____    ______ ____
ROOT
ATOM      1  C   UNL     1      43.894   6.207  11.914  0.00  0.00    +0.000 C 
ATOM      2  C   UNL     1      43.325   7.185  10.898  0.00  0.00    +0.000 C 
ATOM      3  C   UNL     1      42.391   6.488  11.817  0.00  0.00    +0.000 C 
ENDROOT
BRANCH   1   4
ATOM      4  C   UNL     1      44.155   4.737  11.603  0.00  0.00    +0.000 A 
ATOM      5  C   UNL     1      43.394   3.731  12.227  0.00  0.00    +0.000 A 
ATOM      6  C   UNL     1      43.336   2.445  11.698  0.00  0.00    +0.000 A 
ATOM      7  C   UNL     1      44.066   2.141  10.551  0.00  0.00    +0.000 A 
ATOM      8  C   UNL     1      44.918   3.087   9.956  0.00  0.00    +0.000 A 
ATOM      9  C   UNL     1      44.981   4.364  10.536  0.00  0.00    +0.000 A 
BRANCH   8  10
ATOM     10  C   UNL     1      45.637   2.803   8.702  0.00  0.00    +0.000 A 
ATOM     11  C   UNL     1      45.942   3.812   7.777  0.00  0.00    +0.000 A 
ATOM     12  C   UNL     1      46.591   3.477   6.600  0.00  0.00    +0.000 A 
ATOM     13  N   UNL     1      46.960   2.223   6.275  0.00  0.00    +0.000 NA
ATOM     14  C   UNL     1      46.653   1.263   7.168  0.00  0.00    +0.000 A 
ATOM     15  F   UNL     1      47.003   0.003   6.872  0.00  0.00    +0.000 F 
ATOM     16  C   UNL     1      46.001   1.495   8.363  0.00  0.00    +0.000 A 
ENDBRANCH   8  10
ENDBRANCH   1   4
BRANCH   1  17
ATOM     17  N   UNL     1      44.734   6.771  12.974  0.00  0.00    +0.000 N 
ATOM     18  H   UNL     1      44.304   6.991  13.863  0.00  0.00    +0.000 HD
BRANCH  17  22
ATOM     19  C   UNL     1      48.285   8.895  12.024  0.00  0.00    +0.000 A 
ATOM     20  C   UNL     1      47.185   9.592  12.521  0.00  0.00    +0.000 A 
ATOM     21  C   UNL     1      46.000   8.900  12.838  0.00  0.00    +0.000 A 
ATOM     22  C   UNL     1      45.909   7.513  12.715  0.00  0.00    +0.000 A 
ATOM     23  C   UNL     1      47.019   6.830  12.192  0.00  0.00    +0.000 A 
ATOM     24  C   UNL     1      48.200   7.515  11.846  0.00  0.00    +0.000 A 
BRANCH  19  26
ATOM     25  N   UNL     1      50.450  10.160  11.390  0.00  0.00    +0.000 NA
ATOM     26  C   UNL     1      49.488   9.598  11.671  0.00  0.00    +0.000 C 
ENDBRANCH  19  26
ENDBRANCH  17  22
ENDBRANCH   1  17
TORSDOF 5
ENDMDL
MODEL 5
REMARK VINA RESULT:    -6.472      3.249      7.113
REMARK INTER + INTRA:          -9.160
REMARK INTER:                  -8.884
REMARK INTRA:                  -0.276
REMARK UNBOUND:                -0.796
REMARK  Name = 
REMARK  5 active torsions:
REMARK  status: ('A' for Active; 'I' for Inactive)
REMARK    1  A    between atoms: C_2  and  C_3
REMARK    2  A    between atoms: C_6  and  N_7
REMARK    3  A    between atoms: N_7  and  C_8
REMARK    4  A    between atoms: C_8  and  C_9
REMARK    5  A    between atoms: C_13  and  C_14
REMARK                            x       y       z     vdW  Elec       q    Type
REMARK                         _______ _______ _______ _____ _____    ______ ____
ROOT
ATOM      1  C   UNL     1      46.042   4.952  13.546  0.00  0.00    +0.000 C 
ATOM      2  C   UNL     1      46.171   4.166  14.841  0.00  0.00    +0.000 C 
ATOM      3  C   UNL     1      47.126   3.886  13.740  0.00  0.00    +0.000 C 
ENDROOT
BRANCH   1   4
ATOM      4  C   UNL     1      45.122   4.536  12.404  0.00  0.00    +0.000 A 
ATOM      5  C   UNL     1      43.824   5.072  12.303  0.00  0.00    +0.000 A 
ATOM      6  C   UNL     1      43.121   5.021  11.104  0.00  0.00    +0.000 A 
ATOM      7  C   UNL     1      43.696   4.403   9.995  0.00  0.00    +0.000 A 
ATOM      8  C   UNL     1      44.945   3.766  10.082  0.00  0.00    +0.000 A 
ATOM      9  C   UNL     1      45.613   3.804  11.316  0.00  0.00    +0.000 A 
BRANCH   8  10
ATOM     10  C   UNL     1      45.598   3.175   8.900  0.00  0.00    +0.000 A 
ATOM     11  C   UNL     1      45.954   3.947   7.786  0.00  0.00    +0.000 A 
ATOM     12  C   UNL     1      46.535   3.328   6.691  0.00  0.00    +0.000 A 
ATOM     13  N   UNL     1      46.791   2.008   6.622  0.00  0.00    +0.000 NA
ATOM     14  C   UNL     1      46.437   1.277   7.695  0.00  0.00    +0.000 A 
ATOM     15  F   UNL     1      46.674  -0.042   7.656  0.00  0.00    +0.000 F 
ATOM     16  C   UNL     1      45.844   1.799   8.828  0.00  0.00    +0.000 A 
ENDBRANCH   8  10
ENDBRANCH   1   4
BRANCH   1  17
ATOM     17  N   UNL     1      46.329   6.388  13.615  0.00  0.00    +0.000 N 
ATOM     18  H   UNL     1      45.551   7.033  13.626  0.00  0.00    +0.000 HD
BRANCH  17  22
ATOM     19  C   UNL     1      50.042   7.973  12.304  0.00  0.00    +0.000 A 
ATOM     20  C   UNL     1      49.037   7.729  11.370  0.00  0.00    +0.000 A 
ATOM     21  C   UNL     1      47.801   7.201  11.791  0.00  0.00    +0.000 A 
ATOM     22  C   UNL     1      47.532   6.958  13.139  0.00  0.00    +0.000 A 
ATOM     23  C   UNL     1      48.564   7.189  14.063  0.00  0.00    +0.000 A 
ATOM     24  C   UNL     1      49.813   7.691  13.649  0.00  0.00    +0.000 A 
BRANCH  19  26
ATOM     25  N   UNL     1      52.336   8.894  11.539  0.00  0.00    +0.000 NA
ATOM     26  C   UNL     1      51.317   8.485  11.878  0.00  0.00    +0.000 C 
ENDBRANCH  19  26
ENDBRANCH  17  22
ENDBRANCH   1  17
TORSDOF 5
ENDMDL
MODEL 6
REMARK VINA RESULT:    -6.428      3.046      8.006
REMARK INTER + INTRA:          -9.103
REMARK INTER:                  -8.281
REMARK INTRA:                  -0.822
REMARK UNBOUND:                -0.796
REMARK  Name = 
REMARK  5 active torsions:
REMARK  status: ('A' for Active; 'I' for Inactive)
REMARK    1  A    between atoms: C_2  and  C_3
REMARK    2  A    between atoms: C_6  and  N_7
REMARK    3  A    between atoms: N_7  and  C_8
REMARK    4  A    between atoms: C_8  and  C_9
REMARK    5  A    between atoms: C_13  and  C_14
REMARK                            x       y       z     vdW  Elec       q    Type
REMARK                         _______ _______ _______ _____ _____    ______ ____
ROOT
ATOM      1  C   UNL     1      48.672   7.984  12.638  0.00  0.00    +0.000 C 
ATOM      2  C   UNL     1      49.772   7.394  11.769  0.00  0.00    +0.000 C 
ATOM      3  C   UNL     1      49.206   8.716  11.402  0.00  0.00    +0.000 C 
ENDROOT
BRANCH   1   4
ATOM      4  C   UNL     1      47.193   7.671  12.440  0.00  0.00    +0.000 A 
ATOM      5  C   UNL     1      46.221   8.670  12.634  0.00  0.00    +0.000 A 
ATOM      6  C   UNL     1      44.942   8.537  12.103  0.00  0.00    +0.000 A 
ATOM      7  C   UNL     1      44.608   7.385  11.394  0.00  0.00    +0.000 A 
ATOM      8  C   UNL     1      45.516   6.319  11.265  0.00  0.00    +0.000 A 
ATOM      9  C   UNL     1      46.786   6.471  11.844  0.00  0.00    +0.000 A 
BRANCH   8  10
ATOM     10  C   UNL     1      45.204   5.129  10.456  0.00  0.00    +0.000 A 
ATOM     11  C   UNL     1      44.512   4.032  10.987  0.00  0.00    +0.000 A 
ATOM     12  C   UNL     1      44.277   2.926  10.185  0.00  0.00    +0.000 A 
ATOM     13  N   UNL     1      44.673   2.832   8.901  0.00  0.00    +0.000 NA
ATOM     14  C   UNL     1      45.343   3.889   8.406  0.00  0.00    +0.000 A 
ATOM     15  F   UNL     1      45.755   3.824   7.132  0.00  0.00    +0.000 F 
ATOM     16  C   UNL     1      45.635   5.030   9.128  0.00  0.00    +0.000 A 
ENDBRANCH   8  10
ENDBRANCH   1   4
BRANCH   1  17
ATOM     17  N   UNL     1      49.044   8.367  14.002  0.00  0.00    +0.000 N 
ATOM     18  H   UNL     1      49.356   9.315  14.167  0.00  0.00    +0.000 HD
BRANCH  17  22
ATOM     19  C   UNL     1      50.555   5.736  16.971  0.00  0.00    +0.000 A 
ATOM     20  C   UNL     1      49.198   5.702  16.656  0.00  0.00    +0.000 A 
ATOM     21  C   UNL     1      48.683   6.571  15.675  0.00  0.00    +0.000 A 
ATOM     22  C   UNL     1      49.510   7.442  14.964  0.00  0.00    +0.000 A 
ATOM     23  C   UNL     1      50.871   7.478  15.309  0.00  0.00    +0.000 A 
ATOM     24  C   UNL     1      51.392   6.632  16.308  0.00  0.00    +0.000 A 
BRANCH  19  26
ATOM     25  N   UNL     1      51.505   4.180  18.806  0.00  0.00    +0.000 NA
ATOM     26  C   UNL     1      51.083   4.872  17.992  0.00  0.00    +0.000 C 
ENDBRANCH  19  26
ENDBRANCH  17  22
ENDBRANCH   1  17
TORSDOF 5
ENDMDL
MODEL 7
REMARK VINA RESULT:    -6.255      3.195      8.444
REMARK INTER + INTRA:          -8.880
REMARK INTER:                  -8.312
REMARK INTRA:                  -0.569
REMARK UNBOUND:                -0.796
REMARK  Name = 
REMARK  5 active torsions:
REMARK  status: ('A' for Active; 'I' for Inactive)
REMARK    1  A    between atoms: C_2  and  C_3
REMARK    2  A    between atoms: C_6  and  N_7
REMARK    3  A    between atoms: N_7  and  C_8
REMARK    4  A    between atoms: C_8  and  C_9
REMARK    5  A    between atoms: C_13  and  C_14
REMARK                            x       y       z     vdW  Elec       q    Type
REMARK                         _______ _______ _______ _____ _____    ______ ____
ROOT
ATOM      1  C   UNL     1      49.036   7.672  12.620  0.00  0.00    +0.000 C 
ATOM      2  C   UNL     1      49.922   7.797  11.390  0.00  0.00    +0.000 C 
ATOM      3  C   UNL     1      49.361   9.032  11.992  0.00  0.00    +0.000 C 
ENDROOT
BRANCH   1   4
ATOM      4  C   UNL     1      47.533   7.426  12.545  0.00  0.00    +0.000 A 
ATOM      5  C   UNL     1      46.626   8.448  12.885  0.00  0.00    +0.000 A 
ATOM      6  C   UNL     1      45.299   8.393  12.470  0.00  0.00    +0.000 A 
ATOM      7  C   UNL     1      44.854   7.298  11.734  0.00  0.00    +0.000 A 
ATOM      8  C   UNL     1      45.700   6.209  11.461  0.00  0.00    +0.000 A 
ATOM      9  C   UNL     1      47.023   6.279  11.925  0.00  0.00    +0.000 A 
BRANCH   8  10
ATOM     10  C   UNL     1      45.265   5.080  10.621  0.00  0.00    +0.000 A 
ATOM     11  C   UNL     1      44.508   4.019  11.137  0.00  0.00    +0.000 A 
ATOM     12  C   UNL     1      44.157   2.969  10.304  0.00  0.00    +0.000 A 
ATOM     13  N   UNL     1      44.497   2.896   9.003  0.00  0.00    +0.000 NA
ATOM     14  C   UNL     1      45.230   3.917   8.522  0.00  0.00    +0.000 A 
ATOM     15  F   UNL     1      45.588   3.872   7.231  0.00  0.00    +0.000 F 
ATOM     16  C   UNL     1      45.637   5.002   9.274  0.00  0.00    +0.000 A 
ENDBRANCH   8  10
ENDBRANCH   1   4
BRANCH   1  17
ATOM     17  N   UNL     1      49.678   7.200  13.849  0.00  0.00    +0.000 N 
ATOM     18  H   UNL     1      50.222   6.348  13.811  0.00  0.00    +0.000 HD
BRANCH  17  22
ATOM     19  C   UNL     1      48.344   7.978  17.803  0.00  0.00    +0.000 A 
ATOM     20  C   UNL     1      48.513   9.042  16.918  0.00  0.00    +0.000 A 
ATOM     21  C   UNL     1      48.957   8.798  15.604  0.00  0.00    +0.000 A 
ATOM     22  C   UNL     1      49.189   7.502  15.140  0.00  0.00    +0.000 A 
ATOM     23  C   UNL     1      49.034   6.445  16.052  0.00  0.00    +0.000 A 
ATOM     24  C   UNL     1      48.617   6.680  17.377  0.00  0.00    +0.000 A 
BRANCH  19  26
ATOM     25  N   UNL     1      47.578   8.416  20.235  0.00  0.00    +0.000 NA
ATOM     26  C   UNL     1      47.919   8.222  19.155  0.00  0.00    +0.000 C 
ENDBRANCH  19  26
ENDBRANCH  17  22
ENDBRANCH   1  17
TORSDOF 5
ENDMDL
MODEL 8
REMARK VINA RESULT:    -6.236      3.011      4.609
REMARK INTER + INTRA:          -8.855
REMARK INTER:                  -8.176
REMARK INTRA:                  -0.679
REMARK UNBOUND:                -0.796
REMARK  Name = 
REMARK  5 active torsions:
REMARK  status: ('A' for Active; 'I' for Inactive)
REMARK    1  A    between atoms: C_2  and  C_3
REMARK    2  A    between atoms: C_6  and  N_7
REMARK    3  A    between atoms: N_7  and  C_8
REMARK    4  A    between atoms: C_8  and  C_9
REMARK    5  A    between atoms: C_13  and  C_14
REMARK                            x       y       z     vdW  Elec       q    Type
REMARK                         _______ _______ _______ _____ _____    ______ ____
ROOT
ATOM      1  C   UNL     1      47.534   8.304  13.013  0.00  0.00    +0.000 C 
ATOM      2  C   UNL     1      47.896   9.201  11.839  0.00  0.00    +0.000 C 
ATOM      3  C   UNL     1      48.309   7.775  11.800  0.00  0.00    +0.000 C 
ENDROOT
BRANCH   1   4
ATOM      4  C   UNL     1      48.398   8.172  14.262  0.00  0.00    +0.000 A 
ATOM      5  C   UNL     1      48.801   9.318  14.974  0.00  0.00    +0.000 A 
ATOM      6  C   UNL     1      49.243   9.223  16.289  0.00  0.00    +0.000 A 
ATOM      7  C   UNL     1      49.318   7.974  16.902  0.00  0.00    +0.000 A 
ATOM      8  C   UNL     1      49.024   6.796  16.194  0.00  0.00    +0.000 A 
ATOM      9  C   UNL     1      48.615   6.923  14.857  0.00  0.00    +0.000 A 
BRANCH   8  10
ATOM     10  C   UNL     1      49.026   5.476  16.849  0.00  0.00    +0.000 A 
ATOM     11  C   UNL     1      50.185   4.934  17.420  0.00  0.00    +0.000 A 
ATOM     12  C   UNL     1      50.132   3.674  17.994  0.00  0.00    +0.000 A 
ATOM     13  N   UNL     1      49.019   2.917  18.044  0.00  0.00    +0.000 NA
ATOM     14  C   UNL     1      47.915   3.447  17.485  0.00  0.00    +0.000 A 
ATOM     15  F   UNL     1      46.791   2.717  17.514  0.00  0.00    +0.000 F 
ATOM     16  C   UNL     1      47.870   4.688  16.881  0.00  0.00    +0.000 A 
ENDBRANCH   8  10
ENDBRANCH   1   4
BRANCH   1  17
ATOM     17  N   UNL     1      46.109   8.029  13.217  0.00  0.00    +0.000 N 
ATOM     18  H   UNL     1      45.644   8.461  14.004  0.00  0.00    +0.000 HD
BRANCH  17  22
ATOM     19  C   UNL     1      44.186   4.427  12.054  0.00  0.00    +0.000 A 
ATOM     20  C   UNL     1      43.882   5.610  11.383  0.00  0.00    +0.000 A 
ATOM     21  C   UNL     1      44.511   6.813  11.760  0.00  0.00    +0.000 A 
ATOM     22  C   UNL     1      45.479   6.847  12.766  0.00  0.00    +0.000 A 
ATOM     23  C   UNL     1      45.756   5.650  13.445  0.00  0.00    +0.000 A 
ATOM     24  C   UNL     1      45.113   4.446  13.095  0.00  0.00    +0.000 A 
BRANCH  19  26
ATOM     25  N   UNL     1      42.999   2.222  11.407  0.00  0.00    +0.000 NA
ATOM     26  C   UNL     1      43.527   3.201  11.694  0.00  0.00    +0.000 C 
ENDBRANCH  19  26
ENDBRANCH  17  22
ENDBRANCH   1  17
TORSDOF 5
ENDMDL
