MODEL 1
REMARK VINA RESULT:    -8.140      0.000      0.000
REMARK INTER + INTRA:         -11.619
REMARK INTER:                 -10.519
REMARK INTRA:                  -1.100
REMARK UNBOUND:                -1.100
REMARK  Name = 
REMARK  6 active torsions:
REMARK  status: ('A' for Active; 'I' for Inactive)
REMARK    1  A    between atoms: C_1  and  C_2
REMARK    2  A    between atoms: C_2  and  N_3
REMARK    3  A    between atoms: C_2  and  C_16
REMARK    4  A    between atoms: C_4  and  C_6
REMARK    5  A    between atoms: C_19  and  C_20
REMARK    6  A    between atoms: C_20  and  N_21
REMARK                            x       y       z     vdW  Elec       q    Type
REMARK                         _______ _______ _______ _____ _____    ______ ____
ROOT
ATOM      1  C   UNL     1      47.742   8.566  13.941  0.00  0.00    +0.000 C 
ATOM      2  C   UNL     1      47.986   7.055  14.061  0.00  0.00    +0.000 C 
ENDROOT
BRANCH   2   3
ATOM      3  C   UNL     1      47.017   6.220  13.228  0.00  0.00    +0.000 A 
ATOM      4  C   UNL     1      46.858   4.858  13.521  0.00  0.00    +0.000 A 
ATOM      5  C   UNL     1      45.966   4.051  12.796  0.00  0.00    +0.000 A 
ATOM      6  C   UNL     1      45.212   4.577  11.738  0.00  0.00    +0.000 A 
ATOM      7  C   UNL     1      45.349   5.945  11.457  0.00  0.00    +0.000 A 
ATOM      8  C   UNL     1      46.238   6.755  12.189  0.00  0.00    +0.000 A 
BRANCH   6   9
ATOM      9  C   UNL     1      44.308   3.686  10.904  0.00  0.00    +0.000 C 
BRANCH   9  10
ATOM     10  N   UNL     1      45.019   2.960   9.874  0.00  0.00    +0.000 N 
ATOM     11  C   UNL     1      45.290   3.563   8.663  0.00  0.00    +0.000 C 
ATOM     12  O   UNL     1      44.907   4.690   8.378  0.00  0.00    +0.000 OA
ATOM     13  N   UNL     1      46.029   2.776   7.800  0.00  0.00    +0.000 N 
ATOM     14  C   UNL     1      46.435   1.395   7.971  0.00  0.00    +0.000 C 
ATOM     15  C   UNL     1      47.662   1.285   7.088  0.00  0.00    +0.000 C 
ATOM     16  C   UNL     1      47.311   2.164   5.893  0.00  0.00    +0.000 C 
ATOM     17  C   UNL     1      46.373   3.234   6.459  0.00  0.00    +0.000 C 
ATOM     18  H   UNL     1      45.766   2.383  10.214  0.00  0.00    +0.000 HD
ENDBRANCH   9  10
ENDBRANCH   6   9
ENDBRANCH   2   3
BRANCH   2  19
ATOM     19  N   UNL     1      47.958   6.620  15.445  0.00  0.00    +0.000 N 
ATOM     20  C   UNL     1      49.099   6.396  16.178  0.00  0.00    +0.000 C 
ATOM     21  O   UNL     1      50.219   6.368  15.679  0.00  0.00    +0.000 OA
ATOM     22  H   UNL     1      47.076   6.718  15.927  0.00  0.00    +0.000 HD
BRANCH  20  23
ATOM     23  C   UNL     1      48.888   6.141  17.606  0.00  0.00    +0.000 A 
ATOM     24  C   UNL     1      49.208   4.913  18.167  0.00  0.00    +0.000 A 
ATOM     25  S   UNL     1      48.879   4.834  19.842  0.00  0.00    +0.000 S 
ATOM     26  C   UNL     1      48.299   6.434  19.867  0.00  0.00    +0.000 A 
ATOM     27  N   UNL     1      47.828   7.000  21.008  0.00  0.00    +0.000 NA
ATOM     28  C   UNL     1      47.414   8.217  20.865  0.00  0.00    +0.000 A 
ATOM     29  N   UNL     1      47.439   8.921  19.692  0.00  0.00    +0.000 N 
ATOM     30  C   UNL     1      47.927   8.399  18.522  0.00  0.00    +0.000 A 
ATOM     31  O   UNL     1      47.927   9.066  17.486  0.00  0.00    +0.000 OA
ATOM     32  C   UNL     1      48.373   7.027  18.612  0.00  0.00    +0.000 A 
ATOM     33  H   UNL     1      47.089   9.862  19.642  0.00  0.00    +0.000 HD
ENDBRANCH  20  23
ENDBRANCH   2  19
TORSDOF 5
ENDMDL
MODEL 2
REMARK VINA RESULT:    -8.095      1.816      2.338
REMARK INTER + INTRA:         -11.561
REMARK INTER:                 -10.696
REMARK INTRA:                  -0.865
REMARK UNBOUND:                -1.100
REMARK  Name = 
REMARK  6 active torsions:
REMARK  status: ('A' for Active; 'I' for Inactive)
REMARK    1  A    between atoms: C_1  and  C_2
REMARK    2  A    between atoms: C_2  and  N_3
REMARK    3  A    between atoms: C_2  and  C_16
REMARK    4  A    between atoms: C_4  and  C_6
REMARK    5  A    between atoms: C_19  and  C_20
REMARK    6  A    between atoms: C_20  and  N_21
REMARK                            x       y       z     vdW  Elec       q    Type
REMARK                         _______ _______ _______ _____ _____    ______ ____
ROOT
ATOM      1  C   UNL     1      46.435   9.062  13.474  0.00  0.00    +0.000 C 
ATOM      2  C   UNL     1      47.115   7.690  13.371  0.00  0.00    +0.000 C 
ENDROOT
BRANCH   2   3
ATOM      3  C   UNL     1      46.251   6.639  12.679  0.00  0.00    +0.000 A 
ATOM      4  C   UNL     1      46.545   5.279  12.861  0.00  0.00    +0.000 A 
ATOM      5  C   UNL     1      45.770   4.274  12.261  0.00  0.00    +0.000 A 
ATOM      6  C   UNL     1      44.680   4.595  11.440  0.00  0.00    +0.000 A 
ATOM      7  C   UNL     1      44.366   5.954  11.275  0.00  0.00    +0.000 A 
ATOM      8  C   UNL     1      45.140   6.961  11.883  0.00  0.00    +0.000 A 
BRANCH   6   9
ATOM      9  C   UNL     1      43.892   3.510  10.728  0.00  0.00    +0.000 C 
BRANCH   9  10
ATOM     10  N   UNL     1      44.681   2.777   9.762  0.00  0.00    +0.000 N 
ATOM     11  C   UNL     1      45.121   3.399   8.611  0.00  0.00    +0.000 C 
ATOM     12  O   UNL     1      44.830   4.553   8.323  0.00  0.00    +0.000 OA
ATOM     13  N   UNL     1      45.914   2.598   7.812  0.00  0.00    +0.000 N 
ATOM     14  C   UNL     1      46.227   1.194   7.980  0.00  0.00    +0.000 C 
ATOM     15  C   UNL     1      47.542   1.042   7.239  0.00  0.00    +0.000 C 
ATOM     16  C   UNL     1      47.376   1.974   6.044  0.00  0.00    +0.000 C 
ATOM     17  C   UNL     1      46.434   3.075   6.536  0.00  0.00    +0.000 C 
ATOM     18  H   UNL     1      45.352   2.151  10.165  0.00  0.00    +0.000 HD
ENDBRANCH   9  10
ENDBRANCH   6   9
ENDBRANCH   2   3
BRANCH   2  19
ATOM     19  N   UNL     1      47.541   7.208  14.672  0.00  0.00    +0.000 N 
ATOM     20  C   UNL     1      48.862   7.005  14.995  0.00  0.00    +0.000 C 
ATOM     21  O   UNL     1      49.765   7.037  14.166  0.00  0.00    +0.000 OA
ATOM     22  H   UNL     1      46.856   7.255  15.413  0.00  0.00    +0.000 HD
BRANCH  20  23
ATOM     23  C   UNL     1      49.123   6.694  16.403  0.00  0.00    +0.000 A 
ATOM     24  C   UNL     1      49.731   7.622  17.238  0.00  0.00    +0.000 A 
ATOM     25  S   UNL     1      49.941   7.050  18.835  0.00  0.00    +0.000 S 
ATOM     26  C   UNL     1      49.230   5.551  18.459  0.00  0.00    +0.000 A 
ATOM     27  N   UNL     1      49.113   4.568  19.388  0.00  0.00    +0.000 NA
ATOM     28  C   UNL     1      48.560   3.484  18.949  0.00  0.00    +0.000 A 
ATOM     29  N   UNL     1      48.105   3.299  17.673  0.00  0.00    +0.000 N 
ATOM     30  C   UNL     1      48.179   4.270  16.708  0.00  0.00    +0.000 A 
ATOM     31  O   UNL     1      47.760   4.060  15.569  0.00  0.00    +0.000 OA
ATOM     32  C   UNL     1      48.821   5.494  17.132  0.00  0.00    +0.000 A 
ATOM     33  H   UNL     1      47.696   2.426  17.388  0.00  0.00    +0.000 HD
ENDBRANCH  20  23
ENDBRANCH   2  19
TORSDOF 5
ENDMDL
MODEL 3
REMARK VINA RESULT:    -7.293      3.860      8.919
REMARK INTER + INTRA:         -10.525
REMARK INTER:                  -9.455
REMARK INTRA:                  -1.070
REMARK UNBOUND:                -1.100
REMARK  Name = 
REMARK  6 active torsions:
REMARK  status: ('A' for Active; 'I' for Inactive)
REMARK    1  A    between atoms: C_1  and  C_2
REMARK    2  A    between atoms: C_2  and  N_3
REMARK    3  A    between atoms: C_2  and  C_16
REMARK    4  A    between atoms: C_4  and  C_6
REMARK    5  A    between atoms: C_19  and  C_20
REMARK    6  A    between atoms: C_20  and  N_21
REMARK                            x       y       z     vdW  Elec       q    Type
REMARK                         _______ _______ _______ _____ _____    ______ ____
ROOT
ATOM      1  C   UNL     1      49.389   7.767  12.073  0.00  0.00    +0.000 C 
ATOM      2  C   UNL     1      48.221   7.334  12.970  0.00  0.00    +0.000 C 
ENDROOT
BRANCH   2   3
ATOM      3  C   UNL     1      48.669   6.822  14.336  0.00  0.00    +0.000 A 
ATOM      4  C   UNL     1      47.888   5.863  15.000  0.00  0.00    +0.000 A 
ATOM      5  C   UNL     1      48.266   5.347  16.250  0.00  0.00    +0.000 A 
ATOM      6  C   UNL     1      49.433   5.787  16.891  0.00  0.00    +0.000 A 
ATOM      7  C   UNL     1      50.230   6.727  16.220  0.00  0.00    +0.000 A 
ATOM      8  C   UNL     1      49.855   7.238  14.963  0.00  0.00    +0.000 A 
BRANCH   6   9
ATOM      9  C   UNL     1      49.798   5.287  18.277  0.00  0.00    +0.000 C 
BRANCH   9  10
ATOM     10  N   UNL     1      50.959   4.425  18.283  0.00  0.00    +0.000 N 
ATOM     11  C   UNL     1      50.853   3.117  17.854  0.00  0.00    +0.000 C 
ATOM     12  O   UNL     1      49.793   2.612  17.510  0.00  0.00    +0.000 OA
ATOM     13  N   UNL     1      52.053   2.431  17.854  0.00  0.00    +0.000 N 
ATOM     14  C   UNL     1      53.340   2.875  18.348  0.00  0.00    +0.000 C 
ATOM     15  C   UNL     1      54.322   2.033  17.557  0.00  0.00    +0.000 C 
ATOM     16  C   UNL     1      53.616   0.686  17.448  0.00  0.00    +0.000 C 
ATOM     17  C   UNL     1      52.124   1.025  17.471  0.00  0.00    +0.000 C 
ATOM     18  H   UNL     1      51.811   4.874  18.002  0.00  0.00    +0.000 HD
ENDBRANCH   9  10
ENDBRANCH   6   9
ENDBRANCH   2   3
BRANCH   2  19
ATOM     19  N   UNL     1      47.386   6.344  12.315  0.00  0.00    +0.000 N 
ATOM     20  C   UNL     1      46.246   6.675  11.622  0.00  0.00    +0.000 C 
ATOM     21  O   UNL     1      45.745   7.794  11.654  0.00  0.00    +0.000 OA
ATOM     22  H   UNL     1      47.797   5.431  12.178  0.00  0.00    +0.000 HD
BRANCH  20  23
ATOM     23  C   UNL     1      45.628   5.578  10.871  0.00  0.00    +0.000 A 
ATOM     24  C   UNL     1      45.727   5.514   9.488  0.00  0.00    +0.000 A 
ATOM     25  S   UNL     1      44.932   4.156   8.821  0.00  0.00    +0.000 S 
ATOM     26  C   UNL     1      44.432   3.616  10.355  0.00  0.00    +0.000 A 
ATOM     27  N   UNL     1      43.679   2.496  10.502  0.00  0.00    +0.000 NA
ATOM     28  C   UNL     1      43.371   2.220  11.727  0.00  0.00    +0.000 A 
ATOM     29  N   UNL     1      43.755   2.953  12.816  0.00  0.00    +0.000 N 
ATOM     30  C   UNL     1      44.534   4.077  12.719  0.00  0.00    +0.000 A 
ATOM     31  O   UNL     1      44.855   4.711  13.725  0.00  0.00    +0.000 OA
ATOM     32  C   UNL     1      44.882   4.455  11.367  0.00  0.00    +0.000 A 
ATOM     33  H   UNL     1      43.471   2.694  13.745  0.00  0.00    +0.000 HD
ENDBRANCH  20  23
ENDBRANCH   2  19
TORSDOF 5
ENDMDL
MODEL 4
REMARK VINA RESULT:    -7.208      3.326      4.822
REMARK INTER + INTRA:         -10.415
REMARK INTER:                  -9.241
REMARK INTRA:                  -1.174
REMARK UNBOUND:                -1.100
REMARK  Name = 
REMARK  6 active torsions:
REMARK  status: ('A' for Active; 'I' for Inactive)
REMARK    1  A    between atoms: C_1  and  C_2
REMARK    2  A    between atoms: C_2  and  N_3
REMARK    3  A    between atoms: C_2  and  C_16
REMARK    4  A    between atoms: C_4  and  C_6
REMARK    5  A    between atoms: C_19  and  C_20
REMARK    6  A    between atoms: C_20  and  N_21
REMARK                            x       y       z     vdW  Elec       q    Type
REMARK                         _______ _______ _______ _____ _____    ______ ____
ROOT
ATOM      1  C   UNL     1      48.288   5.591  15.722  0.00  0.00    +0.000 C 
ATOM      2  C   UNL     1      47.757   6.384  14.519  0.00  0.00    +0.000 C 
ENDROOT
BRANCH   2   3
ATOM      3  C   UNL     1      46.827   5.569  13.623  0.00  0.00    +0.000 A 
ATOM      4  C   UNL     1      46.872   4.168  13.681  0.00  0.00    +0.000 A 
ATOM      5  C   UNL     1      46.025   3.374  12.891  0.00  0.00    +0.000 A 
ATOM      6  C   UNL     1      45.113   3.955  11.998  0.00  0.00    +0.000 A 
ATOM      7  C   UNL     1      45.048   5.357  11.955  0.00  0.00    +0.000 A 
ATOM      8  C   UNL     1      45.892   6.152  12.753  0.00  0.00    +0.000 A 
BRANCH   6   9
ATOM      9  C   UNL     1      44.256   3.096  11.087  0.00  0.00    +0.000 C 
BRANCH   9  10
ATOM     10  N   UNL     1      44.992   2.539   9.973  0.00  0.00    +0.000 N 
ATOM     11  C   UNL     1      45.170   3.279   8.821  0.00  0.00    +0.000 C 
ATOM     12  O   UNL     1      44.683   4.390   8.660  0.00  0.00    +0.000 OA
ATOM     13  N   UNL     1      45.945   2.648   7.867  0.00  0.00    +0.000 N 
ATOM     14  C   UNL     1      46.472   1.298   7.889  0.00  0.00    +0.000 C 
ATOM     15  C   UNL     1      47.674   1.383   6.969  0.00  0.00    +0.000 C 
ATOM     16  C   UNL     1      47.210   2.341   5.877  0.00  0.00    +0.000 C 
ATOM     17  C   UNL     1      46.204   3.262   6.570  0.00  0.00    +0.000 C 
ATOM     18  H   UNL     1      45.796   2.000  10.235  0.00  0.00    +0.000 HD
ENDBRANCH   9  10
ENDBRANCH   6   9
ENDBRANCH   2   3
BRANCH   2  19
ATOM     19  N   UNL     1      48.839   6.948  13.734  0.00  0.00    +0.000 N 
ATOM     20  C   UNL     1      48.922   8.288  13.437  0.00  0.00    +0.000 C 
ATOM     21  O   UNL     1      48.009   9.077  13.651  0.00  0.00    +0.000 OA
ATOM     22  H   UNL     1      49.657   6.367  13.616  0.00  0.00    +0.000 HD
BRANCH  20  23
ATOM     23  C   UNL     1      50.170   8.712  12.796  0.00  0.00    +0.000 A 
ATOM     24  C   UNL     1      50.162   9.311  11.544  0.00  0.00    +0.000 A 
ATOM     25  S   UNL     1      51.725   9.721  10.986  0.00  0.00    +0.000 S 
ATOM     26  C   UNL     1      52.456   9.110  12.396  0.00  0.00    +0.000 A 
ATOM     27  N   UNL     1      53.804   9.129  12.561  0.00  0.00    +0.000 NA
ATOM     28  C   UNL     1      54.209   8.621  13.680  0.00  0.00    +0.000 A 
ATOM     29  N   UNL     1      53.392   8.109  14.649  0.00  0.00    +0.000 N 
ATOM     30  C   UNL     1      52.026   8.090  14.537  0.00  0.00    +0.000 A 
ATOM     31  O   UNL     1      51.326   7.615  15.433  0.00  0.00    +0.000 OA
ATOM     32  C   UNL     1      51.515   8.614  13.291  0.00  0.00    +0.000 A 
ATOM     33  H   UNL     1      53.769   7.715  15.493  0.00  0.00    +0.000 HD
ENDBRANCH  20  23
ENDBRANCH   2  19
TORSDOF 5
ENDMDL
MODEL 5
REMARK VINA RESULT:    -7.062      2.917      4.574
REMARK INTER + INTRA:         -10.226
REMARK INTER:                  -8.989
REMARK INTRA:                  -1.237
REMARK UNBOUND:                -1.100
REMARK  Name = 
REMARK  6 active torsions:
REMARK  status: ('A' for Active; 'I' for Inactive)
REMARK    1  A    between atoms: C_1  and  C_2
REMARK    2  A    between atoms: C_2  and  N_3
REMARK    3  A    between atoms: C_2  and  C_16
REMARK    4  A    between atoms: C_4  and  C_6
REMARK    5  A    between atoms: C_19  and  C_20
REMARK    6  A    between atoms: C_20  and  N_21
REMARK                            x       y       z     vdW  Elec       q    Type
REMARK                         _______ _______ _______ _____ _____    ______ ____
ROOT
ATOM      1  C   UNL     1      47.853   4.353  16.057  0.00  0.00    +0.000 C 
ATOM      2  C   UNL     1      47.480   5.521  15.133  0.00  0.00    +0.000 C 
ENDROOT
BRANCH   2   3
ATOM      3  C   UNL     1      46.567   5.109  13.981  0.00  0.00    +0.000 A 
ATOM      4  C   UNL     1      46.469   3.754  13.633  0.00  0.00    +0.000 A 
ATOM      5  C   UNL     1      45.629   3.322  12.593  0.00  0.00    +0.000 A 
ATOM      6  C   UNL     1      44.870   4.236  11.850  0.00  0.00    +0.000 A 
ATOM      7  C   UNL     1      44.946   5.591  12.211  0.00  0.00    +0.000 A 
ATOM      8  C   UNL     1      45.782   6.022  13.258  0.00  0.00    +0.000 A 
BRANCH   6   9
ATOM      9  C   UNL     1      44.025   3.778  10.675  0.00  0.00    +0.000 C 
BRANCH   9  10
ATOM     10  N   UNL     1      44.774   3.013   9.701  0.00  0.00    +0.000 N 
ATOM     11  C   UNL     1      45.370   3.650   8.632  0.00  0.00    +0.000 C 
ATOM     12  O   UNL     1      45.256   4.850   8.421  0.00  0.00    +0.000 OA
ATOM     13  N   UNL     1      46.103   2.806   7.819  0.00  0.00    +0.000 N 
ATOM     14  C   UNL     1      46.215   1.364   7.892  0.00  0.00    +0.000 C 
ATOM     15  C   UNL     1      47.545   1.086   7.220  0.00  0.00    +0.000 C 
ATOM     16  C   UNL     1      47.588   2.115   6.095  0.00  0.00    +0.000 C 
ATOM     17  C   UNL     1      46.769   3.297   6.617  0.00  0.00    +0.000 C 
ATOM     18  H   UNL     1      45.327   2.274  10.091  0.00  0.00    +0.000 HD
ENDBRANCH   9  10
ENDBRANCH   6   9
ENDBRANCH   2   3
BRANCH   2  19
ATOM     19  N   UNL     1      48.660   6.191  14.619  0.00  0.00    +0.000 N 
ATOM     20  C   UNL     1      49.141   7.364  15.152  0.00  0.00    +0.000 C 
ATOM     21  O   UNL     1      48.518   8.029  15.972  0.00  0.00    +0.000 OA
ATOM     22  H   UNL     1      49.258   5.645  14.015  0.00  0.00    +0.000 HD
BRANCH  20  23
ATOM     23  C   UNL     1      50.440   7.802  14.634  0.00  0.00    +0.000 A 
ATOM     24  C   UNL     1      51.539   7.923  15.473  0.00  0.00    +0.000 A 
ATOM     25  S   UNL     1      52.948   8.451  14.661  0.00  0.00    +0.000 S 
ATOM     26  C   UNL     1      52.133   8.534  13.170  0.00  0.00    +0.000 A 
ATOM     27  N   UNL     1      52.763   8.946  12.039  0.00  0.00    +0.000 NA
ATOM     28  C   UNL     1      52.009   8.965  10.988  0.00  0.00    +0.000 A 
ATOM     29  N   UNL     1      50.691   8.601  10.963  0.00  0.00    +0.000 N 
ATOM     30  C   UNL     1      50.020   8.157  12.073  0.00  0.00    +0.000 A 
ATOM     31  O   UNL     1      48.831   7.843  12.007  0.00  0.00    +0.000 OA
ATOM     32  C   UNL     1      50.803   8.147  13.288  0.00  0.00    +0.000 A 
ATOM     33  H   UNL     1      50.153   8.651  10.115  0.00  0.00    +0.000 HD
ENDBRANCH  20  23
ENDBRANCH   2  19
TORSDOF 5
ENDMDL
MODEL 6
REMARK VINA RESULT:    -6.592      4.821      8.175
REMARK INTER + INTRA:          -9.619
REMARK INTER:                  -8.788
REMARK INTRA:                  -0.831
REMARK UNBOUND:                -1.100
REMARK  Name = 
REMARK  6 active torsions:
REMARK  status: ('A' for Active; 'I' for Inactive)
REMARK    1  A    between atoms: C_1  and  C_2
REMARK    2  A    between atoms: C_2  and  N_3
REMARK    3  A    between atoms: C_2  and  C_16
REMARK    4  A    between atoms: C_4  and  C_6
REMARK    5  A    between atoms: C_19  and  C_20
REMARK    6  A    between atoms: C_20  and  N_21
REMARK                            x       y       z     vdW  Elec       q    Type
REMARK                         _______ _______ _______ _____ _____    ______ ____
ROOT
ATOM      1  C   UNL     1      45.029   9.573  12.121  0.00  0.00    +0.000 C 
ATOM      2  C   UNL     1      45.958   8.418  12.521  0.00  0.00    +0.000 C 
ENDROOT
BRANCH   2   3
ATOM      3  C   UNL     1      47.419   8.664  12.152  0.00  0.00    +0.000 A 
ATOM      4  C   UNL     1      47.844   9.970  11.866  0.00  0.00    +0.000 A 
ATOM      5  C   UNL     1      49.181  10.252  11.540  0.00  0.00    +0.000 A 
ATOM      6  C   UNL     1      50.138   9.231  11.470  0.00  0.00    +0.000 A 
ATOM      7  C   UNL     1      49.724   7.926  11.781  0.00  0.00    +0.000 A 
ATOM      8  C   UNL     1      48.385   7.646  12.115  0.00  0.00    +0.000 A 
BRANCH   6   9
ATOM      9  C   UNL     1      51.564   9.525  11.040  0.00  0.00    +0.000 C 
BRANCH   9  10
ATOM     10  N   UNL     1      52.027   8.657   9.979  0.00  0.00    +0.000 N 
ATOM     11  C   UNL     1      52.972   7.685  10.241  0.00  0.00    +0.000 C 
ATOM     12  O   UNL     1      53.496   7.544  11.338  0.00  0.00    +0.000 OA
ATOM     13  N   UNL     1      53.273   6.891   9.151  0.00  0.00    +0.000 N 
ATOM     14  C   UNL     1      52.816   7.035   7.784  0.00  0.00    +0.000 C 
ATOM     15  C   UNL     1      52.936   5.628   7.231  0.00  0.00    +0.000 C 
ATOM     16  C   UNL     1      54.205   5.101   7.893  0.00  0.00    +0.000 C 
ATOM     17  C   UNL     1      54.280   5.840   9.232  0.00  0.00    +0.000 C 
ATOM     18  H   UNL     1      51.311   8.363   9.341  0.00  0.00    +0.000 HD
ENDBRANCH   9  10
ENDBRANCH   6   9
ENDBRANCH   2   3
BRANCH   2  19
ATOM     19  N   UNL     1      45.509   7.156  11.963  0.00  0.00    +0.000 N 
ATOM     20  C   UNL     1      45.550   5.975  12.666  0.00  0.00    +0.000 C 
ATOM     21  O   UNL     1      46.130   5.857  13.739  0.00  0.00    +0.000 OA
ATOM     22  H   UNL     1      44.941   7.212  11.129  0.00  0.00    +0.000 HD
BRANCH  20  23
ATOM     23  C   UNL     1      44.889   4.838  12.020  0.00  0.00    +0.000 A 
ATOM     24  C   UNL     1      44.050   3.996  12.738  0.00  0.00    +0.000 A 
ATOM     25  S   UNL     1      43.390   2.737  11.791  0.00  0.00    +0.000 S 
ATOM     26  C   UNL     1      44.204   3.275  10.396  0.00  0.00    +0.000 A 
ATOM     27  N   UNL     1      44.093   2.619   9.213  0.00  0.00    +0.000 NA
ATOM     28  C   UNL     1      44.777   3.144   8.248  0.00  0.00    +0.000 A 
ATOM     29  N   UNL     1      45.551   4.266   8.358  0.00  0.00    +0.000 N 
ATOM     30  C   UNL     1      45.675   4.974   9.525  0.00  0.00    +0.000 A 
ATOM     31  O   UNL     1      46.386   5.979   9.581  0.00  0.00    +0.000 OA
ATOM     32  C   UNL     1      44.958   4.415  10.649  0.00  0.00    +0.000 A 
ATOM     33  H   UNL     1      46.072   4.618   7.573  0.00  0.00    +0.000 HD
ENDBRANCH  20  23
ENDBRANCH   2  19
TORSDOF 5
ENDMDL
MODEL 7
REMARK VINA RESULT:    -6.394      2.889     10.357
REMARK INTER + INTRA:          -9.362
REMARK INTER:                  -9.427
REMARK INTRA:                   0.065
REMARK UNBOUND:                -1.100
REMARK  Name = 
REMARK  6 active torsions:
REMARK  status: ('A' for Active; 'I' for Inactive)
REMARK    1  A    between atoms: C_1  and  C_2
REMARK    2  A    between atoms: C_2  and  N_3
REMARK    3  A    between atoms: C_2  and  C_16
REMARK    4  A    between atoms: C_4  and  C_6
REMARK    5  A    between atoms: C_19  and  C_20
REMARK    6  A    between atoms: C_20  and  N_21
REMARK                            x       y       z     vdW  Elec       q    Type
REMARK                         _______ _______ _______ _____ _____    ______ ____
ROOT
ATOM      1  C   UNL     1      42.966   4.275  11.481  0.00  0.00    +0.000 C 
ATOM      2  C   UNL     1      44.197   3.501  11.972  0.00  0.00    +0.000 C 
ENDROOT
BRANCH   2   3
ATOM      3  C   UNL     1      45.286   4.402  12.547  0.00  0.00    +0.000 A 
ATOM      4  C   UNL     1      46.097   3.922  13.586  0.00  0.00    +0.000 A 
ATOM      5  C   UNL     1      47.124   4.705  14.137  0.00  0.00    +0.000 A 
ATOM      6  C   UNL     1      47.365   6.008  13.678  0.00  0.00    +0.000 A 
ATOM      7  C   UNL     1      46.573   6.484  12.622  0.00  0.00    +0.000 A 
ATOM      8  C   UNL     1      45.548   5.695  12.065  0.00  0.00    +0.000 A 
BRANCH   6   9
ATOM      9  C   UNL     1      48.423   6.882  14.329  0.00  0.00    +0.000 C 
BRANCH   9  10
ATOM     10  N   UNL     1      48.252   7.010  15.760  0.00  0.00    +0.000 N 
ATOM     11  C   UNL     1      49.200   6.493  16.620  0.00  0.00    +0.000 C 
ATOM     12  O   UNL     1      50.178   5.866  16.235  0.00  0.00    +0.000 OA
ATOM     13  N   UNL     1      48.939   6.743  17.953  0.00  0.00    +0.000 N 
ATOM     14  C   UNL     1      47.766   7.362  18.537  0.00  0.00    +0.000 C 
ATOM     15  C   UNL     1      48.284   7.912  19.851  0.00  0.00    +0.000 C 
ATOM     16  C   UNL     1      49.281   6.851  20.304  0.00  0.00    +0.000 C 
ATOM     17  C   UNL     1      49.811   6.236  19.006  0.00  0.00    +0.000 C 
ATOM     18  H   UNL     1      47.877   7.893  16.055  0.00  0.00    +0.000 HD
ENDBRANCH   9  10
ENDBRANCH   6   9
ENDBRANCH   2   3
BRANCH   2  19
ATOM     19  N   UNL     1      44.747   2.658  10.926  0.00  0.00    +0.000 N 
ATOM     20  C   UNL     1      44.726   3.012   9.598  0.00  0.00    +0.000 C 
ATOM     21  O   UNL     1      44.088   3.968   9.171  0.00  0.00    +0.000 OA
ATOM     22  H   UNL     1      45.361   1.915  11.227  0.00  0.00    +0.000 HD
BRANCH  20  23
ATOM     23  C   UNL     1      45.487   2.134   8.703  0.00  0.00    +0.000 A 
ATOM     24  C   UNL     1      45.338   0.755   8.759  0.00  0.00    +0.000 A 
ATOM     25  S   UNL     1      46.320  -0.072   7.631  0.00  0.00    +0.000 S 
ATOM     26  C   UNL     1      46.972   1.384   7.037  0.00  0.00    +0.000 A 
ATOM     27  N   UNL     1      47.909   1.393   6.054  0.00  0.00    +0.000 NA
ATOM     28  C   UNL     1      48.314   2.574   5.717  0.00  0.00    +0.000 A 
ATOM     29  N   UNL     1      47.860   3.743   6.262  0.00  0.00    +0.000 N 
ATOM     30  C   UNL     1      46.899   3.785   7.239  0.00  0.00    +0.000 A 
ATOM     31  O   UNL     1      46.521   4.860   7.706  0.00  0.00    +0.000 OA
ATOM     32  C   UNL     1      46.432   2.490   7.682  0.00  0.00    +0.000 A 
ATOM     33  H   UNL     1      48.225   4.632   5.966  0.00  0.00    +0.000 HD
ENDBRANCH  20  23
ENDBRANCH   2  19
TORSDOF 5
ENDMDL
MODEL 8
REMARK VINA RESULT:    -6.228      2.502      3.383
REMARK INTER + INTRA:          -9.148
REMARK INTER:                  -8.112
REMARK INTRA:                  -1.036
REMARK UNBOUND:                -1.100
REMARK  Name = 
REMARK  6 active torsions:
REMARK  status: ('A' for Active; 'I' for Inactive)
REMARK    1  A    between atoms: C_1  and  C_2
REMARK    2  A    between atoms: C_2  and  N_3
REMARK    3  A    between atoms: C_2  and  C_16
REMARK    4  A    between atoms: C_4  and  C_6
REMARK    5  A    between atoms: C_19  and  C_20
REMARK    6  A    between atoms: C_20  and  N_21
REMARK                            x       y       z     vdW  Elec       q    Type
REMARK                         _______ _______ _______ _____ _____    ______ ____
ROOT
ATOM      1  C   UNL     1      49.360  10.590  15.166  0.00  0.00    +0.000 C 
ATOM      2  C   UNL     1      49.323   9.134  14.682  0.00  0.00    +0.000 C 
ENDROOT
BRANCH   2   3
ATOM      3  C   UNL     1      48.110   8.818  13.812  0.00  0.00    +0.000 A 
ATOM      4  C   UNL     1      47.542   7.536  13.864  0.00  0.00    +0.000 A 
ATOM      5  C   UNL     1      46.414   7.201  13.097  0.00  0.00    +0.000 A 
ATOM      6  C   UNL     1      45.824   8.135  12.233  0.00  0.00    +0.000 A 
ATOM      7  C   UNL     1      46.373   9.426  12.196  0.00  0.00    +0.000 A 
ATOM      8  C   UNL     1      47.500   9.763  12.971  0.00  0.00    +0.000 A 
BRANCH   6   9
ATOM      9  C   UNL     1      44.655   7.748  11.345  0.00  0.00    +0.000 C 
BRANCH   9  10
ATOM     10  N   UNL     1      44.928   6.591  10.520  0.00  0.00    +0.000 N 
ATOM     11  C   UNL     1      44.414   5.357  10.865  0.00  0.00    +0.000 C 
ATOM     12  O   UNL     1      43.768   5.166  11.886  0.00  0.00    +0.000 OA
ATOM     13  N   UNL     1      44.701   4.358   9.954  0.00  0.00    +0.000 N 
ATOM     14  C   UNL     1      45.550   4.431   8.782  0.00  0.00    +0.000 C 
ATOM     15  C   UNL     1      45.010   3.325   7.897  0.00  0.00    +0.000 C 
ATOM     16  C   UNL     1      44.639   2.232   8.893  0.00  0.00    +0.000 C 
ATOM     17  C   UNL     1      44.275   2.982  10.176  0.00  0.00    +0.000 C 
ATOM     18  H   UNL     1      44.914   6.773   9.534  0.00  0.00    +0.000 HD
ENDBRANCH   9  10
ENDBRANCH   6   9
ENDBRANCH   2   3
BRANCH   2  19
ATOM     19  N   UNL     1      49.397   8.202  15.793  0.00  0.00    +0.000 N 
ATOM     20  C   UNL     1      50.527   7.474  16.079  0.00  0.00    +0.000 C 
ATOM     21  O   UNL     1      51.491   7.412  15.324  0.00  0.00    +0.000 OA
ATOM     22  H   UNL     1      48.674   8.284  16.494  0.00  0.00    +0.000 HD
BRANCH  20  23
ATOM     23  C   UNL     1      50.488   6.724  17.338  0.00  0.00    +0.000 A 
ATOM     24  C   UNL     1      51.297   7.082  18.408  0.00  0.00    +0.000 A 
ATOM     25  S   UNL     1      51.092   6.073  19.772  0.00  0.00    +0.000 S 
ATOM     26  C   UNL     1      49.920   5.130  18.976  0.00  0.00    +0.000 A 
ATOM     27  N   UNL     1      49.338   4.063  19.581  0.00  0.00    +0.000 NA
ATOM     28  C   UNL     1      48.475   3.441  18.845  0.00  0.00    +0.000 A 
ATOM     29  N   UNL     1      48.134   3.794  17.569  0.00  0.00    +0.000 N 
ATOM     30  C   UNL     1      48.678   4.877  16.926  0.00  0.00    +0.000 A 
ATOM     31  O   UNL     1      48.345   5.158  15.774  0.00  0.00    +0.000 OA
ATOM     32  C   UNL     1      49.676   5.592  17.688  0.00  0.00    +0.000 A 
ATOM     33  H   UNL     1      47.464   3.261  17.042  0.00  0.00    +0.000 HD
ENDBRANCH  20  23
ENDBRANCH   2  19
TORSDOF 5
ENDMDL
MODEL 9
REMARK VINA RESULT:    -5.978      4.627      8.716
REMARK INTER + INTRA:          -8.825
REMARK INTER:                  -7.741
REMARK INTRA:                  -1.085
REMARK UNBOUND:                -1.100
REMARK  Name = 
REMARK  6 active torsions:
REMARK  status: ('A' for Active; 'I' for Inactive)
REMARK    1  A    between atoms: C_1  and  C_2
REMARK    2  A    between atoms: C_2  and  N_3
REMARK    3  A    between atoms: C_2  and  C_16
REMARK    4  A    between atoms: C_4  and  C_6
REMARK    5  A    between atoms: C_19  and  C_20
REMARK    6  A    between atoms: C_20  and  N_21
REMARK                            x       y       z     vdW  Elec       q    Type
REMARK                         _______ _______ _______ _____ _____    ______ ____
ROOT
ATOM      1  C   UNL     1      45.087   4.505  13.271  0.00  0.00    +0.000 C 
ATOM      2  C   UNL     1      46.450   5.204  13.371  0.00  0.00    +0.000 C 
ENDROOT
BRANCH   2   3
ATOM      3  C   UNL     1      47.203   4.875  14.657  0.00  0.00    +0.000 A 
ATOM      4  C   UNL     1      47.969   5.873  15.278  0.00  0.00    +0.000 A 
ATOM      5  C   UNL     1      48.666   5.626  16.472  0.00  0.00    +0.000 A 
ATOM      6  C   UNL     1      48.636   4.363  17.079  0.00  0.00    +0.000 A 
ATOM      7  C   UNL     1      47.851   3.368  16.474  0.00  0.00    +0.000 A 
ATOM      8  C   UNL     1      47.147   3.619  15.281  0.00  0.00    +0.000 A 
BRANCH   6   9
ATOM      9  C   UNL     1      49.454   4.075  18.325  0.00  0.00    +0.000 C 
BRANCH   9  10
ATOM     10  N   UNL     1      50.484   3.081  18.111  0.00  0.00    +0.000 N 
ATOM     11  C   UNL     1      51.789   3.473  17.890  0.00  0.00    +0.000 C 
ATOM     12  O   UNL     1      52.129   4.646  17.807  0.00  0.00    +0.000 OA
ATOM     13  N   UNL     1      52.675   2.420  17.766  0.00  0.00    +0.000 N 
ATOM     14  C   UNL     1      52.380   1.002  17.724  0.00  0.00    +0.000 C 
ATOM     15  C   UNL     1      53.675   0.367  18.194  0.00  0.00    +0.000 C 
ATOM     16  C   UNL     1      54.745   1.264  17.582  0.00  0.00    +0.000 C 
ATOM     17  C   UNL     1      54.088   2.644  17.487  0.00  0.00    +0.000 C 
ATOM     18  H   UNL     1      50.400   2.266  18.689  0.00  0.00    +0.000 HD
ENDBRANCH   9  10
ENDBRANCH   6   9
ENDBRANCH   2   3
BRANCH   2  19
ATOM     19  N   UNL     1      46.323   6.642  13.220  0.00  0.00    +0.000 N 
ATOM     20  C   UNL     1      47.064   7.363  12.315  0.00  0.00    +0.000 C 
ATOM     21  O   UNL     1      48.011   6.889  11.697  0.00  0.00    +0.000 OA
ATOM     22  H   UNL     1      45.502   7.064  13.631  0.00  0.00    +0.000 HD
BRANCH  20  23
ATOM     23  C   UNL     1      46.678   8.770  12.168  0.00  0.00    +0.000 A 
ATOM     24  C   UNL     1      47.591   9.789  12.398  0.00  0.00    +0.000 A 
ATOM     25  S   UNL     1      46.928  11.348  12.171  0.00  0.00    +0.000 S 
ATOM     26  C   UNL     1      45.406  10.709  11.761  0.00  0.00    +0.000 A 
ATOM     27  N   UNL     1      44.353  11.516  11.468  0.00  0.00    +0.000 NA
ATOM     28  C   UNL     1      43.261  10.883  11.185  0.00  0.00    +0.000 A 
ATOM     29  N   UNL     1      43.129   9.522  11.158  0.00  0.00    +0.000 N 
ATOM     30  C   UNL     1      44.168   8.668  11.424  0.00  0.00    +0.000 A 
ATOM     31  O   UNL     1      44.005   7.448  11.392  0.00  0.00    +0.000 OA
ATOM     32  C   UNL     1      45.408   9.320  11.780  0.00  0.00    +0.000 A 
ATOM     33  H   UNL     1      42.248   9.089  10.944  0.00  0.00    +0.000 HD
ENDBRANCH  20  23
ENDBRANCH   2  19
TORSDOF 5
ENDMDL
