MODEL 1
REMARK VINA RESULT:    -8.194      0.000      0.000
REMARK INTER + INTRA:         -13.143
REMARK INTER:                 -11.548
REMARK INTRA:                  -1.596
REMARK UNBOUND:                -1.596
REMARK  Name = 
REMARK  8 active torsions:
REMARK  status: ('A' for Active; 'I' for Inactive)
REMARK    1  A    between atoms: C_1  and  O_2
REMARK    2  A    between atoms: O_2  and  C_3
REMARK    3  A    between atoms: C_10  and  C_11
REMARK    4  A    between atoms: N_13  and  C_14
REMARK    5  A    between atoms: C_14  and  C_15
REMARK    6  A    between atoms: C_18  and  N_19
REMARK    7  A    between atoms: N_19  and  C_20
REMARK    8  A    between atoms: C_20  and  C_21
REMARK                            x       y       z     vdW  Elec       q    Type
REMARK                         _______ _______ _______ _____ _____    ______ ____
ROOT
ATOM      1  C   UNL     1      46.325   7.950  12.841  0.00  0.00    +0.000 C 
ENDROOT
BRANCH   1   2
ATOM      2  C   UNL     1      45.771   6.919  11.888  0.00  0.00    +0.000 A 
ATOM      3  C   UNL     1      46.457   6.581  10.715  0.00  0.00    +0.000 A 
ATOM      4  C   UNL     1      46.023   5.515   9.913  0.00  0.00    +0.000 A 
ATOM      5  C   UNL     1      44.899   4.763  10.265  0.00  0.00    +0.000 A 
ATOM      6  C   UNL     1      44.134   5.203  11.352  0.00  0.00    +0.000 A 
ATOM      7  C   UNL     1      44.570   6.258  12.166  0.00  0.00    +0.000 A 
BRANCH   5   8
ATOM      8  N   UNL     1      44.473   3.619   9.583  0.00  0.00    +0.000 N 
ATOM      9  H   UNL     1      43.587   3.273   9.945  0.00  0.00    +0.000 HD
BRANCH   8  10
ATOM     10  C   UNL     1      44.527   3.608   8.125  0.00  0.00    +0.000 C 
BRANCH  10  11
ATOM     11  C   UNL     1      45.732   2.822   7.655  0.00  0.00    +0.000 A 
ATOM     12  C   UNL     1      46.019   1.553   8.161  0.00  0.00    +0.000 A 
ATOM     13  C   UNL     1      47.094   0.852   7.632  0.00  0.00    +0.000 A 
ATOM     14  N   UNL     1      47.889   1.321   6.647  0.00  0.00    +0.000 NA
ATOM     15  C   UNL     1      47.599   2.550   6.172  0.00  0.00    +0.000 A 
ATOM     16  C   UNL     1      46.548   3.327   6.638  0.00  0.00    +0.000 A 
ENDBRANCH  10  11
ENDBRANCH   8  10
ENDBRANCH   5   8
ENDBRANCH   1   2
BRANCH   1  19
ATOM     17  C   UNL     1      48.239   7.089  14.118  0.00  0.00    +0.000 C 
ATOM     18  O   UNL     1      49.021   7.365  13.209  0.00  0.00    +0.000 OA
ATOM     19  N   UNL     1      46.899   7.352  14.016  0.00  0.00    +0.000 N 
ATOM     20  H   UNL     1      46.273   7.108  14.766  0.00  0.00    +0.000 HD
BRANCH  17  28
ATOM     21  C   UNL     1      47.256   4.297  15.870  0.00  0.00    +0.000 A 
ATOM     22  N   UNL     1      47.114   3.248  16.702  0.00  0.00    +0.000 NA
ATOM     23  C   UNL     1      47.945   3.157  17.744  0.00  0.00    +0.000 A 
ATOM     24  N   UNL     1      48.916   4.009  18.072  0.00  0.00    +0.000 NA
ATOM     25  C   UNL     1      49.031   5.031  17.208  0.00  0.00    +0.000 A 
ATOM     26  S   UNL     1      50.211   6.223  17.472  0.00  0.00    +0.000 S 
ATOM     27  C   UNL     1      49.751   7.060  16.065  0.00  0.00    +0.000 A 
ATOM     28  C   UNL     1      48.709   6.459  15.368  0.00  0.00    +0.000 A 
ATOM     29  C   UNL     1      48.264   5.257  16.068  0.00  0.00    +0.000 A 
BRANCH  21  31
ATOM     30  C   UNL     1      46.860   3.673  13.648  0.00  0.00    +0.000 C 
ATOM     31  O   UNL     1      46.405   4.391  14.791  0.00  0.00    +0.000 OA
ENDBRANCH  21  31
ENDBRANCH  17  28
ENDBRANCH   1  19
TORSDOF 7
ENDMDL
MODEL 2
REMARK VINA RESULT:    -7.655      1.910      3.411
REMARK INTER + INTRA:         -12.384
REMARK INTER:                 -11.045
REMARK INTRA:                  -1.338
REMARK UNBOUND:                -1.596
REMARK  Name = 
REMARK  8 active torsions:
REMARK  status: ('A' for Active; 'I' for Inactive)
REMARK    1  A    between atoms: C_1  and  O_2
REMARK    2  A    between atoms: O_2  and  C_3
REMARK    3  A    between atoms: C_10  and  C_11
REMARK    4  A    between atoms: N_13  and  C_14
REMARK    5  A    between atoms: C_14  and  C_15
REMARK    6  A    between atoms: C_18  and  N_19
REMARK    7  A    between atoms: N_19  and  C_20
REMARK    8  A    between atoms: C_20  and  C_21
REMARK                            x       y       z     vdW  Elec       q    Type
REMARK                         _______ _______ _______ _____ _____    ______ ____
ROOT
ATOM      1  C   UNL     1      46.735   4.392  14.485  0.00  0.00    +0.000 C 
ENDROOT
BRANCH   1   2
ATOM      2  C   UNL     1      46.137   4.591  13.114  0.00  0.00    +0.000 A 
ATOM      3  C   UNL     1      46.361   5.771  12.395  0.00  0.00    +0.000 A 
ATOM      4  C   UNL     1      45.936   5.890  11.064  0.00  0.00    +0.000 A 
ATOM      5  C   UNL     1      45.282   4.836  10.420  0.00  0.00    +0.000 A 
ATOM      6  C   UNL     1      44.929   3.722  11.191  0.00  0.00    +0.000 A 
ATOM      7  C   UNL     1      45.363   3.590  12.517  0.00  0.00    +0.000 A 
BRANCH   5   8
ATOM      8  N   UNL     1      44.933   4.836   9.067  0.00  0.00    +0.000 N 
ATOM      9  H   UNL     1      45.601   5.359   8.506  0.00  0.00    +0.000 HD
BRANCH   8  10
ATOM     10  C   UNL     1      44.537   3.578   8.443  0.00  0.00    +0.000 C 
BRANCH  10  11
ATOM     11  C   UNL     1      45.756   2.854   7.912  0.00  0.00    +0.000 A 
ATOM     12  C   UNL     1      45.996   1.512   8.209  0.00  0.00    +0.000 A 
ATOM     13  C   UNL     1      47.090   0.885   7.628  0.00  0.00    +0.000 A 
ATOM     14  N   UNL     1      47.947   1.496   6.782  0.00  0.00    +0.000 NA
ATOM     15  C   UNL     1      47.702   2.794   6.510  0.00  0.00    +0.000 A 
ATOM     16  C   UNL     1      46.637   3.505   7.042  0.00  0.00    +0.000 A 
ENDBRANCH  10  11
ENDBRANCH   8  10
ENDBRANCH   5   8
ENDBRANCH   1   2
BRANCH   1  19
ATOM     17  C   UNL     1      48.355   5.497  15.967  0.00  0.00    +0.000 C 
ATOM     18  O   UNL     1      48.604   4.440  16.546  0.00  0.00    +0.000 OA
ATOM     19  N   UNL     1      47.452   5.554  14.938  0.00  0.00    +0.000 N 
ATOM     20  H   UNL     1      47.252   6.430  14.483  0.00  0.00    +0.000 HD
BRANCH  17  28
ATOM     21  C   UNL     1      50.007   7.934  14.189  0.00  0.00    +0.000 A 
ATOM     22  N   UNL     1      50.637   9.036  13.739  0.00  0.00    +0.000 NA
ATOM     23  C   UNL     1      50.987   9.966  14.631  0.00  0.00    +0.000 A 
ATOM     24  N   UNL     1      50.792   9.928  15.949  0.00  0.00    +0.000 NA
ATOM     25  C   UNL     1      50.149   8.820  16.351  0.00  0.00    +0.000 A 
ATOM     26  S   UNL     1      49.820   8.594  18.002  0.00  0.00    +0.000 S 
ATOM     27  C   UNL     1      49.049   7.109  17.696  0.00  0.00    +0.000 A 
ATOM     28  C   UNL     1      49.018   6.758  16.352  0.00  0.00    +0.000 A 
ATOM     29  C   UNL     1      49.698   7.773  15.551  0.00  0.00    +0.000 A 
BRANCH  21  31
ATOM     30  C   UNL     1      49.552   7.472  11.940  0.00  0.00    +0.000 C 
ATOM     31  O   UNL     1      49.639   6.975  13.272  0.00  0.00    +0.000 OA
ENDBRANCH  21  31
ENDBRANCH  17  28
ENDBRANCH   1  19
TORSDOF 7
ENDMDL
MODEL 3
REMARK VINA RESULT:    -7.599      2.115      2.801
REMARK INTER + INTRA:         -12.305
REMARK INTER:                 -11.324
REMARK INTRA:                  -0.980
REMARK UNBOUND:                -1.596
REMARK  Name = 
REMARK  8 active torsions:
REMARK  status: ('A' for Active; 'I' for Inactive)
REMARK    1  A    between atoms: C_1  and  O_2
REMARK    2  A    between atoms: O_2  and  C_3
REMARK    3  A    between atoms: C_10  and  C_11
REMARK    4  A    between atoms: N_13  and  C_14
REMARK    5  A    between atoms: C_14  and  C_15
REMARK    6  A    between atoms: C_18  and  N_19
REMARK    7  A    between atoms: N_19  and  C_20
REMARK    8  A    between atoms: C_20  and  C_21
REMARK                            x       y       z     vdW  Elec       q    Type
REMARK                         _______ _______ _______ _____ _____    ______ ____
ROOT
ATOM      1  C   UNL     1      47.445   6.750  13.498  0.00  0.00    +0.000 C 
ENDROOT
BRANCH   1   2
ATOM      2  C   UNL     1      46.551   5.974  12.563  0.00  0.00    +0.000 A 
ATOM      3  C   UNL     1      46.379   6.376  11.233  0.00  0.00    +0.000 A 
ATOM      4  C   UNL     1      45.676   5.569  10.326  0.00  0.00    +0.000 A 
ATOM      5  C   UNL     1      45.133   4.344  10.724  0.00  0.00    +0.000 A 
ATOM      6  C   UNL     1      45.179   4.024  12.086  0.00  0.00    +0.000 A 
ATOM      7  C   UNL     1      45.892   4.818  12.995  0.00  0.00    +0.000 A 
BRANCH   5   8
ATOM      8  N   UNL     1      44.523   3.435   9.855  0.00  0.00    +0.000 N 
ATOM      9  H   UNL     1      43.570   3.223  10.142  0.00  0.00    +0.000 HD
BRANCH   8  10
ATOM     10  C   UNL     1      44.645   3.645   8.417  0.00  0.00    +0.000 C 
BRANCH  10  11
ATOM     11  C   UNL     1      45.809   2.846   7.871  0.00  0.00    +0.000 A 
ATOM     12  C   UNL     1      46.003   1.508   8.218  0.00  0.00    +0.000 A 
ATOM     13  C   UNL     1      47.044   0.810   7.621  0.00  0.00    +0.000 A 
ATOM     14  N   UNL     1      47.892   1.345   6.717  0.00  0.00    +0.000 NA
ATOM     15  C   UNL     1      47.690   2.640   6.397  0.00  0.00    +0.000 A 
ATOM     16  C   UNL     1      46.680   3.420   6.939  0.00  0.00    +0.000 A 
ENDBRANCH  10  11
ENDBRANCH   8  10
ENDBRANCH   5   8
ENDBRANCH   1   2
BRANCH   1  19
ATOM     17  C   UNL     1      48.628   6.138  15.563  0.00  0.00    +0.000 C 
ATOM     18  O   UNL     1      49.685   6.607  15.142  0.00  0.00    +0.000 OA
ATOM     19  N   UNL     1      47.481   6.176  14.816  0.00  0.00    +0.000 N 
ATOM     20  H   UNL     1      46.627   5.777  15.173  0.00  0.00    +0.000 HD
BRANCH  17  28
ATOM     21  C   UNL     1      48.143   7.383  18.732  0.00  0.00    +0.000 A 
ATOM     22  N   UNL     1      47.917   7.595  20.042  0.00  0.00    +0.000 NA
ATOM     23  C   UNL     1      47.894   6.534  20.854  0.00  0.00    +0.000 A 
ATOM     24  N   UNL     1      48.083   5.260  20.513  0.00  0.00    +0.000 NA
ATOM     25  C   UNL     1      48.291   5.094  19.197  0.00  0.00    +0.000 A 
ATOM     26  S   UNL     1      48.561   3.535  18.580  0.00  0.00    +0.000 S 
ATOM     27  C   UNL     1      48.703   4.133  16.995  0.00  0.00    +0.000 A 
ATOM     28  C   UNL     1      48.545   5.510  16.897  0.00  0.00    +0.000 A 
ATOM     29  C   UNL     1      48.321   6.086  18.220  0.00  0.00    +0.000 A 
BRANCH  21  31
ATOM     30  C   UNL     1      47.720   9.676  18.516  0.00  0.00    +0.000 C 
ATOM     31  O   UNL     1      48.162   8.475  17.891  0.00  0.00    +0.000 OA
ENDBRANCH  21  31
ENDBRANCH  17  28
ENDBRANCH   1  19
TORSDOF 7
ENDMDL
MODEL 4
REMARK VINA RESULT:    -7.472      1.448      2.127
REMARK INTER + INTRA:         -12.126
REMARK INTER:                 -10.889
REMARK INTRA:                  -1.236
REMARK UNBOUND:                -1.596
REMARK  Name = 
REMARK  8 active torsions:
REMARK  status: ('A' for Active; 'I' for Inactive)
REMARK    1  A    between atoms: C_1  and  O_2
REMARK    2  A    between atoms: O_2  and  C_3
REMARK    3  A    between atoms: C_10  and  C_11
REMARK    4  A    between atoms: N_13  and  C_14
REMARK    5  A    between atoms: C_14  and  C_15
REMARK    6  A    between atoms: C_18  and  N_19
REMARK    7  A    between atoms: N_19  and  C_20
REMARK    8  A    between atoms: C_20  and  C_21
REMARK                            x       y       z     vdW  Elec       q    Type
REMARK                         _______ _______ _______ _____ _____    ______ ____
ROOT
ATOM      1  C   UNL     1      46.703   7.073  13.604  0.00  0.00    +0.000 C 
ENDROOT
BRANCH   1   2
ATOM      2  C   UNL     1      46.265   6.050  12.585  0.00  0.00    +0.000 A 
ATOM      3  C   UNL     1      45.894   4.758  12.977  0.00  0.00    +0.000 A 
ATOM      4  C   UNL     1      45.340   3.860  12.052  0.00  0.00    +0.000 A 
ATOM      5  C   UNL     1      45.140   4.233  10.720  0.00  0.00    +0.000 A 
ATOM      6  C   UNL     1      45.652   5.468  10.306  0.00  0.00    +0.000 A 
ATOM      7  C   UNL     1      46.193   6.375  11.226  0.00  0.00    +0.000 A 
BRANCH   5   8
ATOM      8  N   UNL     1      44.490   3.439   9.770  0.00  0.00    +0.000 N 
ATOM      9  H   UNL     1      43.519   3.271  10.022  0.00  0.00    +0.000 HD
BRANCH   8  10
ATOM     10  C   UNL     1      44.660   3.753   8.356  0.00  0.00    +0.000 C 
BRANCH  10  11
ATOM     11  C   UNL     1      45.739   2.878   7.755  0.00  0.00    +0.000 A 
ATOM     12  C   UNL     1      46.620   3.365   6.789  0.00  0.00    +0.000 A 
ATOM     13  C   UNL     1      47.637   2.536   6.335  0.00  0.00    +0.000 A 
ATOM     14  N   UNL     1      47.832   1.273   6.773  0.00  0.00    +0.000 NA
ATOM     15  C   UNL     1      46.969   0.819   7.704  0.00  0.00    +0.000 A 
ATOM     16  C   UNL     1      45.922   1.571   8.217  0.00  0.00    +0.000 A 
ENDBRANCH  10  11
ENDBRANCH   8  10
ENDBRANCH   5   8
ENDBRANCH   1   2
BRANCH   1  19
ATOM     17  C   UNL     1      48.651   7.556  15.022  0.00  0.00    +0.000 C 
ATOM     18  O   UNL     1      48.334   8.741  15.122  0.00  0.00    +0.000 OA
ATOM     19  N   UNL     1      47.897   6.671  14.298  0.00  0.00    +0.000 N 
ATOM     20  H   UNL     1      48.179   5.707  14.218  0.00  0.00    +0.000 HD
BRANCH  17  28
ATOM     21  C   UNL     1      49.195   5.034  17.297  0.00  0.00    +0.000 A 
ATOM     22  N   UNL     1      49.683   4.089  18.122  0.00  0.00    +0.000 NA
ATOM     23  C   UNL     1      51.004   4.050  18.318  0.00  0.00    +0.000 A 
ATOM     24  N   UNL     1      51.918   4.863  17.788  0.00  0.00    +0.000 NA
ATOM     25  C   UNL     1      51.388   5.779  16.962  0.00  0.00    +0.000 A 
ATOM     26  S   UNL     1      52.402   6.909  16.201  0.00  0.00    +0.000 S 
ATOM     27  C   UNL     1      51.086   7.625  15.398  0.00  0.00    +0.000 A 
ATOM     28  C   UNL     1      49.863   7.028  15.680  0.00  0.00    +0.000 A 
ATOM     29  C   UNL     1      50.044   5.938  16.635  0.00  0.00    +0.000 A 
BRANCH  21  31
ATOM     30  C   UNL     1      47.326   3.906  16.449  0.00  0.00    +0.000 C 
ATOM     31  O   UNL     1      47.833   5.074  17.088  0.00  0.00    +0.000 OA
ENDBRANCH  21  31
ENDBRANCH  17  28
ENDBRANCH   1  19
TORSDOF 7
ENDMDL
MODEL 5
REMARK VINA RESULT:    -7.363      1.812      2.178
REMARK INTER + INTRA:         -11.972
REMARK INTER:                 -10.806
REMARK INTRA:                  -1.166
REMARK UNBOUND:                -1.596
REMARK  Name = 
REMARK  8 active torsions:
REMARK  status: ('A' for Active; 'I' for Inactive)
REMARK    1  A    between atoms: C_1  and  O_2
REMARK    2  A    between atoms: O_2  and  C_3
REMARK    3  A    between atoms: C_10  and  C_11
REMARK    4  A    between atoms: N_13  and  C_14
REMARK    5  A    between atoms: C_14  and  C_15
REMARK    6  A    between atoms: C_18  and  N_19
REMARK    7  A    between atoms: N_19  and  C_20
REMARK    8  A    between atoms: C_20  and  C_21
REMARK                            x       y       z     vdW  Elec       q    Type
REMARK                         _______ _______ _______ _____ _____    ______ ____
ROOT
ATOM      1  C   UNL     1      48.267   6.851  13.484  0.00  0.00    +0.000 C 
ENDROOT
BRANCH   1   2
ATOM      2  C   UNL     1      47.134   6.159  12.766  0.00  0.00    +0.000 A 
ATOM      3  C   UNL     1      46.650   6.648  11.546  0.00  0.00    +0.000 A 
ATOM      4  C   UNL     1      45.708   5.919  10.805  0.00  0.00    +0.000 A 
ATOM      5  C   UNL     1      45.231   4.688  11.262  0.00  0.00    +0.000 A 
ATOM      6  C   UNL     1      45.605   4.282  12.549  0.00  0.00    +0.000 A 
ATOM      7  C   UNL     1      46.557   4.997  13.288  0.00  0.00    +0.000 A 
BRANCH   5   8
ATOM      8  N   UNL     1      44.384   3.851  10.529  0.00  0.00    +0.000 N 
ATOM      9  H   UNL     1      43.459   3.793  10.948  0.00  0.00    +0.000 HD
BRANCH   8  10
ATOM     10  C   UNL     1      44.337   3.994   9.078  0.00  0.00    +0.000 C 
BRANCH  10  11
ATOM     11  C   UNL     1      45.425   3.159   8.438  0.00  0.00    +0.000 A 
ATOM     12  C   UNL     1      45.511   1.783   8.652  0.00  0.00    +0.000 A 
ATOM     13  C   UNL     1      46.485   1.063   7.973  0.00  0.00    +0.000 A 
ATOM     14  N   UNL     1      47.364   1.612   7.108  0.00  0.00    +0.000 NA
ATOM     15  C   UNL     1      47.268   2.944   6.917  0.00  0.00    +0.000 A 
ATOM     16  C   UNL     1      46.331   3.747   7.549  0.00  0.00    +0.000 A 
ENDBRANCH  10  11
ENDBRANCH   8  10
ENDBRANCH   5   8
ENDBRANCH   1   2
BRANCH   1  19
ATOM     17  C   UNL     1      49.085   6.776  15.800  0.00  0.00    +0.000 C 
ATOM     18  O   UNL     1      50.246   6.619  15.426  0.00  0.00    +0.000 OA
ATOM     19  N   UNL     1      48.055   6.904  14.906  0.00  0.00    +0.000 N 
ATOM     20  H   UNL     1      47.109   7.020  15.231  0.00  0.00    +0.000 HD
BRANCH  17  28
ATOM     21  C   UNL     1      48.887   4.399  18.278  0.00  0.00    +0.000 A 
ATOM     22  N   UNL     1      48.792   3.695  19.422  0.00  0.00    +0.000 NA
ATOM     23  C   UNL     1      48.472   4.355  20.539  0.00  0.00    +0.000 A 
ATOM     24  N   UNL     1      48.219   5.658  20.655  0.00  0.00    +0.000 NA
ATOM     25  C   UNL     1      48.340   6.322  19.494  0.00  0.00    +0.000 A 
ATOM     26  S   UNL     1      48.046   7.994  19.450  0.00  0.00    +0.000 S 
ATOM     27  C   UNL     1      48.393   8.061  17.786  0.00  0.00    +0.000 A 
ATOM     28  C   UNL     1      48.742   6.834  17.235  0.00  0.00    +0.000 A 
ATOM     29  C   UNL     1      48.687   5.790  18.255  0.00  0.00    +0.000 A 
BRANCH  21  31
ATOM     30  C   UNL     1      48.096   3.179  16.443  0.00  0.00    +0.000 C 
ATOM     31  O   UNL     1      49.222   3.723  17.125  0.00  0.00    +0.000 OA
ENDBRANCH  21  31
ENDBRANCH  17  28
ENDBRANCH   1  19
TORSDOF 7
ENDMDL
MODEL 6
REMARK VINA RESULT:    -7.263      1.726      3.066
REMARK INTER + INTRA:         -11.830
REMARK INTER:                 -10.779
REMARK INTRA:                  -1.051
REMARK UNBOUND:                -1.596
REMARK  Name = 
REMARK  8 active torsions:
REMARK  status: ('A' for Active; 'I' for Inactive)
REMARK    1  A    between atoms: C_1  and  O_2
REMARK    2  A    between atoms: O_2  and  C_3
REMARK    3  A    between atoms: C_10  and  C_11
REMARK    4  A    between atoms: N_13  and  C_14
REMARK    5  A    between atoms: C_14  and  C_15
REMARK    6  A    between atoms: C_18  and  N_19
REMARK    7  A    between atoms: N_19  and  C_20
REMARK    8  A    between atoms: C_20  and  C_21
REMARK                            x       y       z     vdW  Elec       q    Type
REMARK                         _______ _______ _______ _____ _____    ______ ____
ROOT
ATOM      1  C   UNL     1      45.714   4.679  14.590  0.00  0.00    +0.000 C 
ENDROOT
BRANCH   1   2
ATOM      2  C   UNL     1      45.705   4.649  13.082  0.00  0.00    +0.000 A 
ATOM      3  C   UNL     1      45.279   3.511  12.386  0.00  0.00    +0.000 A 
ATOM      4  C   UNL     1      45.123   3.539  10.993  0.00  0.00    +0.000 A 
ATOM      5  C   UNL     1      45.386   4.702  10.264  0.00  0.00    +0.000 A 
ATOM      6  C   UNL     1      45.955   5.784  10.946  0.00  0.00    +0.000 A 
ATOM      7  C   UNL     1      46.100   5.768  12.340  0.00  0.00    +0.000 A 
BRANCH   5   8
ATOM      8  N   UNL     1      45.145   4.843   8.893  0.00  0.00    +0.000 N 
ATOM      9  H   UNL     1      45.902   5.337   8.427  0.00  0.00    +0.000 HD
BRANCH   8  10
ATOM     10  C   UNL     1      44.679   3.685   8.138  0.00  0.00    +0.000 C 
BRANCH  10  11
ATOM     11  C   UNL     1      45.860   2.892   7.621  0.00  0.00    +0.000 A 
ATOM     12  C   UNL     1      46.168   1.627   8.124  0.00  0.00    +0.000 A 
ATOM     13  C   UNL     1      47.216   0.919   7.552  0.00  0.00    +0.000 A 
ATOM     14  N   UNL     1      47.967   1.379   6.528  0.00  0.00    +0.000 NA
ATOM     15  C   UNL     1      47.657   2.605   6.058  0.00  0.00    +0.000 A 
ATOM     16  C   UNL     1      46.630   3.387   6.564  0.00  0.00    +0.000 A 
ENDBRANCH  10  11
ENDBRANCH   8  10
ENDBRANCH   5   8
ENDBRANCH   1   2
BRANCH   1  19
ATOM     17  C   UNL     1      47.398   4.337  16.347  0.00  0.00    +0.000 C 
ATOM     18  O   UNL     1      46.598   3.718  17.048  0.00  0.00    +0.000 OA
ATOM     19  N   UNL     1      47.041   4.836  15.122  0.00  0.00    +0.000 N 
ATOM     20  H   UNL     1      47.706   5.350  14.568  0.00  0.00    +0.000 HD
BRANCH  17  28
ATOM     21  C   UNL     1      49.608   6.936  15.908  0.00  0.00    +0.000 A 
ATOM     22  N   UNL     1      50.626   7.817  15.937  0.00  0.00    +0.000 NA
ATOM     23  C   UNL     1      51.728   7.479  16.613  0.00  0.00    +0.000 A 
ATOM     24  N   UNL     1      51.948   6.341  17.271  0.00  0.00    +0.000 NA
ATOM     25  C   UNL     1      50.903   5.500  17.228  0.00  0.00    +0.000 A 
ATOM     26  S   UNL     1      51.006   3.993  18.004  0.00  0.00    +0.000 S 
ATOM     27  C   UNL     1      49.423   3.586  17.534  0.00  0.00    +0.000 A 
ATOM     28  C   UNL     1      48.785   4.574  16.793  0.00  0.00    +0.000 A 
ATOM     29  C   UNL     1      49.682   5.709  16.591  0.00  0.00    +0.000 A 
BRANCH  21  31
ATOM     30  C   UNL     1      48.539   8.577  14.625  0.00  0.00    +0.000 C 
ATOM     31  O   UNL     1      48.468   7.282  15.216  0.00  0.00    +0.000 OA
ENDBRANCH  21  31
ENDBRANCH  17  28
ENDBRANCH   1  19
TORSDOF 7
ENDMDL
MODEL 7
REMARK VINA RESULT:    -6.752      2.588      3.512
REMARK INTER + INTRA:         -11.111
REMARK INTER:                 -10.146
REMARK INTRA:                  -0.965
REMARK UNBOUND:                -1.596
REMARK  Name = 
REMARK  8 active torsions:
REMARK  status: ('A' for Active; 'I' for Inactive)
REMARK    1  A    between atoms: C_1  and  O_2
REMARK    2  A    between atoms: O_2  and  C_3
REMARK    3  A    between atoms: C_10  and  C_11
REMARK    4  A    between atoms: N_13  and  C_14
REMARK    5  A    between atoms: C_14  and  C_15
REMARK    6  A    between atoms: C_18  and  N_19
REMARK    7  A    between atoms: N_19  and  C_20
REMARK    8  A    between atoms: C_20  and  C_21
REMARK                            x       y       z     vdW  Elec       q    Type
REMARK                         _______ _______ _______ _____ _____    ______ ____
ROOT
ATOM      1  C   UNL     1      46.983   5.273  14.351  0.00  0.00    +0.000 C 
ENDROOT
BRANCH   1   2
ATOM      2  C   UNL     1      46.316   5.246  12.998  0.00  0.00    +0.000 A 
ATOM      3  C   UNL     1      46.574   6.242  12.048  0.00  0.00    +0.000 A 
ATOM      4  C   UNL     1      46.077   6.131  10.741  0.00  0.00    +0.000 A 
ATOM      5  C   UNL     1      45.316   5.026  10.353  0.00  0.00    +0.000 A 
ATOM      6  C   UNL     1      44.936   4.115  11.347  0.00  0.00    +0.000 A 
ATOM      7  C   UNL     1      45.441   4.211  12.651  0.00  0.00    +0.000 A 
BRANCH   5   8
ATOM      8  N   UNL     1      44.884   4.787   9.045  0.00  0.00    +0.000 N 
ATOM      9  H   UNL     1      45.482   5.248   8.362  0.00  0.00    +0.000 HD
BRANCH   8  10
ATOM     10  C   UNL     1      44.532   3.426   8.657  0.00  0.00    +0.000 C 
BRANCH  10  11
ATOM     11  C   UNL     1      45.731   2.731   8.049  0.00  0.00    +0.000 A 
ATOM     12  C   UNL     1      45.949   1.364   8.221  0.00  0.00    +0.000 A 
ATOM     13  C   UNL     1      47.024   0.773   7.572  0.00  0.00    +0.000 A 
ATOM     14  N   UNL     1      47.883   1.441   6.773  0.00  0.00    +0.000 NA
ATOM     15  C   UNL     1      47.659   2.763   6.621  0.00  0.00    +0.000 A 
ATOM     16  C   UNL     1      46.613   3.442   7.229  0.00  0.00    +0.000 A 
ENDBRANCH  10  11
ENDBRANCH   8  10
ENDBRANCH   5   8
ENDBRANCH   1   2
BRANCH   1  19
ATOM     17  C   UNL     1      48.740   6.535  15.518  0.00  0.00    +0.000 C 
ATOM     18  O   UNL     1      48.269   6.250  16.618  0.00  0.00    +0.000 OA
ATOM     19  N   UNL     1      48.169   6.087  14.356  0.00  0.00    +0.000 N 
ATOM     20  H   UNL     1      48.562   6.341  13.464  0.00  0.00    +0.000 HD
BRANCH  17  28
ATOM     21  C   UNL     1      52.019   6.110  16.467  0.00  0.00    +0.000 A 
ATOM     22  N   UNL     1      53.347   6.176  16.676  0.00  0.00    +0.000 NA
ATOM     23  C   UNL     1      53.994   7.268  16.258  0.00  0.00    +0.000 A 
ATOM     24  N   UNL     1      53.466   8.331  15.653  0.00  0.00    +0.000 NA
ATOM     25  C   UNL     1      52.143   8.216  15.453  0.00  0.00    +0.000 A 
ATOM     26  S   UNL     1      51.296   9.482  14.702  0.00  0.00    +0.000 S 
ATOM     27  C   UNL     1      49.829   8.627  14.803  0.00  0.00    +0.000 A 
ATOM     28  C   UNL     1      49.947   7.375  15.395  0.00  0.00    +0.000 A 
ATOM     29  C   UNL     1      51.330   7.142  15.805  0.00  0.00    +0.000 A 
BRANCH  21  31
ATOM     30  C   UNL     1      52.045   4.261  17.902  0.00  0.00    +0.000 C 
ATOM     31  O   UNL     1      51.349   4.984  16.892  0.00  0.00    +0.000 OA
ENDBRANCH  21  31
ENDBRANCH  17  28
ENDBRANCH   1  19
TORSDOF 7
ENDMDL
MODEL 8
REMARK VINA RESULT:    -6.665      4.070      8.647
REMARK INTER + INTRA:         -10.988
REMARK INTER:                 -10.075
REMARK INTRA:                  -0.913
REMARK UNBOUND:                -1.596
REMARK  Name = 
REMARK  8 active torsions:
REMARK  status: ('A' for Active; 'I' for Inactive)
REMARK    1  A    between atoms: C_1  and  O_2
REMARK    2  A    between atoms: O_2  and  C_3
REMARK    3  A    between atoms: C_10  and  C_11
REMARK    4  A    between atoms: N_13  and  C_14
REMARK    5  A    between atoms: C_14  and  C_15
REMARK    6  A    between atoms: C_18  and  N_19
REMARK    7  A    between atoms: N_19  and  C_20
REMARK    8  A    between atoms: C_20  and  C_21
REMARK                            x       y       z     vdW  Elec       q    Type
REMARK                         _______ _______ _______ _____ _____    ______ ____
ROOT
ATOM      1  C   UNL     1      47.263   3.511  16.782  0.00  0.00    +0.000 C 
ENDROOT
BRANCH   1   2
ATOM      2  C   UNL     1      48.755   3.558  17.001  0.00  0.00    +0.000 A 
ATOM      3  C   UNL     1      49.413   4.775  17.216  0.00  0.00    +0.000 A 
ATOM      4  C   UNL     1      50.769   4.804  17.573  0.00  0.00    +0.000 A 
ATOM      5  C   UNL     1      51.497   3.620  17.726  0.00  0.00    +0.000 A 
ATOM      6  C   UNL     1      50.874   2.421  17.362  0.00  0.00    +0.000 A 
ATOM      7  C   UNL     1      49.515   2.384  17.019  0.00  0.00    +0.000 A 
BRANCH   5   8
ATOM      8  N   UNL     1      52.815   3.562  18.190  0.00  0.00    +0.000 N 
ATOM      9  H   UNL     1      53.048   4.369  18.764  0.00  0.00    +0.000 HD
BRANCH   8  10
ATOM     10  C   UNL     1      53.307   2.309  18.754  0.00  0.00    +0.000 C 
BRANCH  10  11
ATOM     11  C   UNL     1      54.127   1.562  17.724  0.00  0.00    +0.000 A 
ATOM     12  C   UNL     1      53.896   0.215  17.443  0.00  0.00    +0.000 A 
ATOM     13  C   UNL     1      54.630  -0.390  16.431  0.00  0.00    +0.000 A 
ATOM     14  N   UNL     1      55.562   0.246  15.691  0.00  0.00    +0.000 NA
ATOM     15  C   UNL     1      55.774   1.547  15.979  0.00  0.00    +0.000 A 
ATOM     16  C   UNL     1      55.093   2.238  16.970  0.00  0.00    +0.000 A 
ENDBRANCH  10  11
ENDBRANCH   8  10
ENDBRANCH   5   8
ENDBRANCH   1   2
BRANCH   1  19
ATOM     17  C   UNL     1      46.826   4.281  14.490  0.00  0.00    +0.000 C 
ATOM     18  O   UNL     1      47.202   3.209  14.017  0.00  0.00    +0.000 OA
ATOM     19  N   UNL     1      46.821   4.504  15.841  0.00  0.00    +0.000 N 
ATOM     20  H   UNL     1      46.520   5.392  16.209  0.00  0.00    +0.000 HD
BRANCH  17  28
ATOM     21  C   UNL     1      44.019   4.738  12.556  0.00  0.00    +0.000 A 
ATOM     22  N   UNL     1      43.013   5.188  11.783  0.00  0.00    +0.000 NA
ATOM     23  C   UNL     1      43.127   6.410  11.253  0.00  0.00    +0.000 A 
ATOM     24  N   UNL     1      44.149   7.253  11.396  0.00  0.00    +0.000 NA
ATOM     25  C   UNL     1      45.122   6.769  12.186  0.00  0.00    +0.000 A 
ATOM     26  S   UNL     1      46.510   7.704  12.474  0.00  0.00    +0.000 S 
ATOM     27  C   UNL     1      47.171   6.502  13.479  0.00  0.00    +0.000 A 
ATOM     28  C   UNL     1      46.362   5.381  13.623  0.00  0.00    +0.000 A 
ATOM     29  C   UNL     1      45.146   5.534  12.828  0.00  0.00    +0.000 A 
BRANCH  21  31
ATOM     30  C   UNL     1      43.468   2.495  12.176  0.00  0.00    +0.000 C 
ATOM     31  O   UNL     1      43.903   3.481  13.108  0.00  0.00    +0.000 OA
ENDBRANCH  21  31
ENDBRANCH  17  28
ENDBRANCH   1  19
TORSDOF 7
ENDMDL
MODEL 9
REMARK VINA RESULT:    -6.589      2.458      3.595
REMARK INTER + INTRA:         -10.881
REMARK INTER:                 -10.022
REMARK INTRA:                  -0.859
REMARK UNBOUND:                -1.596
REMARK  Name = 
REMARK  8 active torsions:
REMARK  status: ('A' for Active; 'I' for Inactive)
REMARK    1  A    between atoms: C_1  and  O_2
REMARK    2  A    between atoms: O_2  and  C_3
REMARK    3  A    between atoms: C_10  and  C_11
REMARK    4  A    between atoms: N_13  and  C_14
REMARK    5  A    between atoms: C_14  and  C_15
REMARK    6  A    between atoms: C_18  and  N_19
REMARK    7  A    between atoms: N_19  and  C_20
REMARK    8  A    between atoms: C_20  and  C_21
REMARK                            x       y       z     vdW  Elec       q    Type
REMARK                         _______ _______ _______ _____ _____    ______ ____
ROOT
ATOM      1  C   UNL     1      45.768   6.692  13.281  0.00  0.00    +0.000 C 
ENDROOT
BRANCH   1   2
ATOM      2  C   UNL     1      45.532   5.676  12.190  0.00  0.00    +0.000 A 
ATOM      3  C   UNL     1      45.174   4.358  12.499  0.00  0.00    +0.000 A 
ATOM      4  C   UNL     1      44.804   3.460  11.487  0.00  0.00    +0.000 A 
ATOM      5  C   UNL     1      44.780   3.857  10.147  0.00  0.00    +0.000 A 
ATOM      6  C   UNL     1      45.285   5.125   9.835  0.00  0.00    +0.000 A 
ATOM      7  C   UNL     1      45.643   6.033  10.842  0.00  0.00    +0.000 A 
BRANCH   5   8
ATOM      8  N   UNL     1      44.314   3.059   9.098  0.00  0.00    +0.000 N 
ATOM      9  H   UNL     1      43.336   2.809   9.222  0.00  0.00    +0.000 HD
BRANCH   8  10
ATOM     10  C   UNL     1      44.627   3.446   7.727  0.00  0.00    +0.000 C 
BRANCH  10  11
ATOM     11  C   UNL     1      45.893   2.755   7.267  0.00  0.00    +0.000 A 
ATOM     12  C   UNL     1      46.360   1.596   7.889  0.00  0.00    +0.000 A 
ATOM     13  C   UNL     1      47.482   0.966   7.370  0.00  0.00    +0.000 A 
ATOM     14  N   UNL     1      48.161   1.406   6.288  0.00  0.00    +0.000 NA
ATOM     15  C   UNL     1      47.697   2.528   5.702  0.00  0.00    +0.000 A 
ATOM     16  C   UNL     1      46.585   3.228   6.148  0.00  0.00    +0.000 A 
ENDBRANCH  10  11
ENDBRANCH   8  10
ENDBRANCH   5   8
ENDBRANCH   1   2
BRANCH   1  19
ATOM     17  C   UNL     1      48.214   6.741  13.517  0.00  0.00    +0.000 C 
ATOM     18  O   UNL     1      48.232   5.598  13.972  0.00  0.00    +0.000 OA
ATOM     19  N   UNL     1      47.042   7.346  13.147  0.00  0.00    +0.000 N 
ATOM     20  H   UNL     1      47.046   8.286  12.787  0.00  0.00    +0.000 HD
BRANCH  17  28
ATOM     21  C   UNL     1      50.915   7.353  15.556  0.00  0.00    +0.000 A 
ATOM     22  N   UNL     1      52.090   7.697  16.115  0.00  0.00    +0.000 NA
ATOM     23  C   UNL     1      52.934   8.442  15.394  0.00  0.00    +0.000 A 
ATOM     24  N   UNL     1      52.739   8.904  14.159  0.00  0.00    +0.000 NA
ATOM     25  C   UNL     1      51.562   8.525  13.636  0.00  0.00    +0.000 A 
ATOM     26  S   UNL     1      51.139   9.030  12.071  0.00  0.00    +0.000 S 
ATOM     27  C   UNL     1      49.659   8.195  12.149  0.00  0.00    +0.000 A 
ATOM     28  C   UNL     1      49.457   7.517  13.345  0.00  0.00    +0.000 A 
ATOM     29  C   UNL     1      50.588   7.736  14.243  0.00  0.00    +0.000 A 
BRANCH  21  31
ATOM     30  C   UNL     1      50.703   5.664  17.163  0.00  0.00    +0.000 C 
ATOM     31  O   UNL     1      50.045   6.582  16.295  0.00  0.00    +0.000 OA
ENDBRANCH  21  31
ENDBRANCH  17  28
ENDBRANCH   1  19
TORSDOF 7
ENDMDL
