MODEL 1
REMARK VINA RESULT:    -8.649      0.000      0.000
REMARK INTER + INTRA:         -12.839
REMARK INTER:                 -12.189
REMARK INTRA:                  -0.650
REMARK UNBOUND:                -0.650
REMARK  Name = 
REMARK  7 active torsions:
REMARK  status: ('A' for Active; 'I' for Inactive)
REMARK    1  A    between atoms: C_2  and  C_20
REMARK    2  A    between atoms: N_3  and  C_4
REMARK    3  A    between atoms: C_4  and  C_5
REMARK    4  A    between atoms: C_8  and  C_9
REMARK    5  A    between atoms: C_9  and  N_10
REMARK    6  A    between atoms: N_10  and  C_11
REMARK    7  A    between atoms: C_11  and  C_12
REMARK                            x       y       z     vdW  Elec       q    Type
REMARK                         _______ _______ _______ _____ _____    ______ ____
ROOT
ATOM      1  C   UNL     1      46.751   4.131  13.954  0.00  0.00    +0.000 C 
ENDROOT
BRANCH   1   2
ATOM      2  C   UNL     1      45.579   5.095  13.702  0.00  0.00    +0.000 C 
ATOM      3  C   UNL     1      45.998   6.390  12.987  0.00  0.00    +0.000 C 
ATOM      4  C   UNL     1      46.453   6.153  11.547  0.00  0.00    +0.000 C 
ATOM      5  C   UNL     1      45.404   5.392  10.721  0.00  0.00    +0.000 C 
ATOM      6  C   UNL     1      44.923   4.118  11.447  0.00  0.00    +0.000 C 
ATOM      7  C   UNL     1      44.486   4.395  12.884  0.00  0.00    +0.000 C 
BRANCH   5   8
ATOM      8  C   UNL     1      45.970   5.065   9.324  0.00  0.00    +0.000 C 
BRANCH   8   9
ATOM      9  N   UNL     1      44.885   4.797   8.389  0.00  0.00    +0.000 NA
ATOM     10  H   UNL     1      45.095   5.207   7.479  0.00  0.00    +0.000 HD
BRANCH   9  11
ATOM     11  C   UNL     1      44.622   3.371   8.229  0.00  0.00    +0.000 C 
BRANCH  11  12
ATOM     12  C   UNL     1      45.800   2.702   7.565  0.00  0.00    +0.000 A 
ATOM     13  C   UNL     1      46.386   3.242   6.419  0.00  0.00    +0.000 A 
ATOM     14  C   UNL     1      47.454   2.571   5.841  0.00  0.00    +0.000 A 
ATOM     15  N   UNL     1      47.970   1.420   6.320  0.00  0.00    +0.000 NA
ATOM     16  C   UNL     1      47.390   0.914   7.429  0.00  0.00    +0.000 A 
ATOM     17  C   UNL     1      46.324   1.510   8.080  0.00  0.00    +0.000 A 
ENDBRANCH  11  12
ENDBRANCH   9  11
ENDBRANCH   8   9
ENDBRANCH   5   8
ENDBRANCH   1   2
BRANCH   1  20
ATOM     18  O   UNL     1      46.638   3.393  16.675  0.00  0.00    +0.000 OA
ATOM     19  C   UNL     1      47.530   4.148  16.301  0.00  0.00    +0.000 C 
ATOM     20  N   UNL     1      47.629   4.582  15.005  0.00  0.00    +0.000 N 
ATOM     21  H   UNL     1      48.435   5.127  14.718  0.00  0.00    +0.000 HD
BRANCH  19  22
ATOM     22  C   UNL     1      48.539   4.667  17.229  0.00  0.00    +0.000 A 
ATOM     23  C   UNL     1      48.337   5.892  17.851  0.00  0.00    +0.000 A 
ATOM     24  S   UNL     1      49.612   6.352  18.884  0.00  0.00    +0.000 S 
ATOM     25  C   UNL     1      50.462   4.911  18.572  0.00  0.00    +0.000 A 
ATOM     26  N   UNL     1      51.652   4.656  19.178  0.00  0.00    +0.000 NA
ATOM     27  C   UNL     1      52.169   3.510  18.881  0.00  0.00    +0.000 A 
ATOM     28  N   UNL     1      51.608   2.598  18.025  0.00  0.00    +0.000 N 
ATOM     29  C   UNL     1      50.440   2.840  17.342  0.00  0.00    +0.000 A 
ATOM     30  O   UNL     1      50.028   2.048  16.500  0.00  0.00    +0.000 OA
ATOM     31  C   UNL     1      49.795   4.099  17.670  0.00  0.00    +0.000 A 
ATOM     32  H   UNL     1      52.074   1.730  17.815  0.00  0.00    +0.000 HD
ENDBRANCH  19  22
ENDBRANCH   1  20
TORSDOF 7
ENDMDL
MODEL 2
REMARK VINA RESULT:    -8.290      1.998      2.473
REMARK INTER + INTRA:         -12.332
REMARK INTER:                 -11.114
REMARK INTRA:                  -1.219
REMARK UNBOUND:                -0.650
REMARK  Name = 
REMARK  7 active torsions:
REMARK  status: ('A' for Active; 'I' for Inactive)
REMARK    1  A    between atoms: C_2  and  C_20
REMARK    2  A    between atoms: N_3  and  C_4
REMARK    3  A    between atoms: C_4  and  C_5
REMARK    4  A    between atoms: C_8  and  C_9
REMARK    5  A    between atoms: C_9  and  N_10
REMARK    6  A    between atoms: N_10  and  C_11
REMARK    7  A    between atoms: C_11  and  C_12
REMARK                            x       y       z     vdW  Elec       q    Type
REMARK                         _______ _______ _______ _____ _____    ______ ____
ROOT
ATOM      1  C   UNL     1      47.147   5.617  13.032  0.00  0.00    +0.000 C 
ENDROOT
BRANCH   1   2
ATOM      2  C   UNL     1      45.975   6.493  12.557  0.00  0.00    +0.000 C 
ATOM      3  C   UNL     1      45.760   6.450  11.034  0.00  0.00    +0.000 C 
ATOM      4  C   UNL     1      45.281   5.086  10.540  0.00  0.00    +0.000 C 
ATOM      5  C   UNL     1      44.021   4.606  11.280  0.00  0.00    +0.000 C 
ATOM      6  C   UNL     1      44.192   4.697  12.811  0.00  0.00    +0.000 C 
ATOM      7  C   UNL     1      44.680   6.071  13.262  0.00  0.00    +0.000 C 
BRANCH   5   8
ATOM      8  C   UNL     1      43.664   3.172  10.837  0.00  0.00    +0.000 C 
BRANCH   8   9
ATOM      9  N   UNL     1      44.856   2.479  10.362  0.00  0.00    +0.000 NA
ATOM     10  H   UNL     1      45.182   1.817  11.066  0.00  0.00    +0.000 HD
BRANCH   9  11
ATOM     11  C   UNL     1      44.631   1.777   9.104  0.00  0.00    +0.000 C 
BRANCH  11  12
ATOM     12  C   UNL     1      45.751   2.078   8.139  0.00  0.00    +0.000 A 
ATOM     13  C   UNL     1      46.705   1.111   7.815  0.00  0.00    +0.000 A 
ATOM     14  C   UNL     1      47.723   1.452   6.937  0.00  0.00    +0.000 A 
ATOM     15  N   UNL     1      47.854   2.669   6.369  0.00  0.00    +0.000 NA
ATOM     16  C   UNL     1      46.922   3.590   6.694  0.00  0.00    +0.000 A 
ATOM     17  C   UNL     1      45.867   3.345   7.556  0.00  0.00    +0.000 A 
ENDBRANCH  11  12
ENDBRANCH   9  11
ENDBRANCH   8   9
ENDBRANCH   5   8
ENDBRANCH   1   2
BRANCH   1  20
ATOM     18  O   UNL     1      47.355   3.630  15.025  0.00  0.00    +0.000 OA
ATOM     19  C   UNL     1      47.588   4.798  15.323  0.00  0.00    +0.000 C 
ATOM     20  N   UNL     1      47.470   5.823  14.422  0.00  0.00    +0.000 N 
ATOM     21  H   UNL     1      47.764   6.759  14.683  0.00  0.00    +0.000 HD
BRANCH  19  22
ATOM     22  C   UNL     1      47.978   5.183  16.684  0.00  0.00    +0.000 A 
ATOM     23  C   UNL     1      47.236   4.728  17.766  0.00  0.00    +0.000 A 
ATOM     24  S   UNL     1      47.816   5.282  19.271  0.00  0.00    +0.000 S 
ATOM     25  C   UNL     1      49.105   6.113  18.534  0.00  0.00    +0.000 A 
ATOM     26  N   UNL     1      50.016   6.793  19.279  0.00  0.00    +0.000 NA
ATOM     27  C   UNL     1      50.962   7.345  18.595  0.00  0.00    +0.000 A 
ATOM     28  N   UNL     1      51.076   7.287  17.231  0.00  0.00    +0.000 N 
ATOM     29  C   UNL     1      50.145   6.668  16.432  0.00  0.00    +0.000 A 
ATOM     30  O   UNL     1      50.221   6.733  15.210  0.00  0.00    +0.000 OA
ATOM     31  C   UNL     1      49.080   5.994  17.154  0.00  0.00    +0.000 A 
ATOM     32  H   UNL     1      51.826   7.761  16.753  0.00  0.00    +0.000 HD
ENDBRANCH  19  22
ENDBRANCH   1  20
TORSDOF 7
ENDMDL
MODEL 3
REMARK VINA RESULT:    -8.280      1.907      2.454
REMARK INTER + INTRA:         -12.318
REMARK INTER:                 -11.156
REMARK INTRA:                  -1.163
REMARK UNBOUND:                -0.650
REMARK  Name = 
REMARK  7 active torsions:
REMARK  status: ('A' for Active; 'I' for Inactive)
REMARK    1  A    between atoms: C_2  and  C_20
REMARK    2  A    between atoms: N_3  and  C_4
REMARK    3  A    between atoms: C_4  and  C_5
REMARK    4  A    between atoms: C_8  and  C_9
REMARK    5  A    between atoms: C_9  and  N_10
REMARK    6  A    between atoms: N_10  and  C_11
REMARK    7  A    between atoms: C_11  and  C_12
REMARK                            x       y       z     vdW  Elec       q    Type
REMARK                         _______ _______ _______ _____ _____    ______ ____
ROOT
ATOM      1  C   UNL     1      47.340   5.786  13.016  0.00  0.00    +0.000 C 
ENDROOT
BRANCH   1   2
ATOM      2  C   UNL     1      46.209   6.689  12.494  0.00  0.00    +0.000 C 
ATOM      3  C   UNL     1      45.985   6.569  10.978  0.00  0.00    +0.000 C 
ATOM      4  C   UNL     1      45.439   5.203  10.563  0.00  0.00    +0.000 C 
ATOM      5  C   UNL     1      44.162   4.828  11.332  0.00  0.00    +0.000 C 
ATOM      6  C   UNL     1      44.344   4.997  12.855  0.00  0.00    +0.000 C 
ATOM      7  C   UNL     1      44.899   6.370  13.226  0.00  0.00    +0.000 C 
BRANCH   5   8
ATOM      8  C   UNL     1      43.735   3.389  10.972  0.00  0.00    +0.000 C 
BRANCH   8   9
ATOM      9  N   UNL     1      44.876   2.635  10.468  0.00  0.00    +0.000 NA
ATOM     10  H   UNL     1      45.195   1.968  11.170  0.00  0.00    +0.000 HD
BRANCH   9  11
ATOM     11  C   UNL     1      44.576   1.927   9.229  0.00  0.00    +0.000 C 
BRANCH  11  12
ATOM     12  C   UNL     1      45.684   2.146   8.229  0.00  0.00    +0.000 A 
ATOM     13  C   UNL     1      46.586   1.127   7.916  0.00  0.00    +0.000 A 
ATOM     14  C   UNL     1      47.597   1.394   7.004  0.00  0.00    +0.000 A 
ATOM     15  N   UNL     1      47.767   2.586   6.392  0.00  0.00    +0.000 NA
ATOM     16  C   UNL     1      46.885   3.557   6.708  0.00  0.00    +0.000 A 
ATOM     17  C   UNL     1      45.842   3.388   7.602  0.00  0.00    +0.000 A 
ENDBRANCH  11  12
ENDBRANCH   9  11
ENDBRANCH   8   9
ENDBRANCH   5   8
ENDBRANCH   1   2
BRANCH   1  20
ATOM     18  O   UNL     1      49.627   6.964  14.176  0.00  0.00    +0.000 OA
ATOM     19  C   UNL     1      48.719   6.584  14.907  0.00  0.00    +0.000 C 
ATOM     20  N   UNL     1      47.595   5.967  14.424  0.00  0.00    +0.000 N 
ATOM     21  H   UNL     1      46.827   5.756  15.053  0.00  0.00    +0.000 HD
BRANCH  19  22
ATOM     22  C   UNL     1      48.790   6.733  16.365  0.00  0.00    +0.000 A 
ATOM     23  C   UNL     1      48.859   8.003  16.924  0.00  0.00    +0.000 A 
ATOM     24  S   UNL     1      48.952   7.995  18.626  0.00  0.00    +0.000 S 
ATOM     25  C   UNL     1      48.860   6.297  18.681  0.00  0.00    +0.000 A 
ATOM     26  N   UNL     1      48.863   5.634  19.868  0.00  0.00    +0.000 NA
ATOM     27  C   UNL     1      48.749   4.352  19.766  0.00  0.00    +0.000 A 
ATOM     28  N   UNL     1      48.642   3.669  18.582  0.00  0.00    +0.000 N 
ATOM     29  C   UNL     1      48.699   4.290  17.358  0.00  0.00    +0.000 A 
ATOM     30  O   UNL     1      48.713   3.635  16.320  0.00  0.00    +0.000 OA
ATOM     31  C   UNL     1      48.786   5.738  17.416  0.00  0.00    +0.000 A 
ATOM     32  H   UNL     1      48.580   2.663  18.568  0.00  0.00    +0.000 HD
ENDBRANCH  19  22
ENDBRANCH   1  20
TORSDOF 7
ENDMDL
MODEL 4
REMARK VINA RESULT:    -7.832      3.624      9.434
REMARK INTER + INTRA:         -11.687
REMARK INTER:                 -10.343
REMARK INTRA:                  -1.344
REMARK UNBOUND:                -0.650
REMARK  Name = 
REMARK  7 active torsions:
REMARK  status: ('A' for Active; 'I' for Inactive)
REMARK    1  A    between atoms: C_2  and  C_20
REMARK    2  A    between atoms: N_3  and  C_4
REMARK    3  A    between atoms: C_4  and  C_5
REMARK    4  A    between atoms: C_8  and  C_9
REMARK    5  A    between atoms: C_9  and  N_10
REMARK    6  A    between atoms: N_10  and  C_11
REMARK    7  A    between atoms: C_11  and  C_12
REMARK                            x       y       z     vdW  Elec       q    Type
REMARK                         _______ _______ _______ _____ _____    ______ ____
ROOT
ATOM      1  C   UNL     1      48.613   5.833  15.948  0.00  0.00    +0.000 C 
ENDROOT
BRANCH   1   2
ATOM      2  C   UNL     1      48.216   5.263  17.321  0.00  0.00    +0.000 C 
ATOM      3  C   UNL     1      47.544   3.883  17.236  0.00  0.00    +0.000 C 
ATOM      4  C   UNL     1      48.497   2.785  16.766  0.00  0.00    +0.000 C 
ATOM      5  C   UNL     1      49.774   2.716  17.619  0.00  0.00    +0.000 C 
ATOM      6  C   UNL     1      50.435   4.102  17.767  0.00  0.00    +0.000 C 
ATOM      7  C   UNL     1      49.448   5.171  18.230  0.00  0.00    +0.000 C 
BRANCH   5   8
ATOM      8  C   UNL     1      50.753   1.686  17.017  0.00  0.00    +0.000 C 
BRANCH   8   9
ATOM      9  N   UNL     1      51.518   1.038  18.075  0.00  0.00    +0.000 NA
ATOM     10  H   UNL     1      51.081   0.154  18.335  0.00  0.00    +0.000 HD
BRANCH   9  11
ATOM     11  C   UNL     1      52.907   0.799  17.697  0.00  0.00    +0.000 C 
BRANCH  11  12
ATOM     12  C   UNL     1      53.746   2.008  18.029  0.00  0.00    +0.000 A 
ATOM     13  C   UNL     1      53.530   2.737  19.200  0.00  0.00    +0.000 A 
ATOM     14  C   UNL     1      54.321   3.851  19.441  0.00  0.00    +0.000 A 
ATOM     15  N   UNL     1      55.295   4.280  18.611  0.00  0.00    +0.000 NA
ATOM     16  C   UNL     1      55.489   3.562  17.486  0.00  0.00    +0.000 A 
ATOM     17  C   UNL     1      54.755   2.434  17.157  0.00  0.00    +0.000 A 
ENDBRANCH  11  12
ENDBRANCH   9  11
ENDBRANCH   8   9
ENDBRANCH   5   8
ENDBRANCH   1   2
BRANCH   1  20
ATOM     18  O   UNL     1      48.764   6.338  13.175  0.00  0.00    +0.000 OA
ATOM     19  C   UNL     1      47.672   6.082  13.675  0.00  0.00    +0.000 C 
ATOM     20  N   UNL     1      47.511   5.864  15.018  0.00  0.00    +0.000 N 
ATOM     21  H   UNL     1      46.611   5.561  15.374  0.00  0.00    +0.000 HD
BRANCH  19  22
ATOM     22  C   UNL     1      46.450   6.024  12.866  0.00  0.00    +0.000 A 
ATOM     23  C   UNL     1      45.953   7.185  12.287  0.00  0.00    +0.000 A 
ATOM     24  S   UNL     1      44.520   6.943  11.396  0.00  0.00    +0.000 S 
ATOM     25  C   UNL     1      44.536   5.271  11.713  0.00  0.00    +0.000 A 
ATOM     26  N   UNL     1      43.575   4.454  11.205  0.00  0.00    +0.000 NA
ATOM     27  C   UNL     1      43.730   3.204  11.492  0.00  0.00    +0.000 A 
ATOM     28  N   UNL     1      44.753   2.697  12.250  0.00  0.00    +0.000 N 
ATOM     29  C   UNL     1      45.708   3.492  12.837  0.00  0.00    +0.000 A 
ATOM     30  O   UNL     1      46.542   3.014  13.600  0.00  0.00    +0.000 OA
ATOM     31  C   UNL     1      45.605   4.904  12.512  0.00  0.00    +0.000 A 
ATOM     32  H   UNL     1      44.804   1.712  12.460  0.00  0.00    +0.000 HD
ENDBRANCH  19  22
ENDBRANCH   1  20
TORSDOF 7
ENDMDL
MODEL 5
REMARK VINA RESULT:    -7.679      2.331      2.965
REMARK INTER + INTRA:         -11.472
REMARK INTER:                 -11.354
REMARK INTRA:                  -0.119
REMARK UNBOUND:                -0.650
REMARK  Name = 
REMARK  7 active torsions:
REMARK  status: ('A' for Active; 'I' for Inactive)
REMARK    1  A    between atoms: C_2  and  C_20
REMARK    2  A    between atoms: N_3  and  C_4
REMARK    3  A    between atoms: C_4  and  C_5
REMARK    4  A    between atoms: C_8  and  C_9
REMARK    5  A    between atoms: C_9  and  N_10
REMARK    6  A    between atoms: N_10  and  C_11
REMARK    7  A    between atoms: C_11  and  C_12
REMARK                            x       y       z     vdW  Elec       q    Type
REMARK                         _______ _______ _______ _____ _____    ______ ____
ROOT
ATOM      1  C   UNL     1      45.815   6.364  12.375  0.00  0.00    +0.000 C 
ENDROOT
BRANCH   1   2
ATOM      2  C   UNL     1      44.479   5.798  12.888  0.00  0.00    +0.000 C 
ATOM      3  C   UNL     1      43.346   5.877  11.852  0.00  0.00    +0.000 C 
ATOM      4  C   UNL     1      43.573   4.958  10.652  0.00  0.00    +0.000 C 
ATOM      5  C   UNL     1      43.824   3.501  11.072  0.00  0.00    +0.000 C 
ATOM      6  C   UNL     1      44.917   3.402  12.156  0.00  0.00    +0.000 C 
ATOM      7  C   UNL     1      44.659   4.341  13.332  0.00  0.00    +0.000 C 
BRANCH   5   8
ATOM      8  C   UNL     1      44.179   2.650   9.834  0.00  0.00    +0.000 C 
BRANCH   8   9
ATOM      9  N   UNL     1      44.138   3.471   8.630  0.00  0.00    +0.000 NA
ATOM     10  H   UNL     1      43.425   4.194   8.720  0.00  0.00    +0.000 HD
BRANCH   9  11
ATOM     11  C   UNL     1      45.424   4.094   8.333  0.00  0.00    +0.000 C 
BRANCH  11  12
ATOM     12  C   UNL     1      46.277   3.151   7.522  0.00  0.00    +0.000 A 
ATOM     13  C   UNL     1      46.798   3.533   6.283  0.00  0.00    +0.000 A 
ATOM     14  C   UNL     1      47.559   2.616   5.573  0.00  0.00    +0.000 A 
ATOM     15  N   UNL     1      47.834   1.367   6.005  0.00  0.00    +0.000 NA
ATOM     16  C   UNL     1      47.322   1.017   7.204  0.00  0.00    +0.000 A 
ATOM     17  C   UNL     1      46.555   1.861   7.989  0.00  0.00    +0.000 A 
ENDBRANCH  11  12
ENDBRANCH   9  11
ENDBRANCH   8   9
ENDBRANCH   5   8
ENDBRANCH   1   2
BRANCH   1  20
ATOM     18  O   UNL     1      48.478   5.841  13.148  0.00  0.00    +0.000 OA
ATOM     19  C   UNL     1      47.869   6.756  13.693  0.00  0.00    +0.000 C 
ATOM     20  N   UNL     1      46.563   7.047  13.401  0.00  0.00    +0.000 N 
ATOM     21  H   UNL     1      46.128   7.871  13.804  0.00  0.00    +0.000 HD
BRANCH  19  22
ATOM     22  C   UNL     1      48.494   7.587  14.729  0.00  0.00    +0.000 A 
ATOM     23  C   UNL     1      48.634   8.953  14.523  0.00  0.00    +0.000 A 
ATOM     24  S   UNL     1      49.393   9.763  15.817  0.00  0.00    +0.000 S 
ATOM     25  C   UNL     1      49.523   8.325  16.717  0.00  0.00    +0.000 A 
ATOM     26  N   UNL     1      50.071   8.326  17.962  0.00  0.00    +0.000 NA
ATOM     27  C   UNL     1      50.072   7.175  18.547  0.00  0.00    +0.000 A 
ATOM     28  N   UNL     1      49.584   6.018  17.997  0.00  0.00    +0.000 N 
ATOM     29  C   UNL     1      49.082   5.956  16.719  0.00  0.00    +0.000 A 
ATOM     30  O   UNL     1      48.758   4.883  16.222  0.00  0.00    +0.000 OA
ATOM     31  C   UNL     1      49.019   7.233  16.030  0.00  0.00    +0.000 A 
ATOM     32  H   UNL     1      49.637   5.144  18.496  0.00  0.00    +0.000 HD
ENDBRANCH  19  22
ENDBRANCH   1  20
TORSDOF 7
ENDMDL
MODEL 6
REMARK VINA RESULT:    -7.643      3.823      8.836
REMARK INTER + INTRA:         -11.421
REMARK INTER:                  -9.409
REMARK INTRA:                  -2.013
REMARK UNBOUND:                -0.650
REMARK  Name = 
REMARK  7 active torsions:
REMARK  status: ('A' for Active; 'I' for Inactive)
REMARK    1  A    between atoms: C_2  and  C_20
REMARK    2  A    between atoms: N_3  and  C_4
REMARK    3  A    between atoms: C_4  and  C_5
REMARK    4  A    between atoms: C_8  and  C_9
REMARK    5  A    between atoms: C_9  and  N_10
REMARK    6  A    between atoms: N_10  and  C_11
REMARK    7  A    between atoms: C_11  and  C_12
REMARK                            x       y       z     vdW  Elec       q    Type
REMARK                         _______ _______ _______ _____ _____    ______ ____
ROOT
ATOM      1  C   UNL     1      49.115   6.950  15.553  0.00  0.00    +0.000 C 
ENDROOT
BRANCH   1   2
ATOM      2  C   UNL     1      49.449   8.424  15.841  0.00  0.00    +0.000 C 
ATOM      3  C   UNL     1      48.271   9.209  16.441  0.00  0.00    +0.000 C 
ATOM      4  C   UNL     1      47.903   8.746  17.850  0.00  0.00    +0.000 C 
ATOM      5  C   UNL     1      49.109   8.764  18.803  0.00  0.00    +0.000 C 
ATOM      6  C   UNL     1      50.324   8.033  18.198  0.00  0.00    +0.000 C 
ATOM      7  C   UNL     1      50.653   8.518  16.787  0.00  0.00    +0.000 C 
BRANCH   5   8
ATOM      8  C   UNL     1      48.710   8.162  20.167  0.00  0.00    +0.000 C 
BRANCH   8   9
ATOM      9  N   UNL     1      47.654   7.172  19.992  0.00  0.00    +0.000 NA
ATOM     10  H   UNL     1      47.298   7.203  19.037  0.00  0.00    +0.000 HD
BRANCH   9  11
ATOM     11  C   UNL     1      48.099   5.818  20.300  0.00  0.00    +0.000 C 
BRANCH  11  12
ATOM     12  C   UNL     1      48.260   5.026  19.026  0.00  0.00    +0.000 A 
ATOM     13  C   UNL     1      47.199   4.876  18.131  0.00  0.00    +0.000 A 
ATOM     14  C   UNL     1      47.401   4.119  16.986  0.00  0.00    +0.000 A 
ATOM     15  N   UNL     1      48.567   3.515  16.676  0.00  0.00    +0.000 NA
ATOM     16  C   UNL     1      49.580   3.673  17.553  0.00  0.00    +0.000 A 
ATOM     17  C   UNL     1      49.479   4.410  18.720  0.00  0.00    +0.000 A 
ENDBRANCH  11  12
ENDBRANCH   9  11
ENDBRANCH   8   9
ENDBRANCH   5   8
ENDBRANCH   1   2
BRANCH   1  20
ATOM     18  O   UNL     1      48.981   6.140  12.853  0.00  0.00    +0.000 OA
ATOM     19  C   UNL     1      47.938   6.360  13.461  0.00  0.00    +0.000 C 
ATOM     20  N   UNL     1      47.921   6.794  14.760  0.00  0.00    +0.000 N 
ATOM     21  H   UNL     1      47.038   6.870  15.254  0.00  0.00    +0.000 HD
BRANCH  19  22
ATOM     22  C   UNL     1      46.627   6.204  12.821  0.00  0.00    +0.000 A 
ATOM     23  C   UNL     1      45.999   7.309  12.260  0.00  0.00    +0.000 A 
ATOM     24  S   UNL     1      44.480   6.955  11.574  0.00  0.00    +0.000 S 
ATOM     25  C   UNL     1      44.624   5.304  11.962  0.00  0.00    +0.000 A 
ATOM     26  N   UNL     1      43.650   4.418  11.622  0.00  0.00    +0.000 NA
ATOM     27  C   UNL     1      43.906   3.194  11.943  0.00  0.00    +0.000 A 
ATOM     28  N   UNL     1      45.042   2.775  12.583  0.00  0.00    +0.000 N 
ATOM     29  C   UNL     1      46.022   3.642  13.004  0.00  0.00    +0.000 A 
ATOM     30  O   UNL     1      46.970   3.244  13.673  0.00  0.00    +0.000 OA
ATOM     31  C   UNL     1      45.804   5.029  12.632  0.00  0.00    +0.000 A 
ATOM     32  H   UNL     1      45.172   1.805  12.829  0.00  0.00    +0.000 HD
ENDBRANCH  19  22
ENDBRANCH   1  20
TORSDOF 7
ENDMDL
MODEL 7
REMARK VINA RESULT:    -7.449      2.828      3.990
REMARK INTER + INTRA:         -11.148
REMARK INTER:                 -10.169
REMARK INTRA:                  -0.978
REMARK UNBOUND:                -0.650
REMARK  Name = 
REMARK  7 active torsions:
REMARK  status: ('A' for Active; 'I' for Inactive)
REMARK    1  A    between atoms: C_2  and  C_20
REMARK    2  A    between atoms: N_3  and  C_4
REMARK    3  A    between atoms: C_4  and  C_5
REMARK    4  A    between atoms: C_8  and  C_9
REMARK    5  A    between atoms: C_9  and  N_10
REMARK    6  A    between atoms: N_10  and  C_11
REMARK    7  A    between atoms: C_11  and  C_12
REMARK                            x       y       z     vdW  Elec       q    Type
REMARK                         _______ _______ _______ _____ _____    ______ ____
ROOT
ATOM      1  C   UNL     1      48.411   6.828  13.902  0.00  0.00    +0.000 C 
ENDROOT
BRANCH   1   2
ATOM      2  C   UNL     1      47.801   7.952  13.048  0.00  0.00    +0.000 C 
ATOM      3  C   UNL     1      48.083   7.796  11.544  0.00  0.00    +0.000 C 
ATOM      4  C   UNL     1      47.376   6.589  10.929  0.00  0.00    +0.000 C 
ATOM      5  C   UNL     1      45.863   6.599  11.199  0.00  0.00    +0.000 C 
ATOM      6  C   UNL     1      45.553   6.814  12.695  0.00  0.00    +0.000 C 
ATOM      7  C   UNL     1      46.285   8.023  13.274  0.00  0.00    +0.000 C 
BRANCH   5   8
ATOM      8  C   UNL     1      45.226   5.295  10.673  0.00  0.00    +0.000 C 
BRANCH   8   9
ATOM      9  N   UNL     1      45.482   5.148   9.246  0.00  0.00    +0.000 NA
ATOM     10  H   UNL     1      46.485   5.072   9.074  0.00  0.00    +0.000 HD
BRANCH   9  11
ATOM     11  C   UNL     1      44.803   3.992   8.671  0.00  0.00    +0.000 C 
BRANCH  11  12
ATOM     12  C   UNL     1      45.810   3.068   8.034  0.00  0.00    +0.000 A 
ATOM     13  C   UNL     1      45.813   1.699   8.312  0.00  0.00    +0.000 A 
ATOM     14  C   UNL     1      46.776   0.902   7.711  0.00  0.00    +0.000 A 
ATOM     15  N   UNL     1      47.720   1.367   6.865  0.00  0.00    +0.000 NA
ATOM     16  C   UNL     1      47.701   2.692   6.608  0.00  0.00    +0.000 A 
ATOM     17  C   UNL     1      46.779   3.568   7.155  0.00  0.00    +0.000 A 
ENDBRANCH  11  12
ENDBRANCH   9  11
ENDBRANCH   8   9
ENDBRANCH   5   8
ENDBRANCH   1   2
BRANCH   1  20
ATOM     18  O   UNL     1      49.986   5.963  16.079  0.00  0.00    +0.000 OA
ATOM     19  C   UNL     1      48.925   6.537  16.303  0.00  0.00    +0.000 C 
ATOM     20  N   UNL     1      48.087   6.952  15.302  0.00  0.00    +0.000 N 
ATOM     21  H   UNL     1      47.268   7.507  15.528  0.00  0.00    +0.000 HD
BRANCH  19  22
ATOM     22  C   UNL     1      48.461   6.790  17.672  0.00  0.00    +0.000 A 
ATOM     23  C   UNL     1      48.449   5.754  18.597  0.00  0.00    +0.000 A 
ATOM     24  S   UNL     1      47.868   6.217  20.131  0.00  0.00    +0.000 S 
ATOM     25  C   UNL     1      47.652   7.828  19.628  0.00  0.00    +0.000 A 
ATOM     26  N   UNL     1      47.194   8.774  20.490  0.00  0.00    +0.000 NA
ATOM     27  C   UNL     1      47.114   9.961  19.988  0.00  0.00    +0.000 A 
ATOM     28  N   UNL     1      47.442  10.288  18.698  0.00  0.00    +0.000 N 
ATOM     29  C   UNL     1      47.846   9.354  17.774  0.00  0.00    +0.000 A 
ATOM     30  O   UNL     1      48.023   9.665  16.601  0.00  0.00    +0.000 OA
ATOM     31  C   UNL     1      47.993   8.008  18.298  0.00  0.00    +0.000 A 
ATOM     32  H   UNL     1      47.333  11.231  18.359  0.00  0.00    +0.000 HD
ENDBRANCH  19  22
ENDBRANCH   1  20
TORSDOF 7
ENDMDL
MODEL 8
REMARK VINA RESULT:    -7.419      4.200      5.132
REMARK INTER + INTRA:         -11.105
REMARK INTER:                 -10.053
REMARK INTRA:                  -1.051
REMARK UNBOUND:                -0.650
REMARK  Name = 
REMARK  7 active torsions:
REMARK  status: ('A' for Active; 'I' for Inactive)
REMARK    1  A    between atoms: C_2  and  C_20
REMARK    2  A    between atoms: N_3  and  C_4
REMARK    3  A    between atoms: C_4  and  C_5
REMARK    4  A    between atoms: C_8  and  C_9
REMARK    5  A    between atoms: C_9  and  N_10
REMARK    6  A    between atoms: N_10  and  C_11
REMARK    7  A    between atoms: C_11  and  C_12
REMARK                            x       y       z     vdW  Elec       q    Type
REMARK                         _______ _______ _______ _____ _____    ______ ____
ROOT
ATOM      1  C   UNL     1      47.688   5.877  12.832  0.00  0.00    +0.000 C 
ENDROOT
BRANCH   1   2
ATOM      2  C   UNL     1      46.283   6.038  13.438  0.00  0.00    +0.000 C 
ATOM      3  C   UNL     1      45.306   6.787  12.518  0.00  0.00    +0.000 C 
ATOM      4  C   UNL     1      44.955   6.000  11.256  0.00  0.00    +0.000 C 
ATOM      5  C   UNL     1      44.429   4.591  11.575  0.00  0.00    +0.000 C 
ATOM      6  C   UNL     1      45.365   3.840  12.545  0.00  0.00    +0.000 C 
ATOM      7  C   UNL     1      45.698   4.664  13.787  0.00  0.00    +0.000 C 
BRANCH   5   8
ATOM      8  C   UNL     1      44.221   3.799  10.267  0.00  0.00    +0.000 C 
BRANCH   8   9
ATOM      9  N   UNL     1      45.115   4.296   9.228  0.00  0.00    +0.000 NA
ATOM     10  H   UNL     1      46.080   4.053   9.448  0.00  0.00    +0.000 HD
BRANCH   9  11
ATOM     11  C   UNL     1      44.776   3.783   7.905  0.00  0.00    +0.000 C 
BRANCH  11  12
ATOM     12  C   UNL     1      45.892   2.910   7.390  0.00  0.00    +0.000 A 
ATOM     13  C   UNL     1      46.210   1.701   8.012  0.00  0.00    +0.000 A 
ATOM     14  C   UNL     1      47.261   0.950   7.505  0.00  0.00    +0.000 A 
ATOM     15  N   UNL     1      48.003   1.315   6.438  0.00  0.00    +0.000 NA
ATOM     16  C   UNL     1      47.680   2.486   5.850  0.00  0.00    +0.000 A 
ATOM     17  C   UNL     1      46.648   3.303   6.279  0.00  0.00    +0.000 A 
ENDBRANCH  11  12
ENDBRANCH   9  11
ENDBRANCH   8   9
ENDBRANCH   5   8
ENDBRANCH   1   2
BRANCH   1  20
ATOM     18  O   UNL     1      49.606   6.660  14.749  0.00  0.00    +0.000 OA
ATOM     19  C   UNL     1      49.386   7.396  13.792  0.00  0.00    +0.000 C 
ATOM     20  N   UNL     1      48.444   7.105  12.841  0.00  0.00    +0.000 N 
ATOM     21  H   UNL     1      48.362   7.691  12.017  0.00  0.00    +0.000 HD
BRANCH  19  22
ATOM     22  C   UNL     1      50.101   8.665  13.617  0.00  0.00    +0.000 A 
ATOM     23  C   UNL     1      50.060   9.622  14.623  0.00  0.00    +0.000 A 
ATOM     24  S   UNL     1      50.929  11.040  14.251  0.00  0.00    +0.000 S 
ATOM     25  C   UNL     1      51.428  10.411  12.751  0.00  0.00    +0.000 A 
ATOM     26  N   UNL     1      52.236  11.128  11.926  0.00  0.00    +0.000 NA
ATOM     27  C   UNL     1      52.569  10.516  10.839  0.00  0.00    +0.000 A 
ATOM     28  N   UNL     1      52.158   9.255  10.495  0.00  0.00    +0.000 N 
ATOM     29  C   UNL     1      51.290   8.519  11.266  0.00  0.00    +0.000 A 
ATOM     30  O   UNL     1      50.858   7.441  10.872  0.00  0.00    +0.000 OA
ATOM     31  C   UNL     1      50.917   9.145  12.522  0.00  0.00    +0.000 A 
ATOM     32  H   UNL     1      52.434   8.841   9.618  0.00  0.00    +0.000 HD
ENDBRANCH  19  22
ENDBRANCH   1  20
TORSDOF 7
ENDMDL
MODEL 9
REMARK VINA RESULT:    -7.303      3.819      9.202
REMARK INTER + INTRA:         -10.942
REMARK INTER:                  -8.808
REMARK INTRA:                  -2.134
REMARK UNBOUND:                -0.650
REMARK  Name = 
REMARK  7 active torsions:
REMARK  status: ('A' for Active; 'I' for Inactive)
REMARK    1  A    between atoms: C_2  and  C_20
REMARK    2  A    between atoms: N_3  and  C_4
REMARK    3  A    between atoms: C_4  and  C_5
REMARK    4  A    between atoms: C_8  and  C_9
REMARK    5  A    between atoms: C_9  and  N_10
REMARK    6  A    between atoms: N_10  and  C_11
REMARK    7  A    between atoms: C_11  and  C_12
REMARK                            x       y       z     vdW  Elec       q    Type
REMARK                         _______ _______ _______ _____ _____    ______ ____
ROOT
ATOM      1  C   UNL     1      48.659   5.677  16.145  0.00  0.00    +0.000 C 
ENDROOT
BRANCH   1   2
ATOM      2  C   UNL     1      48.537   4.433  17.042  0.00  0.00    +0.000 C 
ATOM      3  C   UNL     1      49.680   4.303  18.062  0.00  0.00    +0.000 C 
ATOM      4  C   UNL     1      49.651   5.396  19.130  0.00  0.00    +0.000 C 
ATOM      5  C   UNL     1      48.292   5.478  19.844  0.00  0.00    +0.000 C 
ATOM      6  C   UNL     1      47.124   5.549  18.838  0.00  0.00    +0.000 C 
ATOM      7  C   UNL     1      47.195   4.446  17.784  0.00  0.00    +0.000 C 
BRANCH   5   8
ATOM      8  C   UNL     1      48.277   6.681  20.810  0.00  0.00    +0.000 C 
BRANCH   8   9
ATOM      9  N   UNL     1      47.636   7.828  20.179  0.00  0.00    +0.000 NA
ATOM     10  H   UNL     1      46.869   8.166  20.760  0.00  0.00    +0.000 HD
BRANCH   9  11
ATOM     11  C   UNL     1      48.568   8.921  19.925  0.00  0.00    +0.000 C 
BRANCH  11  12
ATOM     12  C   UNL     1      48.893   8.988  18.454  0.00  0.00    +0.000 A 
ATOM     13  C   UNL     1      50.206   8.855  17.997  0.00  0.00    +0.000 A 
ATOM     14  C   UNL     1      50.446   8.946  16.634  0.00  0.00    +0.000 A 
ATOM     15  N   UNL     1      49.485   9.156  15.710  0.00  0.00    +0.000 NA
ATOM     16  C   UNL     1      48.223   9.282  16.171  0.00  0.00    +0.000 A 
ATOM     17  C   UNL     1      47.881   9.203  17.510  0.00  0.00    +0.000 A 
ENDBRANCH  11  12
ENDBRANCH   9  11
ENDBRANCH   8   9
ENDBRANCH   5   8
ENDBRANCH   1   2
BRANCH   1  20
ATOM     18  O   UNL     1      48.926   6.450  13.444  0.00  0.00    +0.000 OA
ATOM     19  C   UNL     1      47.821   6.116  13.860  0.00  0.00    +0.000 C 
ATOM     20  N   UNL     1      47.603   5.765  15.167  0.00  0.00    +0.000 N 
ATOM     21  H   UNL     1      46.697   5.403  15.446  0.00  0.00    +0.000 HD
BRANCH  19  22
ATOM     22  C   UNL     1      46.642   6.101  12.988  0.00  0.00    +0.000 A 
ATOM     23  C   UNL     1      46.209   7.281  12.396  0.00  0.00    +0.000 A 
ATOM     24  S   UNL     1      44.819   7.088  11.428  0.00  0.00    +0.000 S 
ATOM     25  C   UNL     1      44.770   5.414  11.730  0.00  0.00    +0.000 A 
ATOM     26  N   UNL     1      43.814   4.630  11.165  0.00  0.00    +0.000 NA
ATOM     27  C   UNL     1      43.917   3.374  11.447  0.00  0.00    +0.000 A 
ATOM     28  N   UNL     1      44.884   2.831  12.253  0.00  0.00    +0.000 N 
ATOM     29  C   UNL     1      45.829   3.592  12.896  0.00  0.00    +0.000 A 
ATOM     30  O   UNL     1      46.608   3.084  13.696  0.00  0.00    +0.000 OA
ATOM     31  C   UNL     1      45.784   5.009  12.580  0.00  0.00    +0.000 A 
ATOM     32  H   UNL     1      44.895   1.843  12.455  0.00  0.00    +0.000 HD
ENDBRANCH  19  22
ENDBRANCH   1  20
TORSDOF 7
ENDMDL
