MODEL 1
REMARK VINA RESULT:    -7.696      0.000      0.000
REMARK INTER + INTRA:         -11.693
REMARK INTER:                 -11.071
REMARK INTRA:                  -0.622
REMARK UNBOUND:                -0.622
REMARK  Name = 
REMARK  9 active torsions:
REMARK  status: ('A' for Active; 'I' for Inactive)
REMARK    1  A    between atoms: C_1  and  O_2
REMARK    2  A    between atoms: O_2  and  C_3
REMARK    3  A    between atoms: C_5  and  C_6
REMARK    4  A    between atoms: C_11  and  O_12
REMARK    5  A    between atoms: O_12  and  C_13
REMARK    6  A    between atoms: C_13  and  C_14
REMARK    7  A    between atoms: C_19  and  C_20
REMARK    8  A    between atoms: C_24  and  C_25
REMARK    9  A    between atoms: C_25  and  O_26
REMARK                            x       y       z     vdW  Elec       q    Type
REMARK                         _______ _______ _______ _____ _____    ______ ____
ROOT
ATOM      1  C   UNL     1      45.469   6.197  11.807  0.00  0.00    +0.000 A 
ATOM      2  C   UNL     1      45.282   5.279  12.843  0.00  0.00    +0.000 A 
ATOM      3  C   UNL     1      46.250   5.148  13.833  0.00  0.00    +0.000 A 
ATOM      4  C   UNL     1      47.412   5.917  13.779  0.00  0.00    +0.000 A 
ATOM      5  F   UNL     1      48.312   5.733  14.759  0.00  0.00    +0.000 F 
ATOM      6  C   UNL     1      47.658   6.837  12.743  0.00  0.00    +0.000 A 
ATOM      7  C   UNL     1      46.644   6.976  11.777  0.00  0.00    +0.000 A 
ENDROOT
BRANCH   6   8
ATOM      8  C   UNL     1      48.939   7.580  12.627  0.00  0.00    +0.000 A 
ATOM      9  C   UNL     1      49.349   8.517  13.590  0.00  0.00    +0.000 A 
ATOM     10  C   UNL     1      50.567   9.195  13.472  0.00  0.00    +0.000 A 
ATOM     11  C   UNL     1      51.416   8.935  12.397  0.00  0.00    +0.000 A 
ATOM     12  C   UNL     1      51.039   8.025  11.406  0.00  0.00    +0.000 A 
ATOM     13  C   UNL     1      49.798   7.374  11.528  0.00  0.00    +0.000 A 
BRANCH  12  14
ATOM     14  C   UNL     1      51.961   7.634  10.281  0.00  0.00    +0.000 C 
BRANCH  14  15
ATOM     15  O   UNL     1      52.818   6.558  10.633  0.00  0.00    +0.000 OA
ATOM     16  H   UNL     1      52.532   6.260  11.519  0.00  0.00    +0.000 HD
ENDBRANCH  14  15
ENDBRANCH  12  14
ENDBRANCH   6   8
BRANCH   1  17
ATOM     17  C   UNL     1      44.534   6.219  10.617  0.00  0.00    +0.000 C 
BRANCH  17  18
ATOM     18  O   UNL     1      43.958   4.945  10.340  0.00  0.00    +0.000 OA
BRANCH  18  24
ATOM     19  C   UNL     1      44.672   2.672   9.557  0.00  0.00    +0.000 A 
ATOM     20  C   UNL     1      45.537   1.971   8.703  0.00  0.00    +0.000 A 
ATOM     21  C   UNL     1      46.438   2.638   7.863  0.00  0.00    +0.000 A 
ATOM     22  C   UNL     1      46.468   4.031   7.872  0.00  0.00    +0.000 A 
ATOM     23  C   UNL     1      45.612   4.743   8.726  0.00  0.00    +0.000 A 
ATOM     24  C   UNL     1      44.711   4.081   9.574  0.00  0.00    +0.000 A 
BRANCH  21  25
ATOM     25  C   UNL     1      47.302   1.783   6.997  0.00  0.00    +0.000 C 
ATOM     26  N   UNL     1      48.396   2.350   6.403  0.00  0.00    +0.000 N 
ATOM     27  O   UNL     1      47.056   0.601   6.812  0.00  0.00    +0.000 OA
ATOM     28  H   UNL     1      48.677   3.313   6.489  0.00  0.00    +0.000 HD
ATOM     29  H   UNL     1      48.957   1.741   5.821  0.00  0.00    +0.000 HD
ENDBRANCH  21  25
BRANCH  19  31
ATOM     30  C   UNL     1      43.532   2.487  11.652  0.00  0.00    +0.000 C 
ATOM     31  O   UNL     1      43.743   2.022  10.325  0.00  0.00    +0.000 OA
ENDBRANCH  19  31
ENDBRANCH  18  24
ENDBRANCH  17  18
ENDBRANCH   1  17
TORSDOF 8
ENDMDL
MODEL 2
REMARK VINA RESULT:    -7.583      4.744      8.258
REMARK INTER + INTRA:         -11.529
REMARK INTER:                 -10.283
REMARK INTRA:                  -1.247
REMARK UNBOUND:                -0.622
REMARK  Name = 
REMARK  9 active torsions:
REMARK  status: ('A' for Active; 'I' for Inactive)
REMARK    1  A    between atoms: C_1  and  O_2
REMARK    2  A    between atoms: O_2  and  C_3
REMARK    3  A    between atoms: C_5  and  C_6
REMARK    4  A    between atoms: C_11  and  O_12
REMARK    5  A    between atoms: O_12  and  C_13
REMARK    6  A    between atoms: C_13  and  C_14
REMARK    7  A    between atoms: C_19  and  C_20
REMARK    8  A    between atoms: C_24  and  C_25
REMARK    9  A    between atoms: C_25  and  O_26
REMARK                            x       y       z     vdW  Elec       q    Type
REMARK                         _______ _______ _______ _____ _____    ______ ____
ROOT
ATOM      1  C   UNL     1      47.275   7.427  13.160  0.00  0.00    +0.000 A 
ATOM      2  C   UNL     1      46.514   8.598  13.107  0.00  0.00    +0.000 A 
ATOM      3  C   UNL     1      45.305   8.605  12.419  0.00  0.00    +0.000 A 
ATOM      4  C   UNL     1      44.865   7.452  11.769  0.00  0.00    +0.000 A 
ATOM      5  F   UNL     1      43.695   7.531  11.112  0.00  0.00    +0.000 F 
ATOM      6  C   UNL     1      45.607   6.257  11.771  0.00  0.00    +0.000 A 
ATOM      7  C   UNL     1      46.807   6.268  12.507  0.00  0.00    +0.000 A 
ENDROOT
BRANCH   6   8
ATOM      8  C   UNL     1      45.192   5.062  10.993  0.00  0.00    +0.000 A 
ATOM      9  C   UNL     1      44.334   4.085  11.525  0.00  0.00    +0.000 A 
ATOM     10  C   UNL     1      43.940   2.974  10.771  0.00  0.00    +0.000 A 
ATOM     11  C   UNL     1      44.379   2.825   9.457  0.00  0.00    +0.000 A 
ATOM     12  C   UNL     1      45.250   3.762   8.895  0.00  0.00    +0.000 A 
ATOM     13  C   UNL     1      45.656   4.857   9.678  0.00  0.00    +0.000 A 
BRANCH  12  14
ATOM     14  C   UNL     1      45.672   3.701   7.450  0.00  0.00    +0.000 C 
BRANCH  14  15
ATOM     15  O   UNL     1      46.863   4.434   7.203  0.00  0.00    +0.000 OA
ATOM     16  H   UNL     1      47.602   3.815   7.361  0.00  0.00    +0.000 HD
ENDBRANCH  14  15
ENDBRANCH  12  14
ENDBRANCH   6   8
BRANCH   1  17
ATOM     17  C   UNL     1      48.678   7.443  13.726  0.00  0.00    +0.000 C 
BRANCH  17  18
ATOM     18  O   UNL     1      49.006   6.249  14.432  0.00  0.00    +0.000 OA
BRANCH  18  24
ATOM     19  C   UNL     1      48.148   5.109  16.495  0.00  0.00    +0.000 A 
ATOM     20  C   UNL     1      47.840   5.273  17.853  0.00  0.00    +0.000 A 
ATOM     21  C   UNL     1      48.023   6.500  18.504  0.00  0.00    +0.000 A 
ATOM     22  C   UNL     1      48.533   7.579  17.784  0.00  0.00    +0.000 A 
ATOM     23  C   UNL     1      48.841   7.428  16.423  0.00  0.00    +0.000 A 
ATOM     24  C   UNL     1      48.654   6.203  15.764  0.00  0.00    +0.000 A 
BRANCH  21  25
ATOM     25  C   UNL     1      47.663   6.549  19.951  0.00  0.00    +0.000 C 
ATOM     26  N   UNL     1      47.311   5.385  20.578  0.00  0.00    +0.000 N 
ATOM     27  O   UNL     1      47.678   7.596  20.581  0.00  0.00    +0.000 OA
ATOM     28  H   UNL     1      47.263   4.478  20.144  0.00  0.00    +0.000 HD
ATOM     29  H   UNL     1      47.070   5.458  21.558  0.00  0.00    +0.000 HD
ENDBRANCH  21  25
BRANCH  19  31
ATOM     30  C   UNL     1      48.328   2.727  16.640  0.00  0.00    +0.000 C 
ATOM     31  O   UNL     1      48.035   3.891  15.877  0.00  0.00    +0.000 OA
ENDBRANCH  19  31
ENDBRANCH  18  24
ENDBRANCH  17  18
ENDBRANCH   1  17
TORSDOF 8
ENDMDL
MODEL 3
REMARK VINA RESULT:    -7.555      2.104      2.729
REMARK INTER + INTRA:         -11.489
REMARK INTER:                 -10.545
REMARK INTRA:                  -0.944
REMARK UNBOUND:                -0.622
REMARK  Name = 
REMARK  9 active torsions:
REMARK  status: ('A' for Active; 'I' for Inactive)
REMARK    1  A    between atoms: C_1  and  O_2
REMARK    2  A    between atoms: O_2  and  C_3
REMARK    3  A    between atoms: C_5  and  C_6
REMARK    4  A    between atoms: C_11  and  O_12
REMARK    5  A    between atoms: O_12  and  C_13
REMARK    6  A    between atoms: C_13  and  C_14
REMARK    7  A    between atoms: C_19  and  C_20
REMARK    8  A    between atoms: C_24  and  C_25
REMARK    9  A    between atoms: C_25  and  O_26
REMARK                            x       y       z     vdW  Elec       q    Type
REMARK                         _______ _______ _______ _____ _____    ______ ____
ROOT
ATOM      1  C   UNL     1      44.890   6.985  11.623  0.00  0.00    +0.000 A 
ATOM      2  C   UNL     1      44.301   8.231  11.392  0.00  0.00    +0.000 A 
ATOM      3  C   UNL     1      45.034   9.393  11.609  0.00  0.00    +0.000 A 
ATOM      4  C   UNL     1      46.346   9.313  12.075  0.00  0.00    +0.000 A 
ATOM      5  F   UNL     1      46.994  10.473  12.277  0.00  0.00    +0.000 F 
ATOM      6  C   UNL     1      46.975   8.084  12.347  0.00  0.00    +0.000 A 
ATOM      7  C   UNL     1      46.222   6.925  12.081  0.00  0.00    +0.000 A 
ENDROOT
BRANCH   6   8
ATOM      8  C   UNL     1      48.333   8.000  12.942  0.00  0.00    +0.000 A 
ATOM      9  C   UNL     1      49.477   8.446  12.259  0.00  0.00    +0.000 A 
ATOM     10  C   UNL     1      50.747   8.375  12.842  0.00  0.00    +0.000 A 
ATOM     11  C   UNL     1      50.900   7.874  14.134  0.00  0.00    +0.000 A 
ATOM     12  C   UNL     1      49.792   7.400  14.841  0.00  0.00    +0.000 A 
ATOM     13  C   UNL     1      48.528   7.455  14.227  0.00  0.00    +0.000 A 
BRANCH  12  14
ATOM     14  C   UNL     1      49.889   6.945  16.274  0.00  0.00    +0.000 C 
BRANCH  14  15
ATOM     15  O   UNL     1      49.876   5.530  16.393  0.00  0.00    +0.000 OA
ATOM     16  H   UNL     1      49.828   5.337  17.350  0.00  0.00    +0.000 HD
ENDBRANCH  14  15
ENDBRANCH  12  14
ENDBRANCH   6   8
BRANCH   1  17
ATOM     17  C   UNL     1      44.060   5.721  11.587  0.00  0.00    +0.000 C 
BRANCH  17  18
ATOM     18  O   UNL     1      43.669   5.350  10.267  0.00  0.00    +0.000 OA
BRANCH  18  24
ATOM     19  C   UNL     1      44.216   2.919   9.979  0.00  0.00    +0.000 A 
ATOM     20  C   UNL     1      45.014   1.996   9.288  0.00  0.00    +0.000 A 
ATOM     21  C   UNL     1      45.939   2.406   8.319  0.00  0.00    +0.000 A 
ATOM     22  C   UNL     1      46.062   3.765   8.032  0.00  0.00    +0.000 A 
ATOM     23  C   UNL     1      45.272   4.698   8.721  0.00  0.00    +0.000 A 
ATOM     24  C   UNL     1      44.347   4.293   9.697  0.00  0.00    +0.000 A 
BRANCH  21  25
ATOM     25  C   UNL     1      46.726   1.330   7.649  0.00  0.00    +0.000 C 
ATOM     26  N   UNL     1      47.639   1.686   6.693  0.00  0.00    +0.000 N 
ATOM     27  O   UNL     1      46.576   0.152   7.935  0.00  0.00    +0.000 OA
ATOM     28  H   UNL     1      47.828   2.626   6.385  0.00  0.00    +0.000 HD
ATOM     29  H   UNL     1      48.152   0.930   6.258  0.00  0.00    +0.000 HD
ENDBRANCH  21  25
BRANCH  19  31
ATOM     30  C   UNL     1      43.612   2.478  12.252  0.00  0.00    +0.000 C 
ATOM     31  O   UNL     1      43.262   2.512  10.874  0.00  0.00    +0.000 OA
ENDBRANCH  19  31
ENDBRANCH  18  24
ENDBRANCH  17  18
ENDBRANCH   1  17
TORSDOF 8
ENDMDL
MODEL 4
REMARK VINA RESULT:    -7.088      4.522      8.255
REMARK INTER + INTRA:         -10.817
REMARK INTER:                  -9.685
REMARK INTRA:                  -1.132
REMARK UNBOUND:                -0.622
REMARK  Name = 
REMARK  9 active torsions:
REMARK  status: ('A' for Active; 'I' for Inactive)
REMARK    1  A    between atoms: C_1  and  O_2
REMARK    2  A    between atoms: O_2  and  C_3
REMARK    3  A    between atoms: C_5  and  C_6
REMARK    4  A    between atoms: C_11  and  O_12
REMARK    5  A    between atoms: O_12  and  C_13
REMARK    6  A    between atoms: C_13  and  C_14
REMARK    7  A    between atoms: C_19  and  C_20
REMARK    8  A    between atoms: C_24  and  C_25
REMARK    9  A    between atoms: C_25  and  O_26
REMARK                            x       y       z     vdW  Elec       q    Type
REMARK                         _______ _______ _______ _____ _____    ______ ____
ROOT
ATOM      1  C   UNL     1      47.699   7.494  13.532  0.00  0.00    +0.000 A 
ATOM      2  C   UNL     1      47.128   8.769  13.500  0.00  0.00    +0.000 A 
ATOM      3  C   UNL     1      46.001   9.002  12.719  0.00  0.00    +0.000 A 
ATOM      4  C   UNL     1      45.456   7.970  11.955  0.00  0.00    +0.000 A 
ATOM      5  F   UNL     1      44.376   8.265  11.214  0.00  0.00    +0.000 F 
ATOM      6  C   UNL     1      46.010   6.677  11.934  0.00  0.00    +0.000 A 
ATOM      7  C   UNL     1      47.126   6.460  12.763  0.00  0.00    +0.000 A 
ENDROOT
BRANCH   6   8
ATOM      8  C   UNL     1      45.495   5.606  11.042  0.00  0.00    +0.000 A 
ATOM      9  C   UNL     1      45.866   5.518   9.689  0.00  0.00    +0.000 A 
ATOM     10  C   UNL     1      45.385   4.493   8.868  0.00  0.00    +0.000 A 
ATOM     11  C   UNL     1      44.537   3.516   9.388  0.00  0.00    +0.000 A 
ATOM     12  C   UNL     1      44.127   3.576  10.722  0.00  0.00    +0.000 A 
ATOM     13  C   UNL     1      44.599   4.630  11.523  0.00  0.00    +0.000 A 
BRANCH  12  14
ATOM     14  C   UNL     1      43.295   2.492  11.357  0.00  0.00    +0.000 C 
BRANCH  14  15
ATOM     15  O   UNL     1      43.542   2.366  12.749  0.00  0.00    +0.000 OA
ATOM     16  H   UNL     1      42.809   1.830  13.109  0.00  0.00    +0.000 HD
ENDBRANCH  14  15
ENDBRANCH  12  14
ENDBRANCH   6   8
BRANCH   1  17
ATOM     17  C   UNL     1      49.032   7.263  14.210  0.00  0.00    +0.000 C 
BRANCH  17  18
ATOM     18  O   UNL     1      48.953   7.339  15.631  0.00  0.00    +0.000 OA
BRANCH  18  24
ATOM     19  C   UNL     1      49.026   5.232  16.991  0.00  0.00    +0.000 A 
ATOM     20  C   UNL     1      49.861   4.333  17.671  0.00  0.00    +0.000 A 
ATOM     21  C   UNL     1      51.249   4.513  17.718  0.00  0.00    +0.000 A 
ATOM     22  C   UNL     1      51.813   5.608  17.064  0.00  0.00    +0.000 A 
ATOM     23  C   UNL     1      50.987   6.517  16.385  0.00  0.00    +0.000 A 
ATOM     24  C   UNL     1      49.595   6.345  16.339  0.00  0.00    +0.000 A 
BRANCH  21  25
ATOM     25  C   UNL     1      52.031   3.488  18.468  0.00  0.00    +0.000 C 
ATOM     26  N   UNL     1      51.946   2.180  18.071  0.00  0.00    +0.000 N 
ATOM     27  O   UNL     1      52.739   3.788  19.417  0.00  0.00    +0.000 OA
ATOM     28  H   UNL     1      51.387   1.835  17.309  0.00  0.00    +0.000 HD
ATOM     29  H   UNL     1      52.488   1.513  18.606  0.00  0.00    +0.000 HD
ENDBRANCH  21  25
BRANCH  19  31
ATOM     30  C   UNL     1      47.214   4.191  15.825  0.00  0.00    +0.000 C 
ATOM     31  O   UNL     1      47.677   5.017  16.886  0.00  0.00    +0.000 OA
ENDBRANCH  19  31
ENDBRANCH  18  24
ENDBRANCH  17  18
ENDBRANCH   1  17
TORSDOF 8
ENDMDL
MODEL 5
REMARK VINA RESULT:    -7.018      5.442      7.190
REMARK INTER + INTRA:         -10.716
REMARK INTER:                  -9.284
REMARK INTRA:                  -1.433
REMARK UNBOUND:                -0.622
REMARK  Name = 
REMARK  9 active torsions:
REMARK  status: ('A' for Active; 'I' for Inactive)
REMARK    1  A    between atoms: C_1  and  O_2
REMARK    2  A    between atoms: O_2  and  C_3
REMARK    3  A    between atoms: C_5  and  C_6
REMARK    4  A    between atoms: C_11  and  O_12
REMARK    5  A    between atoms: O_12  and  C_13
REMARK    6  A    between atoms: C_13  and  C_14
REMARK    7  A    between atoms: C_19  and  C_20
REMARK    8  A    between atoms: C_24  and  C_25
REMARK    9  A    between atoms: C_25  and  O_26
REMARK                            x       y       z     vdW  Elec       q    Type
REMARK                         _______ _______ _______ _____ _____    ______ ____
ROOT
ATOM      1  C   UNL     1      49.361   6.862  16.548  0.00  0.00    +0.000 A 
ATOM      2  C   UNL     1      48.626   7.272  17.663  0.00  0.00    +0.000 A 
ATOM      3  C   UNL     1      48.726   6.563  18.855  0.00  0.00    +0.000 A 
ATOM      4  C   UNL     1      49.543   5.434  18.929  0.00  0.00    +0.000 A 
ATOM      5  F   UNL     1      49.584   4.787  20.106  0.00  0.00    +0.000 F 
ATOM      6  C   UNL     1      50.282   4.967  17.828  0.00  0.00    +0.000 A 
ATOM      7  C   UNL     1      50.191   5.727  16.646  0.00  0.00    +0.000 A 
ENDROOT
BRANCH   6   8
ATOM      8  C   UNL     1      51.068   3.708  17.874  0.00  0.00    +0.000 A 
ATOM      9  C   UNL     1      50.611   2.519  17.281  0.00  0.00    +0.000 A 
ATOM     10  C   UNL     1      51.373   1.347  17.319  0.00  0.00    +0.000 A 
ATOM     11  C   UNL     1      52.624   1.341  17.934  0.00  0.00    +0.000 A 
ATOM     12  C   UNL     1      53.109   2.496  18.553  0.00  0.00    +0.000 A 
ATOM     13  C   UNL     1      52.316   3.656  18.528  0.00  0.00    +0.000 A 
BRANCH  12  14
ATOM     14  C   UNL     1      54.494   2.570  19.141  0.00  0.00    +0.000 C 
BRANCH  14  15
ATOM     15  O   UNL     1      54.666   1.680  20.234  0.00  0.00    +0.000 OA
ATOM     16  H   UNL     1      54.082   2.006  20.946  0.00  0.00    +0.000 HD
ENDBRANCH  14  15
ENDBRANCH  12  14
ENDBRANCH   6   8
BRANCH   1  17
ATOM     17  C   UNL     1      49.121   7.491  15.193  0.00  0.00    +0.000 C 
BRANCH  17  18
ATOM     18  O   UNL     1      48.962   6.527  14.154  0.00  0.00    +0.000 OA
BRANCH  18  24
ATOM     19  C   UNL     1      46.933   5.058  14.015  0.00  0.00    +0.000 A 
ATOM     20  C   UNL     1      45.621   4.957  13.531  0.00  0.00    +0.000 A 
ATOM     21  C   UNL     1      45.020   6.000  12.815  0.00  0.00    +0.000 A 
ATOM     22  C   UNL     1      45.743   7.169  12.586  0.00  0.00    +0.000 A 
ATOM     23  C   UNL     1      47.059   7.280  13.061  0.00  0.00    +0.000 A 
ATOM     24  C   UNL     1      47.669   6.237  13.774  0.00  0.00    +0.000 A 
BRANCH  21  25
ATOM     25  C   UNL     1      43.618   5.775  12.356  0.00  0.00    +0.000 C 
ATOM     26  N   UNL     1      43.126   6.559  11.349  0.00  0.00    +0.000 N 
ATOM     27  O   UNL     1      42.910   4.913  12.856  0.00  0.00    +0.000 OA
ATOM     28  H   UNL     1      43.628   7.296  10.881  0.00  0.00    +0.000 HD
ATOM     29  H   UNL     1      42.170   6.379  11.066  0.00  0.00    +0.000 HD
ENDBRANCH  21  25
BRANCH  19  31
ATOM     30  C   UNL     1      47.119   3.983  16.144  0.00  0.00    +0.000 C 
ATOM     31  O   UNL     1      47.495   4.067  14.776  0.00  0.00    +0.000 OA
ENDBRANCH  19  31
ENDBRANCH  18  24
ENDBRANCH  17  18
ENDBRANCH   1  17
TORSDOF 8
ENDMDL
MODEL 6
REMARK VINA RESULT:    -6.863      2.933      7.066
REMARK INTER + INTRA:         -10.493
REMARK INTER:                  -9.621
REMARK INTRA:                  -0.872
REMARK UNBOUND:                -0.622
REMARK  Name = 
REMARK  9 active torsions:
REMARK  status: ('A' for Active; 'I' for Inactive)
REMARK    1  A    between atoms: C_1  and  O_2
REMARK    2  A    between atoms: O_2  and  C_3
REMARK    3  A    between atoms: C_5  and  C_6
REMARK    4  A    between atoms: C_11  and  O_12
REMARK    5  A    between atoms: O_12  and  C_13
REMARK    6  A    between atoms: C_13  and  C_14
REMARK    7  A    between atoms: C_19  and  C_20
REMARK    8  A    between atoms: C_24  and  C_25
REMARK    9  A    between atoms: C_25  and  O_26
REMARK                            x       y       z     vdW  Elec       q    Type
REMARK                         _______ _______ _______ _____ _____    ______ ____
ROOT
ATOM      1  C   UNL     1      44.494   5.476  11.077  0.00  0.00    +0.000 A 
ATOM      2  C   UNL     1      43.452   4.878  11.791  0.00  0.00    +0.000 A 
ATOM      3  C   UNL     1      43.149   3.538  11.578  0.00  0.00    +0.000 A 
ATOM      4  C   UNL     1      43.871   2.799  10.640  0.00  0.00    +0.000 A 
ATOM      5  F   UNL     1      43.519   1.513  10.474  0.00  0.00    +0.000 F 
ATOM      6  C   UNL     1      44.911   3.362   9.879  0.00  0.00    +0.000 A 
ATOM      7  C   UNL     1      45.221   4.710  10.144  0.00  0.00    +0.000 A 
ENDROOT
BRANCH   6   8
ATOM      8  C   UNL     1      45.611   2.608   8.807  0.00  0.00    +0.000 A 
ATOM      9  C   UNL     1      45.750   1.211   8.846  0.00  0.00    +0.000 A 
ATOM     10  C   UNL     1      46.396   0.515   7.818  0.00  0.00    +0.000 A 
ATOM     11  C   UNL     1      46.902   1.201   6.715  0.00  0.00    +0.000 A 
ATOM     12  C   UNL     1      46.804   2.593   6.646  0.00  0.00    +0.000 A 
ATOM     13  C   UNL     1      46.175   3.276   7.702  0.00  0.00    +0.000 A 
BRANCH  12  14
ATOM     14  C   UNL     1      47.242   3.370   5.432  0.00  0.00    +0.000 C 
BRANCH  14  15
ATOM     15  O   UNL     1      48.327   2.751   4.757  0.00  0.00    +0.000 OA
ATOM     16  H   UNL     1      47.947   1.998   4.263  0.00  0.00    +0.000 HD
ENDBRANCH  14  15
ENDBRANCH  12  14
ENDBRANCH   6   8
BRANCH   1  17
ATOM     17  C   UNL     1      44.715   6.971  11.142  0.00  0.00    +0.000 C 
BRANCH  17  18
ATOM     18  O   UNL     1      45.176   7.410  12.418  0.00  0.00    +0.000 OA
BRANCH  18  24
ATOM     19  C   UNL     1      47.437   6.543  13.074  0.00  0.00    +0.000 A 
ATOM     20  C   UNL     1      48.801   6.851  13.168  0.00  0.00    +0.000 A 
ATOM     21  C   UNL     1      49.300   8.101  12.778  0.00  0.00    +0.000 A 
ATOM     22  C   UNL     1      48.417   9.056  12.277  0.00  0.00    +0.000 A 
ATOM     23  C   UNL     1      47.048   8.761  12.184  0.00  0.00    +0.000 A 
ATOM     24  C   UNL     1      46.542   7.512  12.578  0.00  0.00    +0.000 A 
BRANCH  21  25
ATOM     25  C   UNL     1      50.770   8.308  12.920  0.00  0.00    +0.000 C 
ATOM     26  N   UNL     1      51.485   8.699  11.821  0.00  0.00    +0.000 N 
ATOM     27  O   UNL     1      51.342   8.140  13.987  0.00  0.00    +0.000 OA
ATOM     28  H   UNL     1      51.107   8.856  10.901  0.00  0.00    +0.000 HD
ATOM     29  H   UNL     1      52.481   8.827  11.955  0.00  0.00    +0.000 HD
ENDBRANCH  21  25
BRANCH  19  31
ATOM     30  C   UNL     1      47.104   4.849  14.731  0.00  0.00    +0.000 C 
ATOM     31  O   UNL     1      46.960   5.297  13.390  0.00  0.00    +0.000 OA
ENDBRANCH  19  31
ENDBRANCH  18  24
ENDBRANCH  17  18
ENDBRANCH   1  17
TORSDOF 8
ENDMDL
MODEL 7
REMARK VINA RESULT:    -6.824      4.711      6.480
REMARK INTER + INTRA:         -10.438
REMARK INTER:                  -9.140
REMARK INTRA:                  -1.299
REMARK UNBOUND:                -0.622
REMARK  Name = 
REMARK  9 active torsions:
REMARK  status: ('A' for Active; 'I' for Inactive)
REMARK    1  A    between atoms: C_1  and  O_2
REMARK    2  A    between atoms: O_2  and  C_3
REMARK    3  A    between atoms: C_5  and  C_6
REMARK    4  A    between atoms: C_11  and  O_12
REMARK    5  A    between atoms: O_12  and  C_13
REMARK    6  A    between atoms: C_13  and  C_14
REMARK    7  A    between atoms: C_19  and  C_20
REMARK    8  A    between atoms: C_24  and  C_25
REMARK    9  A    between atoms: C_25  and  O_26
REMARK                            x       y       z     vdW  Elec       q    Type
REMARK                         _______ _______ _______ _____ _____    ______ ____
ROOT
ATOM      1  C   UNL     1      49.023   7.858  14.538  0.00  0.00    +0.000 A 
ATOM      2  C   UNL     1      48.321   9.024  14.852  0.00  0.00    +0.000 A 
ATOM      3  C   UNL     1      48.238   9.445  16.175  0.00  0.00    +0.000 A 
ATOM      4  C   UNL     1      48.838   8.693  17.186  0.00  0.00    +0.000 A 
ATOM      5  F   UNL     1      48.709   9.148  18.443  0.00  0.00    +0.000 F 
ATOM      6  C   UNL     1      49.534   7.499  16.923  0.00  0.00    +0.000 A 
ATOM      7  C   UNL     1      49.634   7.118  15.571  0.00  0.00    +0.000 A 
ENDROOT
BRANCH   6   8
ATOM      8  C   UNL     1      50.082   6.643  18.006  0.00  0.00    +0.000 A 
ATOM      9  C   UNL     1      51.462   6.541  18.251  0.00  0.00    +0.000 A 
ATOM     10  C   UNL     1      51.960   5.743  19.287  0.00  0.00    +0.000 A 
ATOM     11  C   UNL     1      51.085   5.044  20.117  0.00  0.00    +0.000 A 
ATOM     12  C   UNL     1      49.707   5.101  19.897  0.00  0.00    +0.000 A 
ATOM     13  C   UNL     1      49.228   5.886  18.833  0.00  0.00    +0.000 A 
BRANCH  12  14
ATOM     14  C   UNL     1      48.717   4.447  20.825  0.00  0.00    +0.000 C 
BRANCH  14  15
ATOM     15  O   UNL     1      48.292   3.176  20.355  0.00  0.00    +0.000 OA
ATOM     16  H   UNL     1      49.102   2.640  20.247  0.00  0.00    +0.000 HD
ENDBRANCH  14  15
ENDBRANCH  12  14
ENDBRANCH   6   8
BRANCH   1  17
ATOM     17  C   UNL     1      48.962   7.273  13.143  0.00  0.00    +0.000 C 
BRANCH  17  18
ATOM     18  O   UNL     1      48.625   5.887  13.136  0.00  0.00    +0.000 OA
BRANCH  18  24
ATOM     19  C   UNL     1      46.540   4.517  13.396  0.00  0.00    +0.000 A 
ATOM     20  C   UNL     1      45.209   4.363  12.983  0.00  0.00    +0.000 A 
ATOM     21  C   UNL     1      44.622   5.237  12.059  0.00  0.00    +0.000 A 
ATOM     22  C   UNL     1      45.379   6.289  11.545  0.00  0.00    +0.000 A 
ATOM     23  C   UNL     1      46.714   6.449  11.947  0.00  0.00    +0.000 A 
ATOM     24  C   UNL     1      47.310   5.574  12.869  0.00  0.00    +0.000 A 
BRANCH  21  25
ATOM     25  C   UNL     1      43.198   4.973  11.702  0.00  0.00    +0.000 C 
ATOM     26  N   UNL     1      42.303   6.007  11.775  0.00  0.00    +0.000 N 
ATOM     27  O   UNL     1      42.818   3.867  11.348  0.00  0.00    +0.000 OA
ATOM     28  H   UNL     1      42.517   6.948  12.062  0.00  0.00    +0.000 HD
ATOM     29  H   UNL     1      41.345   5.789  11.528  0.00  0.00    +0.000 HD
ENDBRANCH  21  25
BRANCH  19  31
ATOM     30  C   UNL     1      47.235   4.227  15.668  0.00  0.00    +0.000 C 
ATOM     31  O   UNL     1      47.092   3.705  14.353  0.00  0.00    +0.000 OA
ENDBRANCH  19  31
ENDBRANCH  18  24
ENDBRANCH  17  18
ENDBRANCH   1  17
TORSDOF 8
ENDMDL
MODEL 8
REMARK VINA RESULT:    -6.721      4.854      7.967
REMARK INTER + INTRA:         -10.290
REMARK INTER:                  -8.995
REMARK INTRA:                  -1.294
REMARK UNBOUND:                -0.622
REMARK  Name = 
REMARK  9 active torsions:
REMARK  status: ('A' for Active; 'I' for Inactive)
REMARK    1  A    between atoms: C_1  and  O_2
REMARK    2  A    between atoms: O_2  and  C_3
REMARK    3  A    between atoms: C_5  and  C_6
REMARK    4  A    between atoms: C_11  and  O_12
REMARK    5  A    between atoms: O_12  and  C_13
REMARK    6  A    between atoms: C_13  and  C_14
REMARK    7  A    between atoms: C_19  and  C_20
REMARK    8  A    between atoms: C_24  and  C_25
REMARK    9  A    between atoms: C_25  and  O_26
REMARK                            x       y       z     vdW  Elec       q    Type
REMARK                         _______ _______ _______ _____ _____    ______ ____
ROOT
ATOM      1  C   UNL     1      49.654   7.495  15.593  0.00  0.00    +0.000 A 
ATOM      2  C   UNL     1      50.741   7.833  14.783  0.00  0.00    +0.000 A 
ATOM      3  C   UNL     1      50.596   7.839  13.400  0.00  0.00    +0.000 A 
ATOM      4  C   UNL     1      49.374   7.489  12.825  0.00  0.00    +0.000 A 
ATOM      5  F   UNL     1      49.306   7.503  11.483  0.00  0.00    +0.000 F 
ATOM      6  C   UNL     1      48.259   7.117  13.596  0.00  0.00    +0.000 A 
ATOM      7  C   UNL     1      48.424   7.157  14.994  0.00  0.00    +0.000 A 
ENDROOT
BRANCH   6   8
ATOM      8  C   UNL     1      46.991   6.643  12.985  0.00  0.00    +0.000 A 
ATOM      9  C   UNL     1      46.084   7.523  12.371  0.00  0.00    +0.000 A 
ATOM     10  C   UNL     1      44.902   7.057  11.784  0.00  0.00    +0.000 A 
ATOM     11  C   UNL     1      44.610   5.694  11.779  0.00  0.00    +0.000 A 
ATOM     12  C   UNL     1      45.474   4.786  12.396  0.00  0.00    +0.000 A 
ATOM     13  C   UNL     1      46.643   5.277  13.004  0.00  0.00    +0.000 A 
BRANCH  12  14
ATOM     14  C   UNL     1      45.256   3.297  12.330  0.00  0.00    +0.000 C 
BRANCH  14  15
ATOM     15  O   UNL     1      45.141   2.826  10.996  0.00  0.00    +0.000 OA
ATOM     16  H   UNL     1      45.876   3.233  10.498  0.00  0.00    +0.000 HD
ENDBRANCH  14  15
ENDBRANCH  12  14
ENDBRANCH   6   8
BRANCH   1  17
ATOM     17  C   UNL     1      49.836   7.287  17.081  0.00  0.00    +0.000 C 
BRANCH  17  18
ATOM     18  O   UNL     1      49.115   6.163  17.578  0.00  0.00    +0.000 OA
BRANCH  18  24
ATOM     19  C   UNL     1      49.238   3.665  17.374  0.00  0.00    +0.000 A 
ATOM     20  C   UNL     1      50.089   2.551  17.416  0.00  0.00    +0.000 A 
ATOM     21  C   UNL     1      51.464   2.686  17.646  0.00  0.00    +0.000 A 
ATOM     22  C   UNL     1      51.998   3.960  17.830  0.00  0.00    +0.000 A 
ATOM     23  C   UNL     1      51.156   5.082  17.796  0.00  0.00    +0.000 A 
ATOM     24  C   UNL     1      49.777   4.953  17.571  0.00  0.00    +0.000 A 
BRANCH  21  25
ATOM     25  C   UNL     1      52.265   1.428  17.662  0.00  0.00    +0.000 C 
ATOM     26  N   UNL     1      51.663   0.274  18.087  0.00  0.00    +0.000 N 
ATOM     27  O   UNL     1      53.434   1.406  17.307  0.00  0.00    +0.000 OA
ATOM     28  H   UNL     1      50.711   0.193  18.404  0.00  0.00    +0.000 HD
ATOM     29  H   UNL     1      52.239  -0.559  18.087  0.00  0.00    +0.000 HD
ENDBRANCH  21  25
BRANCH  19  31
ATOM     30  C   UNL     1      47.532   3.454  15.710  0.00  0.00    +0.000 C 
ATOM     31  O   UNL     1      47.906   3.539  17.079  0.00  0.00    +0.000 OA
ENDBRANCH  19  31
ENDBRANCH  18  24
ENDBRANCH  17  18
ENDBRANCH   1  17
TORSDOF 8
ENDMDL
MODEL 9
REMARK VINA RESULT:    -6.522      4.000      5.888
REMARK INTER + INTRA:         -10.003
REMARK INTER:                  -8.940
REMARK INTRA:                  -1.063
REMARK UNBOUND:                -0.622
REMARK  Name = 
REMARK  9 active torsions:
REMARK  status: ('A' for Active; 'I' for Inactive)
REMARK    1  A    between atoms: C_1  and  O_2
REMARK    2  A    between atoms: O_2  and  C_3
REMARK    3  A    between atoms: C_5  and  C_6
REMARK    4  A    between atoms: C_11  and  O_12
REMARK    5  A    between atoms: O_12  and  C_13
REMARK    6  A    between atoms: C_13  and  C_14
REMARK    7  A    between atoms: C_19  and  C_20
REMARK    8  A    between atoms: C_24  and  C_25
REMARK    9  A    between atoms: C_25  and  O_26
REMARK                            x       y       z     vdW  Elec       q    Type
REMARK                         _______ _______ _______ _____ _____    ______ ____
ROOT
ATOM      1  C   UNL     1      49.869   8.328  12.185  0.00  0.00    +0.000 A 
ATOM      2  C   UNL     1      49.651   9.698  12.017  0.00  0.00    +0.000 A 
ATOM      3  C   UNL     1      50.463  10.425  11.152  0.00  0.00    +0.000 A 
ATOM      4  C   UNL     1      51.502   9.791  10.471  0.00  0.00    +0.000 A 
ATOM      5  F   UNL     1      52.256  10.553   9.661  0.00  0.00    +0.000 F 
ATOM      6  C   UNL     1      51.777   8.421  10.627  0.00  0.00    +0.000 A 
ATOM      7  C   UNL     1      50.916   7.702  11.478  0.00  0.00    +0.000 A 
ENDROOT
BRANCH   6   8
ATOM      8  C   UNL     1      52.946   7.766   9.985  0.00  0.00    +0.000 A 
ATOM      9  C   UNL     1      54.268   8.083  10.340  0.00  0.00    +0.000 A 
ATOM     10  C   UNL     1      55.357   7.444   9.738  0.00  0.00    +0.000 A 
ATOM     11  C   UNL     1      55.148   6.454   8.778  0.00  0.00    +0.000 A 
ATOM     12  C   UNL     1      53.850   6.122   8.381  0.00  0.00    +0.000 A 
ATOM     13  C   UNL     1      52.771   6.795   8.978  0.00  0.00    +0.000 A 
BRANCH  12  14
ATOM     14  C   UNL     1      53.568   4.992   7.425  0.00  0.00    +0.000 C 
BRANCH  14  15
ATOM     15  O   UNL     1      52.441   5.250   6.601  0.00  0.00    +0.000 OA
ATOM     16  H   UNL     1      52.692   5.994   6.020  0.00  0.00    +0.000 HD
ENDBRANCH  14  15
ENDBRANCH  12  14
ENDBRANCH   6   8
BRANCH   1  17
ATOM     17  C   UNL     1      49.137   7.557  13.262  0.00  0.00    +0.000 C 
BRANCH  17  18
ATOM     18  O   UNL     1      48.753   6.249  12.845  0.00  0.00    +0.000 OA
BRANCH  18  24
ATOM     19  C   UNL     1      46.723   4.941  13.524  0.00  0.00    +0.000 A 
ATOM     20  C   UNL     1      45.333   4.825  13.383  0.00  0.00    +0.000 A 
ATOM     21  C   UNL     1      44.599   5.712  12.584  0.00  0.00    +0.000 A 
ATOM     22  C   UNL     1      45.269   6.739  11.921  0.00  0.00    +0.000 A 
ATOM     23  C   UNL     1      46.661   6.862  12.050  0.00  0.00    +0.000 A 
ATOM     24  C   UNL     1      47.402   5.973  12.845  0.00  0.00    +0.000 A 
BRANCH  21  25
ATOM     25  C   UNL     1      43.126   5.489  12.517  0.00  0.00    +0.000 C 
ATOM     26  N   UNL     1      42.386   6.257  11.659  0.00  0.00    +0.000 N 
ATOM     27  O   UNL     1      42.572   4.643  13.204  0.00  0.00    +0.000 OA
ATOM     28  H   UNL     1      42.748   6.980  11.060  0.00  0.00    +0.000 HD
ATOM     29  H   UNL     1      41.390   6.079  11.643  0.00  0.00    +0.000 HD
ENDBRANCH  21  25
BRANCH  19  31
ATOM     30  C   UNL     1      47.272   4.298  15.762  0.00  0.00    +0.000 C 
ATOM     31  O   UNL     1      47.430   4.118  14.360  0.00  0.00    +0.000 OA
ENDBRANCH  19  31
ENDBRANCH  18  24
ENDBRANCH  17  18
ENDBRANCH   1  17
TORSDOF 8
ENDMDL
