MODEL 1
REMARK VINA RESULT:    -8.870      0.000      0.000
REMARK INTER + INTRA:         -13.391
REMARK INTER:                 -12.499
REMARK INTRA:                  -0.891
REMARK UNBOUND:                -0.891
REMARK  Name = 
REMARK  9 active torsions:
REMARK  status: ('A' for Active; 'I' for Inactive)
REMARK    1  A    between atoms: C_1  and  C_2
REMARK    2  A    between atoms: C_2  and  C_3
REMARK    3  A    between atoms: C_5  and  N_6
REMARK    4  A    between atoms: N_6  and  C_7
REMARK    5  A    between atoms: C_11  and  C_12
REMARK    6  A    between atoms: C_12  and  C_13
REMARK    7  A    between atoms: C_13  and  N_14
REMARK    8  A    between atoms: N_14  and  C_15
REMARK    9  A    between atoms: C_18  and  C_19
REMARK                            x       y       z     vdW  Elec       q    Type
REMARK                         _______ _______ _______ _____ _____    ______ ____
ROOT
ATOM      1  C   UNL     1      43.429   5.509  12.247  0.00  0.00    +0.000 C 
ENDROOT
BRANCH   1   6
ATOM      2  C   UNL     1      46.743   4.756  14.076  0.00  0.00    +0.000 A 
ATOM      3  C   UNL     1      47.577   5.701  13.477  0.00  0.00    +0.000 A 
ATOM      4  C   UNL     1      47.068   6.613  12.551  0.00  0.00    +0.000 A 
ATOM      5  C   UNL     1      45.721   6.558  12.175  0.00  0.00    +0.000 A 
ATOM      6  C   UNL     1      44.868   5.596  12.731  0.00  0.00    +0.000 A 
ATOM      7  C   UNL     1      45.397   4.724  13.699  0.00  0.00    +0.000 A 
BRANCH   2   8
ATOM      8  N   UNL     1      47.212   3.765  14.952  0.00  0.00    +0.000 N 
ATOM      9  H   UNL     1      46.959   2.828  14.648  0.00  0.00    +0.000 HD
BRANCH   8  14
ATOM     10  C   UNL     1      48.514   4.144  19.156  0.00  0.00    +0.000 C 
ATOM     11  C   UNL     1      49.041   3.812  17.761  0.00  0.00    +0.000 C 
ATOM     12  C   UNL     1      50.537   3.521  17.776  0.00  0.00    +0.000 C 
ATOM     13  C   UNL     1      48.610   4.838  16.677  0.00  0.00    +0.000 C 
ATOM     14  C   UNL     1      47.399   3.922  16.357  0.00  0.00    +0.000 C 
ATOM     15  C   UNL     1      48.195   2.756  16.985  0.00  0.00    +0.000 C 
ENDBRANCH   8  14
ENDBRANCH   2   8
ENDBRANCH   1   6
BRANCH   1  16
ATOM     16  C   UNL     1      43.189   4.420  11.195  0.00  0.00    +0.000 C 
BRANCH  16  17
ATOM     17  N   UNL     1      43.610   4.816   9.849  0.00  0.00    +0.000 N 
ATOM     18  H   UNL     1      43.885   5.793   9.796  0.00  0.00    +0.000 HD
BRANCH  17  19
ATOM     19  C   UNL     1      44.570   3.973   9.247  0.00  0.00    +0.000 A 
ATOM     20  C   UNL     1      44.545   2.577   9.382  0.00  0.00    +0.000 A 
ATOM     21  C   UNL     1      45.453   1.760   8.703  0.00  0.00    +0.000 A 
ATOM     22  C   UNL     1      46.392   2.319   7.839  0.00  0.00    +0.000 A 
ATOM     23  C   UNL     1      46.429   3.708   7.678  0.00  0.00    +0.000 A 
ATOM     24  C   UNL     1      45.514   4.521   8.368  0.00  0.00    +0.000 A 
BRANCH  22  25
ATOM     25  C   UNL     1      47.315   1.397   7.129  0.00  0.00    +0.000 C 
ATOM     26  N   UNL     1      48.374   1.945   6.463  0.00  0.00    +0.000 N 
ATOM     27  O   UNL     1      47.117   0.188   7.100  0.00  0.00    +0.000 OA
ATOM     28  H   UNL     1      48.471   2.935   6.295  0.00  0.00    +0.000 HD
ATOM     29  H   UNL     1      48.921   1.311   5.894  0.00  0.00    +0.000 HD
ENDBRANCH  22  25
ENDBRANCH  17  19
ENDBRANCH  16  17
ENDBRANCH   1  16
TORSDOF 7
ENDMDL
MODEL 2
REMARK VINA RESULT:    -7.957      1.022      1.369
REMARK INTER + INTRA:         -12.105
REMARK INTER:                 -11.370
REMARK INTRA:                  -0.734
REMARK UNBOUND:                -0.891
REMARK  Name = 
REMARK  9 active torsions:
REMARK  status: ('A' for Active; 'I' for Inactive)
REMARK    1  A    between atoms: C_1  and  C_2
REMARK    2  A    between atoms: C_2  and  C_3
REMARK    3  A    between atoms: C_5  and  N_6
REMARK    4  A    between atoms: N_6  and  C_7
REMARK    5  A    between atoms: C_11  and  C_12
REMARK    6  A    between atoms: C_12  and  C_13
REMARK    7  A    between atoms: C_13  and  N_14
REMARK    8  A    between atoms: N_14  and  C_15
REMARK    9  A    between atoms: C_18  and  C_19
REMARK                            x       y       z     vdW  Elec       q    Type
REMARK                         _______ _______ _______ _____ _____    ______ ____
ROOT
ATOM      1  C   UNL     1      45.181   4.297  11.899  0.00  0.00    +0.000 C 
ENDROOT
BRANCH   1   6
ATOM      2  C   UNL     1      47.573   6.337  14.136  0.00  0.00    +0.000 A 
ATOM      3  C   UNL     1      47.991   7.311  13.229  0.00  0.00    +0.000 A 
ATOM      4  C   UNL     1      47.460   7.355  11.939  0.00  0.00    +0.000 A 
ATOM      5  C   UNL     1      46.535   6.390  11.524  0.00  0.00    +0.000 A 
ATOM      6  C   UNL     1      46.126   5.378  12.400  0.00  0.00    +0.000 A 
ATOM      7  C   UNL     1      46.639   5.388  13.709  0.00  0.00    +0.000 A 
BRANCH   2   8
ATOM      8  N   UNL     1      48.129   6.194  15.418  0.00  0.00    +0.000 N 
ATOM      9  H   UNL     1      48.901   6.835  15.578  0.00  0.00    +0.000 HD
BRANCH   8  14
ATOM     10  C   UNL     1      48.331   2.895  18.348  0.00  0.00    +0.000 C 
ATOM     11  C   UNL     1      48.448   4.415  18.241  0.00  0.00    +0.000 C 
ATOM     12  C   UNL     1      48.709   5.059  19.597  0.00  0.00    +0.000 C 
ATOM     13  C   UNL     1      47.287   5.070  17.444  0.00  0.00    +0.000 C 
ATOM     14  C   UNL     1      48.171   4.985  16.172  0.00  0.00    +0.000 C 
ATOM     15  C   UNL     1      49.398   4.911  17.108  0.00  0.00    +0.000 C 
ENDBRANCH   8  14
ENDBRANCH   2   8
ENDBRANCH   1   6
BRANCH   1  16
ATOM     16  C   UNL     1      43.838   4.830  11.386  0.00  0.00    +0.000 C 
BRANCH  16  17
ATOM     17  N   UNL     1      43.724   4.796   9.926  0.00  0.00    +0.000 N 
ATOM     18  H   UNL     1      43.685   5.725   9.514  0.00  0.00    +0.000 HD
BRANCH  17  19
ATOM     19  C   UNL     1      44.665   3.975   9.268  0.00  0.00    +0.000 A 
ATOM     20  C   UNL     1      44.634   2.575   9.343  0.00  0.00    +0.000 A 
ATOM     21  C   UNL     1      45.522   1.783   8.610  0.00  0.00    +0.000 A 
ATOM     22  C   UNL     1      46.447   2.375   7.751  0.00  0.00    +0.000 A 
ATOM     23  C   UNL     1      46.489   3.769   7.650  0.00  0.00    +0.000 A 
ATOM     24  C   UNL     1      45.594   4.556   8.393  0.00  0.00    +0.000 A 
BRANCH  22  25
ATOM     25  C   UNL     1      47.349   1.479   6.983  0.00  0.00    +0.000 C 
ATOM     26  N   UNL     1      48.324   2.058   6.222  0.00  0.00    +0.000 N 
ATOM     27  O   UNL     1      47.204   0.262   6.990  0.00  0.00    +0.000 OA
ATOM     28  H   UNL     1      48.362   3.049   6.030  0.00  0.00    +0.000 HD
ATOM     29  H   UNL     1      48.850   1.438   5.620  0.00  0.00    +0.000 HD
ENDBRANCH  22  25
ENDBRANCH  17  19
ENDBRANCH  16  17
ENDBRANCH   1  16
TORSDOF 7
ENDMDL
MODEL 3
REMARK VINA RESULT:    -7.737      2.908      4.257
REMARK INTER + INTRA:         -11.794
REMARK INTER:                 -10.963
REMARK INTRA:                  -0.831
REMARK UNBOUND:                -0.891
REMARK  Name = 
REMARK  9 active torsions:
REMARK  status: ('A' for Active; 'I' for Inactive)
REMARK    1  A    between atoms: C_1  and  C_2
REMARK    2  A    between atoms: C_2  and  C_3
REMARK    3  A    between atoms: C_5  and  N_6
REMARK    4  A    between atoms: N_6  and  C_7
REMARK    5  A    between atoms: C_11  and  C_12
REMARK    6  A    between atoms: C_12  and  C_13
REMARK    7  A    between atoms: C_13  and  N_14
REMARK    8  A    between atoms: N_14  and  C_15
REMARK    9  A    between atoms: C_18  and  C_19
REMARK                            x       y       z     vdW  Elec       q    Type
REMARK                         _______ _______ _______ _____ _____    ______ ____
ROOT
ATOM      1  C   UNL     1      45.069   4.545  12.063  0.00  0.00    +0.000 C 
ENDROOT
BRANCH   1   6
ATOM      2  C   UNL     1      47.331   7.425  13.279  0.00  0.00    +0.000 A 
ATOM      3  C   UNL     1      46.487   8.513  13.059  0.00  0.00    +0.000 A 
ATOM      4  C   UNL     1      45.186   8.321  12.592  0.00  0.00    +0.000 A 
ATOM      5  C   UNL     1      44.728   7.032  12.294  0.00  0.00    +0.000 A 
ATOM      6  C   UNL     1      45.565   5.924  12.469  0.00  0.00    +0.000 A 
ATOM      7  C   UNL     1      46.853   6.143  12.988  0.00  0.00    +0.000 A 
BRANCH   2   8
ATOM      8  N   UNL     1      48.673   7.562  13.670  0.00  0.00    +0.000 N 
ATOM      9  H   UNL     1      48.785   8.206  14.448  0.00  0.00    +0.000 HD
BRANCH   8  14
ATOM     10  C   UNL     1      52.073   7.908  10.873  0.00  0.00    +0.000 C 
ATOM     11  C   UNL     1      50.907   8.709  11.451  0.00  0.00    +0.000 C 
ATOM     12  C   UNL     1      50.881  10.136  10.916  0.00  0.00    +0.000 C 
ATOM     13  C   UNL     1      50.799   8.613  12.997  0.00  0.00    +0.000 C 
ATOM     14  C   UNL     1      49.803   7.439  12.810  0.00  0.00    +0.000 C 
ATOM     15  C   UNL     1      49.530   7.981  11.389  0.00  0.00    +0.000 C 
ENDBRANCH   8  14
ENDBRANCH   2   8
ENDBRANCH   1   6
BRANCH   1  16
ATOM     16  C   UNL     1      43.684   4.548  11.405  0.00  0.00    +0.000 C 
BRANCH  16  17
ATOM     17  N   UNL     1      43.727   4.844   9.972  0.00  0.00    +0.000 N 
ATOM     18  H   UNL     1      43.918   5.824   9.780  0.00  0.00    +0.000 HD
BRANCH  17  19
ATOM     19  C   UNL     1      44.554   3.994   9.206  0.00  0.00    +0.000 A 
ATOM     20  C   UNL     1      45.554   4.477   8.349  0.00  0.00    +0.000 A 
ATOM     21  C   UNL     1      46.418   3.613   7.672  0.00  0.00    +0.000 A 
ATOM     22  C   UNL     1      46.326   2.235   7.862  0.00  0.00    +0.000 A 
ATOM     23  C   UNL     1      45.345   1.730   8.722  0.00  0.00    +0.000 A 
ATOM     24  C   UNL     1      44.479   2.607   9.396  0.00  0.00    +0.000 A 
BRANCH  22  25
ATOM     25  C   UNL     1      47.287   1.370   7.130  0.00  0.00    +0.000 C 
ATOM     26  N   UNL     1      48.364   1.971   6.544  0.00  0.00    +0.000 N 
ATOM     27  O   UNL     1      47.104   0.165   7.014  0.00  0.00    +0.000 OA
ATOM     28  H   UNL     1      48.455   2.971   6.446  0.00  0.00    +0.000 HD
ATOM     29  H   UNL     1      48.940   1.382   5.957  0.00  0.00    +0.000 HD
ENDBRANCH  22  25
ENDBRANCH  17  19
ENDBRANCH  16  17
ENDBRANCH   1  16
TORSDOF 7
ENDMDL
MODEL 4
REMARK VINA RESULT:    -7.491      1.753      2.527
REMARK INTER + INTRA:         -11.448
REMARK INTER:                 -10.763
REMARK INTRA:                  -0.685
REMARK UNBOUND:                -0.891
REMARK  Name = 
REMARK  9 active torsions:
REMARK  status: ('A' for Active; 'I' for Inactive)
REMARK    1  A    between atoms: C_1  and  C_2
REMARK    2  A    between atoms: C_2  and  C_3
REMARK    3  A    between atoms: C_5  and  N_6
REMARK    4  A    between atoms: N_6  and  C_7
REMARK    5  A    between atoms: C_11  and  C_12
REMARK    6  A    between atoms: C_12  and  C_13
REMARK    7  A    between atoms: C_13  and  N_14
REMARK    8  A    between atoms: N_14  and  C_15
REMARK    9  A    between atoms: C_18  and  C_19
REMARK                            x       y       z     vdW  Elec       q    Type
REMARK                         _______ _______ _______ _____ _____    ______ ____
ROOT
ATOM      1  C   UNL     1      45.704   5.202  11.544  0.00  0.00    +0.000 C 
ENDROOT
BRANCH   1   6
ATOM      2  C   UNL     1      47.684   7.702  13.716  0.00  0.00    +0.000 A 
ATOM      3  C   UNL     1      46.875   8.833  13.592  0.00  0.00    +0.000 A 
ATOM      4  C   UNL     1      45.676   8.774  12.880  0.00  0.00    +0.000 A 
ATOM      5  C   UNL     1      45.294   7.590  12.240  0.00  0.00    +0.000 A 
ATOM      6  C   UNL     1      46.104   6.451  12.314  0.00  0.00    +0.000 A 
ATOM      7  C   UNL     1      47.281   6.524  13.081  0.00  0.00    +0.000 A 
BRANCH   2   8
ATOM      8  N   UNL     1      48.936   7.721  14.351  0.00  0.00    +0.000 N 
ATOM      9  H   UNL     1      49.617   8.283  13.846  0.00  0.00    +0.000 HD
BRANCH   8  14
ATOM     10  C   UNL     1      50.563   4.940  17.371  0.00  0.00    +0.000 C 
ATOM     11  C   UNL     1      50.102   6.386  17.195  0.00  0.00    +0.000 C 
ATOM     12  C   UNL     1      50.207   7.175  18.495  0.00  0.00    +0.000 C 
ATOM     13  C   UNL     1      48.724   6.514  16.489  0.00  0.00    +0.000 C 
ATOM     14  C   UNL     1      49.479   6.668  15.143  0.00  0.00    +0.000 C 
ATOM     15  C   UNL     1      50.713   7.113  15.958  0.00  0.00    +0.000 C 
ENDBRANCH   8  14
ENDBRANCH   2   8
ENDBRANCH   1   6
BRANCH   1  16
ATOM     16  C   UNL     1      44.189   5.013  11.403  0.00  0.00    +0.000 C 
BRANCH  16  17
ATOM     17  N   UNL     1      43.755   4.850  10.014  0.00  0.00    +0.000 N 
ATOM     18  H   UNL     1      43.569   5.737   9.554  0.00  0.00    +0.000 HD
BRANCH  17  19
ATOM     19  C   UNL     1      44.575   4.016   9.222  0.00  0.00    +0.000 A 
ATOM     20  C   UNL     1      45.514   4.520   8.309  0.00  0.00    +0.000 A 
ATOM     21  C   UNL     1      46.375   3.676   7.604  0.00  0.00    +0.000 A 
ATOM     22  C   UNL     1      46.343   2.299   7.820  0.00  0.00    +0.000 A 
ATOM     23  C   UNL     1      45.425   1.774   8.735  0.00  0.00    +0.000 A 
ATOM     24  C   UNL     1      44.560   2.631   9.437  0.00  0.00    +0.000 A 
BRANCH  22  25
ATOM     25  C   UNL     1      47.299   1.457   7.056  0.00  0.00    +0.000 C 
ATOM     26  N   UNL     1      48.416   2.059   6.553  0.00  0.00    +0.000 N 
ATOM     27  O   UNL     1      47.078   0.271   6.841  0.00  0.00    +0.000 OA
ATOM     28  H   UNL     1      48.546   3.060   6.535  0.00  0.00    +0.000 HD
ATOM     29  H   UNL     1      48.991   1.495   5.942  0.00  0.00    +0.000 HD
ENDBRANCH  22  25
ENDBRANCH  17  19
ENDBRANCH  16  17
ENDBRANCH   1  16
TORSDOF 7
ENDMDL
MODEL 5
REMARK VINA RESULT:    -7.190      3.176      4.896
REMARK INTER + INTRA:         -11.023
REMARK INTER:                 -10.125
REMARK INTRA:                  -0.898
REMARK UNBOUND:                -0.891
REMARK  Name = 
REMARK  9 active torsions:
REMARK  status: ('A' for Active; 'I' for Inactive)
REMARK    1  A    between atoms: C_1  and  C_2
REMARK    2  A    between atoms: C_2  and  C_3
REMARK    3  A    between atoms: C_5  and  N_6
REMARK    4  A    between atoms: N_6  and  C_7
REMARK    5  A    between atoms: C_11  and  C_12
REMARK    6  A    between atoms: C_12  and  C_13
REMARK    7  A    between atoms: C_13  and  N_14
REMARK    8  A    between atoms: N_14  and  C_15
REMARK    9  A    between atoms: C_18  and  C_19
REMARK                            x       y       z     vdW  Elec       q    Type
REMARK                         _______ _______ _______ _____ _____    ______ ____
ROOT
ATOM      1  C   UNL     1      45.114   6.654  11.558  0.00  0.00    +0.000 C 
ENDROOT
BRANCH   1   6
ATOM      2  C   UNL     1      48.633   7.739  12.709  0.00  0.00    +0.000 A 
ATOM      3  C   UNL     1      48.824   6.866  13.780  0.00  0.00    +0.000 A 
ATOM      4  C   UNL     1      47.868   5.897  14.086  0.00  0.00    +0.000 A 
ATOM      5  C   UNL     1      46.681   5.820  13.348  0.00  0.00    +0.000 A 
ATOM      6  C   UNL     1      46.445   6.708  12.291  0.00  0.00    +0.000 A 
ATOM      7  C   UNL     1      47.448   7.641  11.974  0.00  0.00    +0.000 A 
BRANCH   2   8
ATOM      8  N   UNL     1      49.521   8.784  12.403  0.00  0.00    +0.000 N 
ATOM      9  H   UNL     1      49.204   9.679  12.768  0.00  0.00    +0.000 HD
BRANCH   8  14
ATOM     10  C   UNL     1      52.645   8.795   9.282  0.00  0.00    +0.000 C 
ATOM     11  C   UNL     1      52.452   8.617  10.787  0.00  0.00    +0.000 C 
ATOM     12  C   UNL     1      53.769   8.322  11.495  0.00  0.00    +0.000 C 
ATOM     13  C   UNL     1      51.306   7.634  11.151  0.00  0.00    +0.000 C 
ATOM     14  C   UNL     1      50.351   8.853  11.247  0.00  0.00    +0.000 C 
ATOM     15  C   UNL     1      51.602   9.734  11.465  0.00  0.00    +0.000 C 
ENDBRANCH   8  14
ENDBRANCH   2   8
ENDBRANCH   1   6
BRANCH   1  16
ATOM     16  C   UNL     1      44.564   5.236  11.362  0.00  0.00    +0.000 C 
BRANCH  16  17
ATOM     17  N   UNL     1      44.020   5.008  10.022  0.00  0.00    +0.000 N 
ATOM     18  H   UNL     1      43.784   5.873   9.543  0.00  0.00    +0.000 HD
BRANCH  17  19
ATOM     19  C   UNL     1      44.784   4.151   9.201  0.00  0.00    +0.000 A 
ATOM     20  C   UNL     1      45.788   4.620   8.340  0.00  0.00    +0.000 A 
ATOM     21  C   UNL     1      46.590   3.743   7.605  0.00  0.00    +0.000 A 
ATOM     22  C   UNL     1      46.431   2.364   7.739  0.00  0.00    +0.000 A 
ATOM     23  C   UNL     1      45.446   1.873   8.601  0.00  0.00    +0.000 A 
ATOM     24  C   UNL     1      44.642   2.762   9.334  0.00  0.00    +0.000 A 
BRANCH  22  25
ATOM     25  C   UNL     1      47.329   1.484   6.948  0.00  0.00    +0.000 C 
ATOM     26  N   UNL     1      48.391   2.064   6.315  0.00  0.00    +0.000 N 
ATOM     27  O   UNL     1      47.107   0.286   6.825  0.00  0.00    +0.000 OA
ATOM     28  H   UNL     1      48.505   3.063   6.225  0.00  0.00    +0.000 HD
ATOM     29  H   UNL     1      48.919   1.468   5.691  0.00  0.00    +0.000 HD
ENDBRANCH  22  25
ENDBRANCH  17  19
ENDBRANCH  16  17
ENDBRANCH   1  16
TORSDOF 7
ENDMDL
MODEL 6
REMARK VINA RESULT:    -7.080      2.773      7.896
REMARK INTER + INTRA:         -10.868
REMARK INTER:                  -9.771
REMARK INTRA:                  -1.097
REMARK UNBOUND:                -0.891
REMARK  Name = 
REMARK  9 active torsions:
REMARK  status: ('A' for Active; 'I' for Inactive)
REMARK    1  A    between atoms: C_1  and  C_2
REMARK    2  A    between atoms: C_2  and  C_3
REMARK    3  A    between atoms: C_5  and  N_6
REMARK    4  A    between atoms: N_6  and  C_7
REMARK    5  A    between atoms: C_11  and  C_12
REMARK    6  A    between atoms: C_12  and  C_13
REMARK    7  A    between atoms: C_13  and  N_14
REMARK    8  A    between atoms: N_14  and  C_15
REMARK    9  A    between atoms: C_18  and  C_19
REMARK                            x       y       z     vdW  Elec       q    Type
REMARK                         _______ _______ _______ _____ _____    ______ ____
ROOT
ATOM      1  C   UNL     1      45.271   7.801  11.467  0.00  0.00    +0.000 C 
ENDROOT
BRANCH   1   6
ATOM      2  C   UNL     1      44.616   4.150  10.404  0.00  0.00    +0.000 A 
ATOM      3  C   UNL     1      43.416   3.909  11.073  0.00  0.00    +0.000 A 
ATOM      4  C   UNL     1      42.789   4.924  11.798  0.00  0.00    +0.000 A 
ATOM      5  C   UNL     1      43.385   6.186  11.902  0.00  0.00    +0.000 A 
ATOM      6  C   UNL     1      44.609   6.447  11.273  0.00  0.00    +0.000 A 
ATOM      7  C   UNL     1      45.191   5.421  10.508  0.00  0.00    +0.000 A 
BRANCH   2   8
ATOM      8  N   UNL     1      45.331   3.149   9.727  0.00  0.00    +0.000 N 
ATOM      9  H   UNL     1      46.162   2.857  10.235  0.00  0.00    +0.000 HD
BRANCH   8  14
ATOM     10  C   UNL     1      46.243   2.527   5.451  0.00  0.00    +0.000 C 
ATOM     11  C   UNL     1      46.916   2.637   6.818  0.00  0.00    +0.000 C 
ATOM     12  C   UNL     1      48.426   2.458   6.721  0.00  0.00    +0.000 C 
ATOM     13  C   UNL     1      46.245   1.757   7.909  0.00  0.00    +0.000 C 
ATOM     14  C   UNL     1      45.391   2.988   8.312  0.00  0.00    +0.000 C 
ATOM     15  C   UNL     1      46.474   3.874   7.658  0.00  0.00    +0.000 C 
ENDBRANCH   8  14
ENDBRANCH   2   8
ENDBRANCH   1   6
BRANCH   1  16
ATOM     16  C   UNL     1      46.169   7.886  12.708  0.00  0.00    +0.000 C 
BRANCH  16  17
ATOM     17  N   UNL     1      47.328   6.994  12.643  0.00  0.00    +0.000 N 
ATOM     18  H   UNL     1      48.193   7.489  12.440  0.00  0.00    +0.000 HD
BRANCH  17  19
ATOM     19  C   UNL     1      47.476   6.118  13.740  0.00  0.00    +0.000 A 
ATOM     20  C   UNL     1      48.236   6.443  14.874  0.00  0.00    +0.000 A 
ATOM     21  C   UNL     1      48.292   5.596  15.984  0.00  0.00    +0.000 A 
ATOM     22  C   UNL     1      47.557   4.412  16.003  0.00  0.00    +0.000 A 
ATOM     23  C   UNL     1      46.782   4.073  14.891  0.00  0.00    +0.000 A 
ATOM     24  C   UNL     1      46.734   4.929  13.777  0.00  0.00    +0.000 A 
BRANCH  22  25
ATOM     25  C   UNL     1      47.642   3.565  17.221  0.00  0.00    +0.000 C 
ATOM     26  N   UNL     1      48.812   3.580  17.926  0.00  0.00    +0.000 N 
ATOM     27  O   UNL     1      46.715   2.843  17.565  0.00  0.00    +0.000 OA
ATOM     28  H   UNL     1      49.661   4.001  17.580  0.00  0.00    +0.000 HD
ATOM     29  H   UNL     1      48.886   2.912  18.682  0.00  0.00    +0.000 HD
ENDBRANCH  22  25
ENDBRANCH  17  19
ENDBRANCH  16  17
ENDBRANCH   1  16
TORSDOF 7
ENDMDL
MODEL 7
REMARK VINA RESULT:    -6.979      3.234      8.987
REMARK INTER + INTRA:         -10.727
REMARK INTER:                 -10.045
REMARK INTRA:                  -0.681
REMARK UNBOUND:                -0.891
REMARK  Name = 
REMARK  9 active torsions:
REMARK  status: ('A' for Active; 'I' for Inactive)
REMARK    1  A    between atoms: C_1  and  C_2
REMARK    2  A    between atoms: C_2  and  C_3
REMARK    3  A    between atoms: C_5  and  N_6
REMARK    4  A    between atoms: N_6  and  C_7
REMARK    5  A    between atoms: C_11  and  C_12
REMARK    6  A    between atoms: C_12  and  C_13
REMARK    7  A    between atoms: C_13  and  N_14
REMARK    8  A    between atoms: N_14  and  C_15
REMARK    9  A    between atoms: C_18  and  C_19
REMARK                            x       y       z     vdW  Elec       q    Type
REMARK                         _______ _______ _______ _____ _____    ______ ____
ROOT
ATOM      1  C   UNL     1      46.421   6.408  13.084  0.00  0.00    +0.000 C 
ENDROOT
BRANCH   1   6
ATOM      2  C   UNL     1      44.363   4.954  10.161  0.00  0.00    +0.000 A 
ATOM      3  C   UNL     1      43.129   4.782  10.789  0.00  0.00    +0.000 A 
ATOM      4  C   UNL     1      42.940   5.190  12.110  0.00  0.00    +0.000 A 
ATOM      5  C   UNL     1      44.003   5.736  12.838  0.00  0.00    +0.000 A 
ATOM      6  C   UNL     1      45.264   5.886  12.246  0.00  0.00    +0.000 A 
ATOM      7  C   UNL     1      45.411   5.513  10.899  0.00  0.00    +0.000 A 
BRANCH   2   8
ATOM      8  N   UNL     1      44.636   4.491   8.864  0.00  0.00    +0.000 N 
ATOM      9  H   UNL     1      43.823   4.545   8.256  0.00  0.00    +0.000 HD
BRANCH   8  14
ATOM     10  C   UNL     1      47.560   1.668   7.136  0.00  0.00    +0.000 C 
ATOM     11  C   UNL     1      46.624   2.813   6.751  0.00  0.00    +0.000 C 
ATOM     12  C   UNL     1      46.711   3.139   5.265  0.00  0.00    +0.000 C 
ATOM     13  C   UNL     1      46.752   4.053   7.678  0.00  0.00    +0.000 C 
ATOM     14  C   UNL     1      45.586   3.483   8.527  0.00  0.00    +0.000 C 
ATOM     15  C   UNL     1      45.167   2.663   7.286  0.00  0.00    +0.000 C 
ENDBRANCH   8  14
ENDBRANCH   2   8
ENDBRANCH   1   6
BRANCH   1  16
ATOM     16  C   UNL     1      47.328   5.309  13.651  0.00  0.00    +0.000 C 
BRANCH  16  17
ATOM     17  N   UNL     1      46.721   4.580  14.767  0.00  0.00    +0.000 N 
ATOM     18  H   UNL     1      46.391   3.656  14.498  0.00  0.00    +0.000 HD
BRANCH  17  19
ATOM     19  C   UNL     1      47.496   4.532  15.946  0.00  0.00    +0.000 A 
ATOM     20  C   UNL     1      48.255   5.621  16.400  0.00  0.00    +0.000 A 
ATOM     21  C   UNL     1      48.941   5.578  17.617  0.00  0.00    +0.000 A 
ATOM     22  C   UNL     1      48.856   4.451  18.432  0.00  0.00    +0.000 A 
ATOM     23  C   UNL     1      48.094   3.358  18.008  0.00  0.00    +0.000 A 
ATOM     24  C   UNL     1      47.411   3.409  16.781  0.00  0.00    +0.000 A 
BRANCH  22  25
ATOM     25  C   UNL     1      49.590   4.475  19.724  0.00  0.00    +0.000 C 
ATOM     26  N   UNL     1      48.880   4.222  20.863  0.00  0.00    +0.000 N 
ATOM     27  O   UNL     1      50.781   4.754  19.779  0.00  0.00    +0.000 OA
ATOM     28  H   UNL     1      47.872   4.180  20.890  0.00  0.00    +0.000 HD
ATOM     29  H   UNL     1      49.374   4.356  21.736  0.00  0.00    +0.000 HD
ENDBRANCH  22  25
ENDBRANCH  17  19
ENDBRANCH  16  17
ENDBRANCH   1  16
TORSDOF 7
ENDMDL
MODEL 8
REMARK VINA RESULT:    -6.837      2.905      4.007
REMARK INTER + INTRA:         -10.526
REMARK INTER:                  -9.828
REMARK INTRA:                  -0.698
REMARK UNBOUND:                -0.891
REMARK  Name = 
REMARK  9 active torsions:
REMARK  status: ('A' for Active; 'I' for Inactive)
REMARK    1  A    between atoms: C_1  and  C_2
REMARK    2  A    between atoms: C_2  and  C_3
REMARK    3  A    between atoms: C_5  and  N_6
REMARK    4  A    between atoms: N_6  and  C_7
REMARK    5  A    between atoms: C_11  and  C_12
REMARK    6  A    between atoms: C_12  and  C_13
REMARK    7  A    between atoms: C_13  and  N_14
REMARK    8  A    between atoms: N_14  and  C_15
REMARK    9  A    between atoms: C_18  and  C_19
REMARK                            x       y       z     vdW  Elec       q    Type
REMARK                         _______ _______ _______ _____ _____    ______ ____
ROOT
ATOM      1  C   UNL     1      45.967   6.022  10.876  0.00  0.00    +0.000 C 
ENDROOT
BRANCH   1   6
ATOM      2  C   UNL     1      47.551   7.846  13.885  0.00  0.00    +0.000 A 
ATOM      3  C   UNL     1      47.796   6.764  14.731  0.00  0.00    +0.000 A 
ATOM      4  C   UNL     1      47.521   5.461  14.314  0.00  0.00    +0.000 A 
ATOM      5  C   UNL     1      46.950   5.228  13.058  0.00  0.00    +0.000 A 
ATOM      6  C   UNL     1      46.659   6.297  12.202  0.00  0.00    +0.000 A 
ATOM      7  C   UNL     1      46.994   7.595  12.628  0.00  0.00    +0.000 A 
BRANCH   2   8
ATOM      8  N   UNL     1      47.733   9.183  14.277  0.00  0.00    +0.000 N 
ATOM      9  H   UNL     1      46.894   9.741  14.146  0.00  0.00    +0.000 HD
BRANCH   8  14
ATOM     10  C   UNL     1      51.863  10.746  14.210  0.00  0.00    +0.000 C 
ATOM     11  C   UNL     1      51.068   9.463  14.448  0.00  0.00    +0.000 C 
ATOM     12  C   UNL     1      51.981   8.282  14.756  0.00  0.00    +0.000 C 
ATOM     13  C   UNL     1      50.015   9.175  13.344  0.00  0.00    +0.000 C 
ATOM     14  C   UNL     1      48.962   9.902  14.221  0.00  0.00    +0.000 C 
ATOM     15  C   UNL     1      49.873   9.618  15.437  0.00  0.00    +0.000 C 
ENDBRANCH   8  14
ENDBRANCH   2   8
ENDBRANCH   1   6
BRANCH   1  16
ATOM     16  C   UNL     1      44.527   5.515  11.016  0.00  0.00    +0.000 C 
BRANCH  16  17
ATOM     17  N   UNL     1      43.947   5.069   9.747  0.00  0.00    +0.000 N 
ATOM     18  H   UNL     1      43.729   5.842   9.123  0.00  0.00    +0.000 HD
BRANCH  17  19
ATOM     19  C   UNL     1      44.664   4.050   9.083  0.00  0.00    +0.000 A 
ATOM     20  C   UNL     1      45.635   4.318   8.107  0.00  0.00    +0.000 A 
ATOM     21  C   UNL     1      46.394   3.297   7.530  0.00  0.00    +0.000 A 
ATOM     22  C   UNL     1      46.224   1.976   7.943  0.00  0.00    +0.000 A 
ATOM     23  C   UNL     1      45.271   1.686   8.924  0.00  0.00    +0.000 A 
ATOM     24  C   UNL     1      44.511   2.720   9.496  0.00  0.00    +0.000 A 
BRANCH  22  25
ATOM     25  C   UNL     1      47.076   0.938   7.307  0.00  0.00    +0.000 C 
ATOM     26  N   UNL     1      46.795  -0.370   7.581  0.00  0.00    +0.000 N 
ATOM     27  O   UNL     1      48.027   1.237   6.596  0.00  0.00    +0.000 OA
ATOM     28  H   UNL     1      46.154  -0.659   8.306  0.00  0.00    +0.000 HD
ATOM     29  H   UNL     1      47.456  -1.052   7.232  0.00  0.00    +0.000 HD
ENDBRANCH  22  25
ENDBRANCH  17  19
ENDBRANCH  16  17
ENDBRANCH   1  16
TORSDOF 7
ENDMDL
MODEL 9
REMARK VINA RESULT:    -6.063      4.150      7.712
REMARK INTER + INTRA:          -9.435
REMARK INTER:                  -8.705
REMARK INTRA:                  -0.730
REMARK UNBOUND:                -0.891
REMARK  Name = 
REMARK  9 active torsions:
REMARK  status: ('A' for Active; 'I' for Inactive)
REMARK    1  A    between atoms: C_1  and  C_2
REMARK    2  A    between atoms: C_2  and  C_3
REMARK    3  A    between atoms: C_5  and  N_6
REMARK    4  A    between atoms: N_6  and  C_7
REMARK    5  A    between atoms: C_11  and  C_12
REMARK    6  A    between atoms: C_12  and  C_13
REMARK    7  A    between atoms: C_13  and  N_14
REMARK    8  A    between atoms: N_14  and  C_15
REMARK    9  A    between atoms: C_18  and  C_19
REMARK                            x       y       z     vdW  Elec       q    Type
REMARK                         _______ _______ _______ _____ _____    ______ ____
ROOT
ATOM      1  C   UNL     1      44.904   7.406  11.491  0.00  0.00    +0.000 C 
ENDROOT
BRANCH   1   6
ATOM      2  C   UNL     1      44.289   3.758  10.393  0.00  0.00    +0.000 A 
ATOM      3  C   UNL     1      43.757   3.231  11.570  0.00  0.00    +0.000 A 
ATOM      4  C   UNL     1      43.534   4.050  12.678  0.00  0.00    +0.000 A 
ATOM      5  C   UNL     1      43.886   5.403  12.636  0.00  0.00    +0.000 A 
ATOM      6  C   UNL     1      44.458   5.952  11.482  0.00  0.00    +0.000 A 
ATOM      7  C   UNL     1      44.624   5.115  10.364  0.00  0.00    +0.000 A 
BRANCH   2   8
ATOM      8  N   UNL     1      44.609   2.970   9.275  0.00  0.00    +0.000 N 
ATOM      9  H   UNL     1      43.982   2.177   9.170  0.00  0.00    +0.000 HD
BRANCH   8  14
ATOM     10  C   UNL     1      48.316   2.448   6.933  0.00  0.00    +0.000 C 
ATOM     11  C   UNL     1      46.800   2.545   6.774  0.00  0.00    +0.000 C 
ATOM     12  C   UNL     1      46.376   2.452   5.313  0.00  0.00    +0.000 C 
ATOM     13  C   UNL     1      46.175   3.746   7.537  0.00  0.00    +0.000 C 
ATOM     14  C   UNL     1      45.915   2.793   8.733  0.00  0.00    +0.000 C 
ATOM     15  C   UNL     1      45.989   1.619   7.732  0.00  0.00    +0.000 C 
ENDBRANCH   8  14
ENDBRANCH   2   8
ENDBRANCH   1   6
BRANCH   1  16
ATOM     16  C   UNL     1      45.342   7.916  12.869  0.00  0.00    +0.000 C 
BRANCH  16  17
ATOM     17  N   UNL     1      46.216   9.089  12.798  0.00  0.00    +0.000 N 
ATOM     18  H   UNL     1      46.214   9.632  13.658  0.00  0.00    +0.000 HD
BRANCH  17  19
ATOM     19  C   UNL     1      47.530   8.833  12.349  0.00  0.00    +0.000 A 
ATOM     20  C   UNL     1      48.349   9.828  11.794  0.00  0.00    +0.000 A 
ATOM     21  C   UNL     1      49.676   9.569  11.440  0.00  0.00    +0.000 A 
ATOM     22  C   UNL     1      50.232   8.311  11.666  0.00  0.00    +0.000 A 
ATOM     23  C   UNL     1      49.438   7.306  12.229  0.00  0.00    +0.000 A 
ATOM     24  C   UNL     1      48.104   7.575  12.578  0.00  0.00    +0.000 A 
BRANCH  22  25
ATOM     25  C   UNL     1      51.654   8.104  11.288  0.00  0.00    +0.000 C 
ATOM     26  N   UNL     1      52.570   7.999  12.295  0.00  0.00    +0.000 N 
ATOM     27  O   UNL     1      52.008   8.073  10.116  0.00  0.00    +0.000 OA
ATOM     28  H   UNL     1      52.360   8.211  13.259  0.00  0.00    +0.000 HD
ATOM     29  H   UNL     1      53.541   7.975  12.014  0.00  0.00    +0.000 HD
ENDBRANCH  22  25
ENDBRANCH  17  19
ENDBRANCH  16  17
ENDBRANCH   1  16
TORSDOF 7
ENDMDL
