MODEL 1
REMARK VINA RESULT:    -9.428      0.000      0.000
REMARK INTER + INTRA:         -13.898
REMARK INTER:                 -12.734
REMARK INTRA:                  -1.163
REMARK UNBOUND:                -1.163
REMARK  Name = 
REMARK  6 active torsions:
REMARK  status: ('A' for Active; 'I' for Inactive)
REMARK    1  A    between atoms: C_2  and  C_4
REMARK    2  A    between atoms: C_7  and  N_8
REMARK    3  A    between atoms: N_8  and  C_9
REMARK    4  A    between atoms: C_9  and  C_10
REMARK    5  A    between atoms: C_10  and  C_13
REMARK    6  A    between atoms: C_17  and  C_18
REMARK                            x       y       z     vdW  Elec       q    Type
REMARK                         _______ _______ _______ _____ _____    ______ ____
ROOT
ATOM      1  C   UNL     1      43.538   5.323  12.277  0.00  0.00    +0.000 C 
ATOM      2  F   UNL     1      43.023   6.394  11.603  0.00  0.00    +0.000 F 
ATOM      3  F   UNL     1      42.794   5.223  13.421  0.00  0.00    +0.000 F 
ENDROOT
BRANCH   1   4
ATOM      4  C   UNL     1      45.018   5.491  12.560  0.00  0.00    +0.000 A 
ATOM      5  C   UNL     1      45.796   6.374  11.804  0.00  0.00    +0.000 A 
ATOM      6  C   UNL     1      47.133   6.584  12.132  0.00  0.00    +0.000 A 
ATOM      7  C   UNL     1      47.695   5.926  13.229  0.00  0.00    +0.000 A 
ATOM      8  C   UNL     1      46.944   5.036  14.018  0.00  0.00    +0.000 A 
ATOM      9  C   UNL     1      45.605   4.818  13.648  0.00  0.00    +0.000 A 
BRANCH   8  10
ATOM     10  C   UNL     1      47.526   4.415  15.225  0.00  0.00    +0.000 A 
ATOM     11  C   UNL     1      47.949   5.150  16.333  0.00  0.00    +0.000 A 
ATOM     12  C   UNL     1      48.560   4.490  17.398  0.00  0.00    +0.000 A 
ATOM     13  C   UNL     1      48.730   3.115  17.339  0.00  0.00    +0.000 A 
ATOM     14  C   UNL     1      48.273   2.452  16.215  0.00  0.00    +0.000 A 
ATOM     15  N   UNL     1      47.678   3.066  15.170  0.00  0.00    +0.000 NA
ENDBRANCH   8  10
ENDBRANCH   1   4
BRANCH   1  16
ATOM     16  C   UNL     1      43.315   4.037  11.438  0.00  0.00    +0.000 C 
BRANCH  16  17
ATOM     17  N   UNL     1      43.449   4.254   9.989  0.00  0.00    +0.000 N 
ATOM     18  H   UNL     1      42.567   4.250   9.478  0.00  0.00    +0.000 HD
BRANCH  17  22
ATOM     19  C   UNL     1      46.518   2.479   7.706  0.00  0.00    +0.000 A 
ATOM     20  C   UNL     1      46.342   3.865   7.662  0.00  0.00    +0.000 A 
ATOM     21  C   UNL     1      45.341   4.468   8.430  0.00  0.00    +0.000 A 
ATOM     22  C   UNL     1      44.518   3.716   9.279  0.00  0.00    +0.000 A 
ATOM     23  C   UNL     1      44.699   2.327   9.298  0.00  0.00    +0.000 A 
ATOM     24  C   UNL     1      45.683   1.709   8.521  0.00  0.00    +0.000 A 
BRANCH  19  26
ATOM     25  N   UNL     1      48.572   2.562   6.404  0.00  0.00    +0.000 N 
ATOM     26  C   UNL     1      47.541   1.797   6.877  0.00  0.00    +0.000 C 
ATOM     27  O   UNL     1      47.490   0.597   6.647  0.00  0.00    +0.000 OA
ATOM     28  H   UNL     1      49.314   2.066   5.926  0.00  0.00    +0.000 HD
ATOM     29  H   UNL     1      48.777   3.481   6.767  0.00  0.00    +0.000 HD
ENDBRANCH  19  26
ENDBRANCH  17  22
ENDBRANCH  16  17
ENDBRANCH   1  16
TORSDOF 6
ENDMDL
MODEL 2
REMARK VINA RESULT:    -8.540      2.328      4.191
REMARK INTER + INTRA:         -12.700
REMARK INTER:                 -11.621
REMARK INTRA:                  -1.079
REMARK UNBOUND:                -1.163
REMARK  Name = 
REMARK  6 active torsions:
REMARK  status: ('A' for Active; 'I' for Inactive)
REMARK    1  A    between atoms: C_2  and  C_4
REMARK    2  A    between atoms: C_7  and  N_8
REMARK    3  A    between atoms: N_8  and  C_9
REMARK    4  A    between atoms: C_9  and  C_10
REMARK    5  A    between atoms: C_10  and  C_13
REMARK    6  A    between atoms: C_17  and  C_18
REMARK                            x       y       z     vdW  Elec       q    Type
REMARK                         _______ _______ _______ _____ _____    ______ ____
ROOT
ATOM      1  C   UNL     1      43.430   4.666  12.655  0.00  0.00    +0.000 C 
ATOM      2  F   UNL     1      42.377   5.379  13.154  0.00  0.00    +0.000 F 
ATOM      3  F   UNL     1      43.342   3.433  13.240  0.00  0.00    +0.000 F 
ENDROOT
BRANCH   1   4
ATOM      4  C   UNL     1      44.756   5.346  12.932  0.00  0.00    +0.000 A 
ATOM      5  C   UNL     1      45.851   4.617  13.408  0.00  0.00    +0.000 A 
ATOM      6  C   UNL     1      47.085   5.239  13.573  0.00  0.00    +0.000 A 
ATOM      7  C   UNL     1      47.239   6.588  13.246  0.00  0.00    +0.000 A 
ATOM      8  C   UNL     1      46.164   7.354  12.758  0.00  0.00    +0.000 A 
ATOM      9  C   UNL     1      44.920   6.712  12.628  0.00  0.00    +0.000 A 
BRANCH   8  10
ATOM     10  C   UNL     1      46.362   8.755  12.335  0.00  0.00    +0.000 A 
ATOM     11  C   UNL     1      45.309   9.609  12.007  0.00  0.00    +0.000 A 
ATOM     12  C   UNL     1      45.590  10.893  11.542  0.00  0.00    +0.000 A 
ATOM     13  C   UNL     1      46.911  11.299  11.420  0.00  0.00    +0.000 A 
ATOM     14  C   UNL     1      47.901  10.403  11.778  0.00  0.00    +0.000 A 
ATOM     15  N   UNL     1      47.657   9.154  12.231  0.00  0.00    +0.000 NA
ENDBRANCH   8  10
ENDBRANCH   1   4
BRANCH   1  16
ATOM     16  C   UNL     1      43.248   4.491  11.124  0.00  0.00    +0.000 C 
BRANCH  16  17
ATOM     17  N   UNL     1      43.571   3.137  10.648  0.00  0.00    +0.000 N 
ATOM     18  H   UNL     1      43.641   2.436  11.385  0.00  0.00    +0.000 HD
BRANCH  17  22
ATOM     19  C   UNL     1      46.425   2.679   7.578  0.00  0.00    +0.000 A 
ATOM     20  C   UNL     1      45.918   1.546   8.220  0.00  0.00    +0.000 A 
ATOM     21  C   UNL     1      44.956   1.683   9.225  0.00  0.00    +0.000 A 
ATOM     22  C   UNL     1      44.455   2.940   9.592  0.00  0.00    +0.000 A 
ATOM     23  C   UNL     1      44.987   4.065   8.949  0.00  0.00    +0.000 A 
ATOM     24  C   UNL     1      45.963   3.943   7.955  0.00  0.00    +0.000 A 
BRANCH  19  26
ATOM     25  N   UNL     1      47.195   3.132   5.315  0.00  0.00    +0.000 N 
ATOM     26  C   UNL     1      47.475   2.580   6.535  0.00  0.00    +0.000 C 
ATOM     27  O   UNL     1      48.558   2.058   6.757  0.00  0.00    +0.000 OA
ATOM     28  H   UNL     1      47.955   3.147   4.646  0.00  0.00    +0.000 HD
ATOM     29  H   UNL     1      46.429   3.773   5.171  0.00  0.00    +0.000 HD
ENDBRANCH  19  26
ENDBRANCH  17  22
ENDBRANCH  16  17
ENDBRANCH   1  16
TORSDOF 6
ENDMDL
MODEL 3
REMARK VINA RESULT:    -8.476      1.981      3.385
REMARK INTER + INTRA:         -12.613
REMARK INTER:                 -11.528
REMARK INTRA:                  -1.085
REMARK UNBOUND:                -1.163
REMARK  Name = 
REMARK  6 active torsions:
REMARK  status: ('A' for Active; 'I' for Inactive)
REMARK    1  A    between atoms: C_2  and  C_4
REMARK    2  A    between atoms: C_7  and  N_8
REMARK    3  A    between atoms: N_8  and  C_9
REMARK    4  A    between atoms: C_9  and  C_10
REMARK    5  A    between atoms: C_10  and  C_13
REMARK    6  A    between atoms: C_17  and  C_18
REMARK                            x       y       z     vdW  Elec       q    Type
REMARK                         _______ _______ _______ _____ _____    ______ ____
ROOT
ATOM      1  C   UNL     1      43.569   5.850  12.101  0.00  0.00    +0.000 C 
ATOM      2  F   UNL     1      43.485   7.039  11.434  0.00  0.00    +0.000 F 
ATOM      3  F   UNL     1      42.585   5.896  13.050  0.00  0.00    +0.000 F 
ENDROOT
BRANCH   1   4
ATOM      4  C   UNL     1      44.945   5.636  12.701  0.00  0.00    +0.000 A 
ATOM      5  C   UNL     1      45.300   4.404  13.261  0.00  0.00    +0.000 A 
ATOM      6  C   UNL     1      46.594   4.196  13.728  0.00  0.00    +0.000 A 
ATOM      7  C   UNL     1      47.549   5.211  13.621  0.00  0.00    +0.000 A 
ATOM      8  C   UNL     1      47.234   6.461  13.059  0.00  0.00    +0.000 A 
ATOM      9  C   UNL     1      45.911   6.658  12.622  0.00  0.00    +0.000 A 
BRANCH   8  10
ATOM     10  C   UNL     1      48.274   7.493  12.874  0.00  0.00    +0.000 A 
ATOM     11  C   UNL     1      48.163   8.530  11.947  0.00  0.00    +0.000 A 
ATOM     12  C   UNL     1      49.227   9.416  11.783  0.00  0.00    +0.000 A 
ATOM     13  C   UNL     1      50.373   9.253  12.548  0.00  0.00    +0.000 A 
ATOM     14  C   UNL     1      50.404   8.211  13.456  0.00  0.00    +0.000 A 
ATOM     15  N   UNL     1      49.389   7.339  13.635  0.00  0.00    +0.000 NA
ENDBRANCH   8  10
ENDBRANCH   1   4
BRANCH   1  16
ATOM     16  C   UNL     1      43.247   4.691  11.122  0.00  0.00    +0.000 C 
BRANCH  16  17
ATOM     17  N   UNL     1      43.785   4.901   9.769  0.00  0.00    +0.000 N 
ATOM     18  H   UNL     1      43.174   5.433   9.149  0.00  0.00    +0.000 HD
BRANCH  17  22
ATOM     19  C   UNL     1      46.227   1.996   7.932  0.00  0.00    +0.000 A 
ATOM     20  C   UNL     1      45.209   1.590   8.798  0.00  0.00    +0.000 A 
ATOM     21  C   UNL     1      44.379   2.542   9.399  0.00  0.00    +0.000 A 
ATOM     22  C   UNL     1      44.520   3.910   9.127  0.00  0.00    +0.000 A 
ATOM     23  C   UNL     1      45.557   4.299   8.269  0.00  0.00    +0.000 A 
ATOM     24  C   UNL     1      46.405   3.359   7.677  0.00  0.00    +0.000 A 
BRANCH  19  26
ATOM     25  N   UNL     1      46.963  -0.300   7.606  0.00  0.00    +0.000 N 
ATOM     26  C   UNL     1      47.154   1.021   7.306  0.00  0.00    +0.000 C 
ATOM     27  O   UNL     1      48.032   1.372   6.531  0.00  0.00    +0.000 OA
ATOM     28  H   UNL     1      47.535  -0.961   7.096  0.00  0.00    +0.000 HD
ATOM     29  H   UNL     1      46.116  -0.643   8.035  0.00  0.00    +0.000 HD
ENDBRANCH  19  26
ENDBRANCH  17  22
ENDBRANCH  16  17
ENDBRANCH   1  16
TORSDOF 6
ENDMDL
MODEL 4
REMARK VINA RESULT:    -7.798      2.866      7.356
REMARK INTER + INTRA:         -11.697
REMARK INTER:                 -10.589
REMARK INTRA:                  -1.108
REMARK UNBOUND:                -1.163
REMARK  Name = 
REMARK  6 active torsions:
REMARK  status: ('A' for Active; 'I' for Inactive)
REMARK    1  A    between atoms: C_2  and  C_4
REMARK    2  A    between atoms: C_7  and  N_8
REMARK    3  A    between atoms: N_8  and  C_9
REMARK    4  A    between atoms: C_9  and  C_10
REMARK    5  A    between atoms: C_10  and  C_13
REMARK    6  A    between atoms: C_17  and  C_18
REMARK                            x       y       z     vdW  Elec       q    Type
REMARK                         _______ _______ _______ _____ _____    ______ ____
ROOT
ATOM      1  C   UNL     1      45.529   7.569  11.963  0.00  0.00    +0.000 C 
ATOM      2  F   UNL     1      45.131   7.943  13.215  0.00  0.00    +0.000 F 
ATOM      3  F   UNL     1      45.208   8.621  11.150  0.00  0.00    +0.000 F 
ENDROOT
BRANCH   1   4
ATOM      4  C   UNL     1      44.871   6.275  11.524  0.00  0.00    +0.000 A 
ATOM      5  C   UNL     1      43.606   5.916  12.002  0.00  0.00    +0.000 A 
ATOM      6  C   UNL     1      42.978   4.770  11.522  0.00  0.00    +0.000 A 
ATOM      7  C   UNL     1      43.601   3.986  10.548  0.00  0.00    +0.000 A 
ATOM      8  C   UNL     1      44.870   4.316  10.038  0.00  0.00    +0.000 A 
ATOM      9  C   UNL     1      45.497   5.462  10.560  0.00  0.00    +0.000 A 
BRANCH   8  10
ATOM     10  C   UNL     1      45.478   3.528   8.948  0.00  0.00    +0.000 A 
ATOM     11  C   UNL     1      45.564   2.136   8.970  0.00  0.00    +0.000 A 
ATOM     12  C   UNL     1      46.225   1.475   7.934  0.00  0.00    +0.000 A 
ATOM     13  C   UNL     1      46.779   2.215   6.899  0.00  0.00    +0.000 A 
ATOM     14  C   UNL     1      46.641   3.590   6.938  0.00  0.00    +0.000 A 
ATOM     15  N   UNL     1      46.006   4.255   7.928  0.00  0.00    +0.000 NA
ENDBRANCH   8  10
ENDBRANCH   1   4
BRANCH   1  16
ATOM     16  C   UNL     1      47.070   7.395  11.948  0.00  0.00    +0.000 C 
BRANCH  16  17
ATOM     17  N   UNL     1      47.692   7.574  13.270  0.00  0.00    +0.000 N 
ATOM     18  H   UNL     1      48.493   8.204  13.278  0.00  0.00    +0.000 HD
BRANCH  17  22
ATOM     19  C   UNL     1      47.902   4.509  16.158  0.00  0.00    +0.000 A 
ATOM     20  C   UNL     1      47.163   4.303  14.990  0.00  0.00    +0.000 A 
ATOM     21  C   UNL     1      47.102   5.304  14.015  0.00  0.00    +0.000 A 
ATOM     22  C   UNL     1      47.796   6.512  14.163  0.00  0.00    +0.000 A 
ATOM     23  C   UNL     1      48.518   6.707  15.348  0.00  0.00    +0.000 A 
ATOM     24  C   UNL     1      48.572   5.723  16.339  0.00  0.00    +0.000 A 
BRANCH  19  26
ATOM     25  N   UNL     1      46.794   2.846  17.545  0.00  0.00    +0.000 N 
ATOM     26  C   UNL     1      47.960   3.489  17.234  0.00  0.00    +0.000 C 
ATOM     27  O   UNL     1      49.007   3.209  17.801  0.00  0.00    +0.000 OA
ATOM     28  H   UNL     1      46.867   2.084  18.208  0.00  0.00    +0.000 HD
ATOM     29  H   UNL     1      45.982   2.872  16.946  0.00  0.00    +0.000 HD
ENDBRANCH  19  26
ENDBRANCH  17  22
ENDBRANCH  16  17
ENDBRANCH   1  16
TORSDOF 6
ENDMDL
MODEL 5
REMARK VINA RESULT:    -7.643      3.575      6.908
REMARK INTER + INTRA:         -11.488
REMARK INTER:                 -10.527
REMARK INTRA:                  -0.961
REMARK UNBOUND:                -1.163
REMARK  Name = 
REMARK  6 active torsions:
REMARK  status: ('A' for Active; 'I' for Inactive)
REMARK    1  A    between atoms: C_2  and  C_4
REMARK    2  A    between atoms: C_7  and  N_8
REMARK    3  A    between atoms: N_8  and  C_9
REMARK    4  A    between atoms: C_9  and  C_10
REMARK    5  A    between atoms: C_10  and  C_13
REMARK    6  A    between atoms: C_17  and  C_18
REMARK                            x       y       z     vdW  Elec       q    Type
REMARK                         _______ _______ _______ _____ _____    ______ ____
ROOT
ATOM      1  C   UNL     1      44.376   6.457  11.444  0.00  0.00    +0.000 C 
ATOM      2  F   UNL     1      43.134   7.024  11.384  0.00  0.00    +0.000 F 
ATOM      3  F   UNL     1      45.157   7.206  10.608  0.00  0.00    +0.000 F 
ENDROOT
BRANCH   1   4
ATOM      4  C   UNL     1      44.347   4.992  11.053  0.00  0.00    +0.000 A 
ATOM      5  C   UNL     1      43.459   4.103  11.669  0.00  0.00    +0.000 A 
ATOM      6  C   UNL     1      43.384   2.782  11.238  0.00  0.00    +0.000 A 
ATOM      7  C   UNL     1      44.181   2.345  10.177  0.00  0.00    +0.000 A 
ATOM      8  C   UNL     1      45.081   3.209   9.528  0.00  0.00    +0.000 A 
ATOM      9  C   UNL     1      45.161   4.531  10.001  0.00  0.00    +0.000 A 
BRANCH   8  10
ATOM     10  C   UNL     1      45.853   2.757   8.353  0.00  0.00    +0.000 A 
ATOM     11  C   UNL     1      46.088   3.562   7.239  0.00  0.00    +0.000 A 
ATOM     12  C   UNL     1      46.761   3.029   6.140  0.00  0.00    +0.000 A 
ATOM     13  C   UNL     1      47.189   1.710   6.178  0.00  0.00    +0.000 A 
ATOM     14  C   UNL     1      46.932   0.978   7.322  0.00  0.00    +0.000 A 
ATOM     15  N   UNL     1      46.284   1.469   8.400  0.00  0.00    +0.000 NA
ENDBRANCH   8  10
ENDBRANCH   1   4
BRANCH   1  16
ATOM     16  C   UNL     1      44.932   6.597  12.885  0.00  0.00    +0.000 C 
BRANCH  16  17
ATOM     17  N   UNL     1      45.610   7.879  13.129  0.00  0.00    +0.000 N 
ATOM     18  H   UNL     1      45.013   8.699  13.020  0.00  0.00    +0.000 HD
BRANCH  17  22
ATOM     19  C   UNL     1      49.570   8.310  11.745  0.00  0.00    +0.000 A 
ATOM     20  C   UNL     1      48.713   9.413  11.731  0.00  0.00    +0.000 A 
ATOM     21  C   UNL     1      47.403   9.289  12.206  0.00  0.00    +0.000 A 
ATOM     22  C   UNL     1      46.928   8.080  12.733  0.00  0.00    +0.000 A 
ATOM     23  C   UNL     1      47.797   6.981  12.725  0.00  0.00    +0.000 A 
ATOM     24  C   UNL     1      49.102   7.087  12.235  0.00  0.00    +0.000 A 
BRANCH  19  26
ATOM     25  N   UNL     1      51.672   7.226  11.172  0.00  0.00    +0.000 N 
ATOM     26  C   UNL     1      50.953   8.389  11.214  0.00  0.00    +0.000 C 
ATOM     27  O   UNL     1      51.425   9.439  10.800  0.00  0.00    +0.000 OA
ATOM     28  H   UNL     1      52.574   7.275  10.716  0.00  0.00    +0.000 HD
ATOM     29  H   UNL     1      51.243   6.318  11.272  0.00  0.00    +0.000 HD
ENDBRANCH  19  26
ENDBRANCH  17  22
ENDBRANCH  16  17
ENDBRANCH   1  16
TORSDOF 6
ENDMDL
MODEL 6
REMARK VINA RESULT:    -7.533      1.571      2.276
REMARK INTER + INTRA:         -11.339
REMARK INTER:                 -10.595
REMARK INTRA:                  -0.745
REMARK UNBOUND:                -1.163
REMARK  Name = 
REMARK  6 active torsions:
REMARK  status: ('A' for Active; 'I' for Inactive)
REMARK    1  A    between atoms: C_2  and  C_4
REMARK    2  A    between atoms: C_7  and  N_8
REMARK    3  A    between atoms: N_8  and  C_9
REMARK    4  A    between atoms: C_9  and  C_10
REMARK    5  A    between atoms: C_10  and  C_13
REMARK    6  A    between atoms: C_17  and  C_18
REMARK                            x       y       z     vdW  Elec       q    Type
REMARK                         _______ _______ _______ _____ _____    ______ ____
ROOT
ATOM      1  C   UNL     1      46.238   6.596  11.706  0.00  0.00    +0.000 C 
ATOM      2  F   UNL     1      46.983   6.579  10.561  0.00  0.00    +0.000 F 
ATOM      3  F   UNL     1      45.312   7.585  11.520  0.00  0.00    +0.000 F 
ENDROOT
BRANCH   1   4
ATOM      4  C   UNL     1      47.095   6.826  12.935  0.00  0.00    +0.000 A 
ATOM      5  C   UNL     1      47.592   8.099  13.233  0.00  0.00    +0.000 A 
ATOM      6  C   UNL     1      48.304   8.313  14.411  0.00  0.00    +0.000 A 
ATOM      7  C   UNL     1      48.506   7.260  15.307  0.00  0.00    +0.000 A 
ATOM      8  C   UNL     1      48.017   5.967  15.046  0.00  0.00    +0.000 A 
ATOM      9  C   UNL     1      47.328   5.770  13.836  0.00  0.00    +0.000 A 
BRANCH   8  10
ATOM     10  C   UNL     1      48.164   4.885  16.040  0.00  0.00    +0.000 A 
ATOM     11  C   UNL     1      47.115   4.046  16.415  0.00  0.00    +0.000 A 
ATOM     12  C   UNL     1      47.321   3.100  17.419  0.00  0.00    +0.000 A 
ATOM     13  C   UNL     1      48.567   3.009  18.023  0.00  0.00    +0.000 A 
ATOM     14  C   UNL     1      49.562   3.865  17.589  0.00  0.00    +0.000 A 
ATOM     15  N   UNL     1      49.390   4.789  16.619  0.00  0.00    +0.000 NA
ENDBRANCH   8  10
ENDBRANCH   1   4
BRANCH   1  16
ATOM     16  C   UNL     1      45.486   5.246  11.846  0.00  0.00    +0.000 C 
BRANCH  16  17
ATOM     17  N   UNL     1      44.686   4.897  10.662  0.00  0.00    +0.000 N 
ATOM     18  H   UNL     1      43.696   4.744  10.852  0.00  0.00    +0.000 HD
BRANCH  17  22
ATOM     19  C   UNL     1      46.490   2.524   7.678  0.00  0.00    +0.000 A 
ATOM     20  C   UNL     1      45.825   1.905   8.740  0.00  0.00    +0.000 A 
ATOM     21  C   UNL     1      45.205   2.680   9.726  0.00  0.00    +0.000 A 
ATOM     22  C   UNL     1      45.204   4.081   9.661  0.00  0.00    +0.000 A 
ATOM     23  C   UNL     1      45.889   4.683   8.598  0.00  0.00    +0.000 A 
ATOM     24  C   UNL     1      46.529   3.920   7.617  0.00  0.00    +0.000 A 
BRANCH  19  26
ATOM     25  N   UNL     1      48.000   2.430   5.773  0.00  0.00    +0.000 N 
ATOM     26  C   UNL     1      47.193   1.739   6.635  0.00  0.00    +0.000 C 
ATOM     27  O   UNL     1      47.088   0.523   6.562  0.00  0.00    +0.000 OA
ATOM     28  H   UNL     1      48.551   1.873   5.133  0.00  0.00    +0.000 HD
ATOM     29  H   UNL     1      48.299   3.377   5.950  0.00  0.00    +0.000 HD
ENDBRANCH  19  26
ENDBRANCH  17  22
ENDBRANCH  16  17
ENDBRANCH   1  16
TORSDOF 6
ENDMDL
MODEL 7
REMARK VINA RESULT:    -6.829      3.235      4.637
REMARK INTER + INTRA:         -10.388
REMARK INTER:                  -9.088
REMARK INTRA:                  -1.299
REMARK UNBOUND:                -1.163
REMARK  Name = 
REMARK  6 active torsions:
REMARK  status: ('A' for Active; 'I' for Inactive)
REMARK    1  A    between atoms: C_2  and  C_4
REMARK    2  A    between atoms: C_7  and  N_8
REMARK    3  A    between atoms: N_8  and  C_9
REMARK    4  A    between atoms: C_9  and  C_10
REMARK    5  A    between atoms: C_10  and  C_13
REMARK    6  A    between atoms: C_17  and  C_18
REMARK                            x       y       z     vdW  Elec       q    Type
REMARK                         _______ _______ _______ _____ _____    ______ ____
ROOT
ATOM      1  C   UNL     1      48.158   8.271  12.489  0.00  0.00    +0.000 C 
ATOM      2  F   UNL     1      48.406   7.103  11.825  0.00  0.00    +0.000 F 
ATOM      3  F   UNL     1      48.939   9.211  11.875  0.00  0.00    +0.000 F 
ENDROOT
BRANCH   1   4
ATOM      4  C   UNL     1      48.453   8.151  13.972  0.00  0.00    +0.000 A 
ATOM      5  C   UNL     1      48.404   9.273  14.806  0.00  0.00    +0.000 A 
ATOM      6  C   UNL     1      48.590   9.132  16.178  0.00  0.00    +0.000 A 
ATOM      7  C   UNL     1      48.808   7.867  16.728  0.00  0.00    +0.000 A 
ATOM      8  C   UNL     1      48.858   6.713  15.925  0.00  0.00    +0.000 A 
ATOM      9  C   UNL     1      48.697   6.885  14.538  0.00  0.00    +0.000 A 
BRANCH   8  10
ATOM     10  C   UNL     1      49.002   5.374  16.529  0.00  0.00    +0.000 A 
ATOM     11  C   UNL     1      50.059   5.025  17.370  0.00  0.00    +0.000 A 
ATOM     12  C   UNL     1      50.160   3.714  17.834  0.00  0.00    +0.000 A 
ATOM     13  C   UNL     1      49.205   2.783  17.456  0.00  0.00    +0.000 A 
ATOM     14  C   UNL     1      48.178   3.205  16.631  0.00  0.00    +0.000 A 
ATOM     15  N   UNL     1      48.056   4.467  16.168  0.00  0.00    +0.000 NA
ENDBRANCH   8  10
ENDBRANCH   1   4
BRANCH   1  16
ATOM     16  C   UNL     1      46.672   8.667  12.288  0.00  0.00    +0.000 C 
BRANCH  16  17
ATOM     17  N   UNL     1      45.743   7.902  13.135  0.00  0.00    +0.000 N 
ATOM     18  H   UNL     1      45.934   7.967  14.135  0.00  0.00    +0.000 HD
BRANCH  17  22
ATOM     19  C   UNL     1      44.386   4.186  11.678  0.00  0.00    +0.000 A 
ATOM     20  C   UNL     1      45.176   4.225  12.830  0.00  0.00    +0.000 A 
ATOM     21  C   UNL     1      45.616   5.453  13.336  0.00  0.00    +0.000 A 
ATOM     22  C   UNL     1      45.256   6.664  12.729  0.00  0.00    +0.000 A 
ATOM     23  C   UNL     1      44.477   6.603  11.566  0.00  0.00    +0.000 A 
ATOM     24  C   UNL     1      44.047   5.382  11.040  0.00  0.00    +0.000 A 
BRANCH  19  26
ATOM     25  N   UNL     1      44.686   2.385  10.069  0.00  0.00    +0.000 N 
ATOM     26  C   UNL     1      43.933   2.902  11.088  0.00  0.00    +0.000 C 
ATOM     27  O   UNL     1      42.949   2.311  11.508  0.00  0.00    +0.000 OA
ATOM     28  H   UNL     1      44.425   1.463   9.745  0.00  0.00    +0.000 HD
ATOM     29  H   UNL     1      45.620   2.709   9.865  0.00  0.00    +0.000 HD
ENDBRANCH  19  26
ENDBRANCH  17  22
ENDBRANCH  16  17
ENDBRANCH   1  16
TORSDOF 6
ENDMDL
MODEL 8
REMARK VINA RESULT:    -6.486      3.849      6.382
REMARK INTER + INTRA:          -9.925
REMARK INTER:                  -9.117
REMARK INTRA:                  -0.808
REMARK UNBOUND:                -1.163
REMARK  Name = 
REMARK  6 active torsions:
REMARK  status: ('A' for Active; 'I' for Inactive)
REMARK    1  A    between atoms: C_2  and  C_4
REMARK    2  A    between atoms: C_7  and  N_8
REMARK    3  A    between atoms: N_8  and  C_9
REMARK    4  A    between atoms: C_9  and  C_10
REMARK    5  A    between atoms: C_10  and  C_13
REMARK    6  A    between atoms: C_17  and  C_18
REMARK                            x       y       z     vdW  Elec       q    Type
REMARK                         _______ _______ _______ _____ _____    ______ ____
ROOT
ATOM      1  C   UNL     1      47.978   3.247  16.896  0.00  0.00    +0.000 C 
ATOM      2  F   UNL     1      47.200   2.518  17.751  0.00  0.00    +0.000 F 
ATOM      3  F   UNL     1      48.178   2.438  15.810  0.00  0.00    +0.000 F 
ENDROOT
BRANCH   1   4
ATOM      4  C   UNL     1      49.278   3.680  17.544  0.00  0.00    +0.000 A 
ATOM      5  C   UNL     1      49.324   4.802  18.379  0.00  0.00    +0.000 A 
ATOM      6  C   UNL     1      50.504   5.135  19.037  0.00  0.00    +0.000 A 
ATOM      7  C   UNL     1      51.641   4.339  18.880  0.00  0.00    +0.000 A 
ATOM      8  C   UNL     1      51.634   3.199  18.055  0.00  0.00    +0.000 A 
ATOM      9  C   UNL     1      50.439   2.901  17.378  0.00  0.00    +0.000 A 
BRANCH   8  10
ATOM     10  C   UNL     1      52.817   2.320  17.967  0.00  0.00    +0.000 A 
ATOM     11  C   UNL     1      54.106   2.795  17.728  0.00  0.00    +0.000 A 
ATOM     12  C   UNL     1      55.154   1.887  17.582  0.00  0.00    +0.000 A 
ATOM     13  C   UNL     1      54.896   0.528  17.683  0.00  0.00    +0.000 A 
ATOM     14  C   UNL     1      53.595   0.131  17.935  0.00  0.00    +0.000 A 
ATOM     15  N   UNL     1      52.562   0.989  18.081  0.00  0.00    +0.000 NA
ENDBRANCH   8  10
ENDBRANCH   1   4
BRANCH   1  16
ATOM     16  C   UNL     1      47.190   4.499  16.430  0.00  0.00    +0.000 C 
BRANCH  16  17
ATOM     17  N   UNL     1      47.575   4.967  15.090  0.00  0.00    +0.000 N 
ATOM     18  H   UNL     1      48.100   5.842  15.083  0.00  0.00    +0.000 HD
BRANCH  17  22
ATOM     19  C   UNL     1      44.851   4.324  11.936  0.00  0.00    +0.000 A 
ATOM     20  C   UNL     1      45.036   5.618  12.432  0.00  0.00    +0.000 A 
ATOM     21  C   UNL     1      45.951   5.848  13.464  0.00  0.00    +0.000 A 
ATOM     22  C   UNL     1      46.723   4.809  14.002  0.00  0.00    +0.000 A 
ATOM     23  C   UNL     1      46.513   3.517  13.503  0.00  0.00    +0.000 A 
ATOM     24  C   UNL     1      45.587   3.270  12.485  0.00  0.00    +0.000 A 
BRANCH  19  26
ATOM     25  N   UNL     1      43.879   4.840   9.766  0.00  0.00    +0.000 N 
ATOM     26  C   UNL     1      43.862   4.032  10.870  0.00  0.00    +0.000 C 
ATOM     27  O   UNL     1      43.083   3.092  10.953  0.00  0.00    +0.000 OA
ATOM     28  H   UNL     1      43.269   4.569   9.005  0.00  0.00    +0.000 HD
ATOM     29  H   UNL     1      44.649   5.456   9.556  0.00  0.00    +0.000 HD
ENDBRANCH  19  26
ENDBRANCH  17  22
ENDBRANCH  16  17
ENDBRANCH   1  16
TORSDOF 6
ENDMDL
