MODEL 1
REMARK VINA RESULT:    -8.186      0.000      0.000
REMARK INTER + INTRA:         -12.502
REMARK INTER:                 -11.536
REMARK INTRA:                  -0.966
REMARK UNBOUND:                -0.966
REMARK  Name = 
REMARK  7 active torsions:
REMARK  status: ('A' for Active; 'I' for Inactive)
REMARK    1  A    between atoms: C_2  and  C_3
REMARK    2  A    between atoms: C_6  and  N_7
REMARK    3  A    between atoms: N_7  and  C_8
REMARK    4  A    between atoms: C_8  and  C_9
REMARK    5  A    between atoms: C_13  and  C_14
REMARK    6  A    between atoms: C_18  and  O_19
REMARK    7  A    between atoms: O_19  and  C_20
REMARK                            x       y       z     vdW  Elec       q    Type
REMARK                         _______ _______ _______ _____ _____    ______ ____
ROOT
ATOM      1  C   UNL     1      45.003   6.112  11.829  0.00  0.00    +0.000 A 
ATOM      2  C   UNL     1      44.866   7.439  11.396  0.00  0.00    +0.000 A 
ATOM      3  C   UNL     1      45.621   8.463  11.958  0.00  0.00    +0.000 A 
ATOM      4  C   UNL     1      46.555   8.169  12.949  0.00  0.00    +0.000 A 
ATOM      5  C   UNL     1      46.809   6.845  13.350  0.00  0.00    +0.000 A 
ATOM      6  C   UNL     1      46.022   5.834  12.761  0.00  0.00    +0.000 A 
ENDROOT
BRANCH   5   7
ATOM      7  C   UNL     1      47.837   6.536  14.369  0.00  0.00    +0.000 A 
ATOM      8  C   UNL     1      49.080   7.177  14.385  0.00  0.00    +0.000 A 
ATOM      9  N   UNL     1      50.055   6.964  15.302  0.00  0.00    +0.000 NA
ATOM     10  C   UNL     1      49.805   6.039  16.255  0.00  0.00    +0.000 A 
ATOM     11  C   UNL     1      48.635   5.294  16.312  0.00  0.00    +0.000 A 
ATOM     12  C   UNL     1      47.638   5.579  15.377  0.00  0.00    +0.000 A 
BRANCH  11  13
ATOM     13  O   UNL     1      48.344   4.311  17.212  0.00  0.00    +0.000 OA
BRANCH  13  14
ATOM     14  C   UNL     1      47.625   3.206  16.688  0.00  0.00    +0.000 C 
ATOM     15  F   UNL     1      48.514   2.297  16.216  0.00  0.00    +0.000 F 
ATOM     16  F   UNL     1      46.973   2.621  17.722  0.00  0.00    +0.000 F 
ENDBRANCH  13  14
ENDBRANCH  11  13
ENDBRANCH   5   7
BRANCH   1  17
ATOM     17  C   UNL     1      43.997   5.051  11.392  0.00  0.00    +0.000 C 
ATOM     18  C   UNL     1      43.493   4.048  12.411  0.00  0.00    +0.000 C 
ATOM     19  C   UNL     1      42.622   5.202  12.044  0.00  0.00    +0.000 C 
BRANCH  17  20
ATOM     20  N   UNL     1      43.980   4.768   9.964  0.00  0.00    +0.000 N 
ATOM     21  H   UNL     1      43.443   5.360   9.341  0.00  0.00    +0.000 HD
BRANCH  20  25
ATOM     22  C   UNL     1      46.612   2.682   7.615  0.00  0.00    +0.000 A 
ATOM     23  C   UNL     1      46.524   4.063   7.602  0.00  0.00    +0.000 A 
ATOM     24  N   UNL     1      45.669   4.748   8.403  0.00  0.00    +0.000 NA
ATOM     25  C   UNL     1      44.880   4.017   9.224  0.00  0.00    +0.000 A 
ATOM     26  C   UNL     1      44.980   2.628   9.229  0.00  0.00    +0.000 A 
ATOM     27  N   UNL     1      45.842   1.929   8.436  0.00  0.00    +0.000 NA
BRANCH  22  29
ATOM     28  N   UNL     1      48.299   1.502   6.033  0.00  0.00    +0.000 NA
ATOM     29  C   UNL     1      47.522   2.004   6.739  0.00  0.00    +0.000 C 
ENDBRANCH  22  29
ENDBRANCH  20  25
ENDBRANCH  17  20
ENDBRANCH   1  17
TORSDOF 7
ENDMDL
MODEL 2
REMARK VINA RESULT:    -8.035      1.774      2.186
REMARK INTER + INTRA:         -12.289
REMARK INTER:                 -11.336
REMARK INTRA:                  -0.953
REMARK UNBOUND:                -0.966
REMARK  Name = 
REMARK  7 active torsions:
REMARK  status: ('A' for Active; 'I' for Inactive)
REMARK    1  A    between atoms: C_2  and  C_3
REMARK    2  A    between atoms: C_6  and  N_7
REMARK    3  A    between atoms: N_7  and  C_8
REMARK    4  A    between atoms: C_8  and  C_9
REMARK    5  A    between atoms: C_13  and  C_14
REMARK    6  A    between atoms: C_18  and  O_19
REMARK    7  A    between atoms: O_19  and  C_20
REMARK                            x       y       z     vdW  Elec       q    Type
REMARK                         _______ _______ _______ _____ _____    ______ ____
ROOT
ATOM      1  C   UNL     1      45.117   5.497  11.884  0.00  0.00    +0.000 A 
ATOM      2  C   UNL     1      45.637   6.743  11.499  0.00  0.00    +0.000 A 
ATOM      3  C   UNL     1      46.660   7.350  12.218  0.00  0.00    +0.000 A 
ATOM      4  C   UNL     1      47.207   6.703  13.323  0.00  0.00    +0.000 A 
ATOM      5  C   UNL     1      46.796   5.410  13.695  0.00  0.00    +0.000 A 
ATOM      6  C   UNL     1      45.754   4.827  12.945  0.00  0.00    +0.000 A 
ENDROOT
BRANCH   5   7
ATOM      7  C   UNL     1      47.415   4.709  14.843  0.00  0.00    +0.000 A 
ATOM      8  C   UNL     1      47.648   3.330  14.831  0.00  0.00    +0.000 A 
ATOM      9  N   UNL     1      48.234   2.630  15.832  0.00  0.00    +0.000 NA
ATOM     10  C   UNL     1      48.594   3.325  16.933  0.00  0.00    +0.000 A 
ATOM     11  C   UNL     1      48.365   4.684  17.091  0.00  0.00    +0.000 A 
ATOM     12  C   UNL     1      47.802   5.376  16.016  0.00  0.00    +0.000 A 
BRANCH  11  13
ATOM     13  O   UNL     1      48.654   5.432  18.194  0.00  0.00    +0.000 OA
BRANCH  13  14
ATOM     14  C   UNL     1      47.573   6.194  18.708  0.00  0.00    +0.000 C 
ATOM     15  F   UNL     1      47.308   5.773  19.969  0.00  0.00    +0.000 F 
ATOM     16  F   UNL     1      47.993   7.479  18.801  0.00  0.00    +0.000 F 
ENDBRANCH  13  14
ENDBRANCH  11  13
ENDBRANCH   5   7
BRANCH   1  17
ATOM     17  C   UNL     1      43.835   4.969  11.248  0.00  0.00    +0.000 C 
ATOM     18  C   UNL     1      42.816   4.262  12.120  0.00  0.00    +0.000 C 
ATOM     19  C   UNL     1      42.570   5.681  11.731  0.00  0.00    +0.000 C 
BRANCH  17  20
ATOM     20  N   UNL     1      43.907   4.737   9.812  0.00  0.00    +0.000 N 
ATOM     21  H   UNL     1      43.406   5.349   9.179  0.00  0.00    +0.000 HD
BRANCH  20  25
ATOM     22  C   UNL     1      46.678   2.737   7.550  0.00  0.00    +0.000 A 
ATOM     23  C   UNL     1      46.512   4.110   7.496  0.00  0.00    +0.000 A 
ATOM     24  N   UNL     1      45.611   4.767   8.268  0.00  0.00    +0.000 NA
ATOM     25  C   UNL     1      44.856   4.017   9.103  0.00  0.00    +0.000 A 
ATOM     26  C   UNL     1      45.035   2.636   9.150  0.00  0.00    +0.000 A 
ATOM     27  N   UNL     1      45.942   1.965   8.385  0.00  0.00    +0.000 NA
BRANCH  22  29
ATOM     28  N   UNL     1      48.363   1.537   5.980  0.00  0.00    +0.000 NA
ATOM     29  C   UNL     1      47.634   2.086   6.703  0.00  0.00    +0.000 C 
ENDBRANCH  22  29
ENDBRANCH  20  25
ENDBRANCH  17  20
ENDBRANCH   1  17
TORSDOF 7
ENDMDL
MODEL 3
REMARK VINA RESULT:    -7.859      3.482      4.370
REMARK INTER + INTRA:         -12.041
REMARK INTER:                 -10.972
REMARK INTRA:                  -1.069
REMARK UNBOUND:                -0.966
REMARK  Name = 
REMARK  7 active torsions:
REMARK  status: ('A' for Active; 'I' for Inactive)
REMARK    1  A    between atoms: C_2  and  C_3
REMARK    2  A    between atoms: C_6  and  N_7
REMARK    3  A    between atoms: N_7  and  C_8
REMARK    4  A    between atoms: C_8  and  C_9
REMARK    5  A    between atoms: C_13  and  C_14
REMARK    6  A    between atoms: C_18  and  O_19
REMARK    7  A    between atoms: O_19  and  C_20
REMARK                            x       y       z     vdW  Elec       q    Type
REMARK                         _______ _______ _______ _____ _____    ______ ____
ROOT
ATOM      1  C   UNL     1      45.137   5.343  12.056  0.00  0.00    +0.000 A 
ATOM      2  C   UNL     1      45.537   4.422  13.037  0.00  0.00    +0.000 A 
ATOM      3  C   UNL     1      46.789   4.505  13.636  0.00  0.00    +0.000 A 
ATOM      4  C   UNL     1      47.657   5.536  13.285  0.00  0.00    +0.000 A 
ATOM      5  C   UNL     1      47.272   6.545  12.384  0.00  0.00    +0.000 A 
ATOM      6  C   UNL     1      45.997   6.427  11.794  0.00  0.00    +0.000 A 
ENDROOT
BRANCH   5   7
ATOM      7  C   UNL     1      48.183   7.665  12.052  0.00  0.00    +0.000 A 
ATOM      8  C   UNL     1      47.710   8.959  11.818  0.00  0.00    +0.000 A 
ATOM      9  N   UNL     1      48.487  10.034  11.538  0.00  0.00    +0.000 NA
ATOM     10  C   UNL     1      49.818   9.820  11.456  0.00  0.00    +0.000 A 
ATOM     11  C   UNL     1      50.404   8.572  11.609  0.00  0.00    +0.000 A 
ATOM     12  C   UNL     1      49.573   7.501  11.944  0.00  0.00    +0.000 A 
BRANCH  11  13
ATOM     13  O   UNL     1      51.731   8.279  11.485  0.00  0.00    +0.000 OA
BRANCH  13  14
ATOM     14  C   UNL     1      52.192   8.116  10.153  0.00  0.00    +0.000 C 
ATOM     15  F   UNL     1      53.527   8.348  10.127  0.00  0.00    +0.000 F 
ATOM     16  F   UNL     1      52.011   6.815   9.819  0.00  0.00    +0.000 F 
ENDBRANCH  13  14
ENDBRANCH  11  13
ENDBRANCH   5   7
BRANCH   1  17
ATOM     17  C   UNL     1      43.879   5.092  11.230  0.00  0.00    +0.000 C 
ATOM     18  C   UNL     1      42.681   4.442  11.892  0.00  0.00    +0.000 C 
ATOM     19  C   UNL     1      42.673   5.919  11.680  0.00  0.00    +0.000 C 
BRANCH  17  20
ATOM     20  N   UNL     1      44.088   5.029   9.790  0.00  0.00    +0.000 N 
ATOM     21  H   UNL     1      43.788   5.800   9.206  0.00  0.00    +0.000 HD
BRANCH  20  25
ATOM     22  C   UNL     1      46.690   2.806   7.535  0.00  0.00    +0.000 A 
ATOM     23  C   UNL     1      46.679   4.190   7.527  0.00  0.00    +0.000 A 
ATOM     24  N   UNL     1      45.833   4.919   8.297  0.00  0.00    +0.000 NA
ATOM     25  C   UNL     1      44.973   4.231   9.083  0.00  0.00    +0.000 A 
ATOM     26  C   UNL     1      44.995   2.838   9.085  0.00  0.00    +0.000 A 
ATOM     27  N   UNL     1      45.846   2.094   8.322  0.00  0.00    +0.000 NA
BRANCH  22  29
ATOM     28  N   UNL     1      48.374   1.527   6.030  0.00  0.00    +0.000 NA
ATOM     29  C   UNL     1      47.594   2.080   6.693  0.00  0.00    +0.000 C 
ENDBRANCH  22  29
ENDBRANCH  20  25
ENDBRANCH  17  20
ENDBRANCH   1  17
TORSDOF 7
ENDMDL
MODEL 4
REMARK VINA RESULT:    -7.468      3.841      4.875
REMARK INTER + INTRA:         -11.490
REMARK INTER:                 -10.779
REMARK INTRA:                  -0.711
REMARK UNBOUND:                -0.966
REMARK  Name = 
REMARK  7 active torsions:
REMARK  status: ('A' for Active; 'I' for Inactive)
REMARK    1  A    between atoms: C_2  and  C_3
REMARK    2  A    between atoms: C_6  and  N_7
REMARK    3  A    between atoms: N_7  and  C_8
REMARK    4  A    between atoms: C_8  and  C_9
REMARK    5  A    between atoms: C_13  and  C_14
REMARK    6  A    between atoms: C_18  and  O_19
REMARK    7  A    between atoms: O_19  and  C_20
REMARK                            x       y       z     vdW  Elec       q    Type
REMARK                         _______ _______ _______ _____ _____    ______ ____
ROOT
ATOM      1  C   UNL     1      45.176   4.893  12.141  0.00  0.00    +0.000 A 
ATOM      2  C   UNL     1      46.055   4.211  12.996  0.00  0.00    +0.000 A 
ATOM      3  C   UNL     1      47.186   4.834  13.513  0.00  0.00    +0.000 A 
ATOM      4  C   UNL     1      47.442   6.168  13.205  0.00  0.00    +0.000 A 
ATOM      5  C   UNL     1      46.545   6.930  12.437  0.00  0.00    +0.000 A 
ATOM      6  C   UNL     1      45.410   6.265  11.928  0.00  0.00    +0.000 A 
ENDROOT
BRANCH   5   7
ATOM      7  C   UNL     1      46.800   8.361  12.154  0.00  0.00    +0.000 A 
ATOM      8  C   UNL     1      48.084   8.845  11.885  0.00  0.00    +0.000 A 
ATOM      9  N   UNL     1      48.385  10.134  11.591  0.00  0.00    +0.000 NA
ATOM     10  C   UNL     1      47.360  11.014  11.586  0.00  0.00    +0.000 A 
ATOM     11  C   UNL     1      46.052  10.669  11.894  0.00  0.00    +0.000 A 
ATOM     12  C   UNL     1      45.778   9.323  12.144  0.00  0.00    +0.000 A 
BRANCH  11  13
ATOM     13  O   UNL     1      44.984  11.516  11.960  0.00  0.00    +0.000 OA
BRANCH  13  14
ATOM     14  C   UNL     1      43.950  11.259  11.023  0.00  0.00    +0.000 C 
ATOM     15  F   UNL     1      44.428  10.424  10.069  0.00  0.00    +0.000 F 
ATOM     16  F   UNL     1      42.969  10.590  11.678  0.00  0.00    +0.000 F 
ENDBRANCH  13  14
ENDBRANCH  11  13
ENDBRANCH   5   7
BRANCH   1  17
ATOM     17  C   UNL     1      44.093   4.131  11.384  0.00  0.00    +0.000 C 
ATOM     18  C   UNL     1      43.374   2.990  12.075  0.00  0.00    +0.000 C 
ATOM     19  C   UNL     1      42.691   4.312  11.968  0.00  0.00    +0.000 C 
BRANCH  17  20
ATOM     20  N   UNL     1      44.177   4.218   9.932  0.00  0.00    +0.000 N 
ATOM     21  H   UNL     1      43.712   4.977   9.447  0.00  0.00    +0.000 HD
BRANCH  20  25
ATOM     22  C   UNL     1      46.855   2.611   7.279  0.00  0.00    +0.000 A 
ATOM     23  C   UNL     1      46.576   3.965   7.340  0.00  0.00    +0.000 A 
ATOM     24  N   UNL     1      45.709   4.492   8.240  0.00  0.00    +0.000 NA
ATOM     25  C   UNL     1      45.103   3.628   9.087  0.00  0.00    +0.000 A 
ATOM     26  C   UNL     1      45.394   2.268   9.018  0.00  0.00    +0.000 A 
ATOM     27  N   UNL     1      46.271   1.727   8.124  0.00  0.00    +0.000 NA
BRANCH  22  29
ATOM     28  N   UNL     1      48.465   1.685   5.465  0.00  0.00    +0.000 NA
ATOM     29  C   UNL     1      47.770   2.099   6.301  0.00  0.00    +0.000 C 
ENDBRANCH  22  29
ENDBRANCH  20  25
ENDBRANCH  17  20
ENDBRANCH   1  17
TORSDOF 7
ENDMDL
MODEL 5
REMARK VINA RESULT:    -7.296      2.933      3.390
REMARK INTER + INTRA:         -11.247
REMARK INTER:                 -10.437
REMARK INTRA:                  -0.810
REMARK UNBOUND:                -0.966
REMARK  Name = 
REMARK  7 active torsions:
REMARK  status: ('A' for Active; 'I' for Inactive)
REMARK    1  A    between atoms: C_2  and  C_3
REMARK    2  A    between atoms: C_6  and  N_7
REMARK    3  A    between atoms: N_7  and  C_8
REMARK    4  A    between atoms: C_8  and  C_9
REMARK    5  A    between atoms: C_13  and  C_14
REMARK    6  A    between atoms: C_18  and  O_19
REMARK    7  A    between atoms: O_19  and  C_20
REMARK                            x       y       z     vdW  Elec       q    Type
REMARK                         _______ _______ _______ _____ _____    ______ ____
ROOT
ATOM      1  C   UNL     1      44.859   6.362  11.622  0.00  0.00    +0.000 A 
ATOM      2  C   UNL     1      44.393   7.638  11.271  0.00  0.00    +0.000 A 
ATOM      3  C   UNL     1      45.023   8.788  11.734  0.00  0.00    +0.000 A 
ATOM      4  C   UNL     1      46.157   8.680  12.537  0.00  0.00    +0.000 A 
ATOM      5  C   UNL     1      46.728   7.431  12.837  0.00  0.00    +0.000 A 
ATOM      6  C   UNL     1      46.061   6.287  12.353  0.00  0.00    +0.000 A 
ENDROOT
BRANCH   5   7
ATOM      7  C   UNL     1      47.961   7.326  13.650  0.00  0.00    +0.000 A 
ATOM      8  C   UNL     1      48.065   6.439  14.726  0.00  0.00    +0.000 A 
ATOM      9  N   UNL     1      49.170   6.271  15.493  0.00  0.00    +0.000 NA
ATOM     10  C   UNL     1      50.238   7.046  15.203  0.00  0.00    +0.000 A 
ATOM     11  C   UNL     1      50.240   8.004  14.199  0.00  0.00    +0.000 A 
ATOM     12  C   UNL     1      49.098   8.111  13.402  0.00  0.00    +0.000 A 
BRANCH  11  13
ATOM     13  O   UNL     1      51.262   8.853  13.890  0.00  0.00    +0.000 OA
BRANCH  13  14
ATOM     14  C   UNL     1      51.899   8.607  12.646  0.00  0.00    +0.000 C 
ATOM     15  F   UNL     1      51.619   9.633  11.807  0.00  0.00    +0.000 F 
ATOM     16  F   UNL     1      53.236   8.629  12.865  0.00  0.00    +0.000 F 
ENDBRANCH  13  14
ENDBRANCH  11  13
ENDBRANCH   5   7
BRANCH   1  17
ATOM     17  C   UNL     1      44.016   5.126  11.324  0.00  0.00    +0.000 C 
ATOM     18  C   UNL     1      43.750   4.129  12.434  0.00  0.00    +0.000 C 
ATOM     19  C   UNL     1      42.678   5.100  12.065  0.00  0.00    +0.000 C 
BRANCH  17  20
ATOM     20  N   UNL     1      43.955   4.744   9.920  0.00  0.00    +0.000 N 
ATOM     21  H   UNL     1      43.339   5.244   9.290  0.00  0.00    +0.000 HD
BRANCH  20  25
ATOM     22  C   UNL     1      46.661   2.745   7.579  0.00  0.00    +0.000 A 
ATOM     23  C   UNL     1      46.522   4.122   7.560  0.00  0.00    +0.000 A 
ATOM     24  N   UNL     1      45.642   4.778   8.358  0.00  0.00    +0.000 NA
ATOM     25  C   UNL     1      44.882   4.023   9.183  0.00  0.00    +0.000 A 
ATOM     26  C   UNL     1      45.034   2.638   9.195  0.00  0.00    +0.000 A 
ATOM     27  N   UNL     1      45.920   1.968   8.404  0.00  0.00    +0.000 NA
BRANCH  22  29
ATOM     28  N   UNL     1      48.311   1.523   5.990  0.00  0.00    +0.000 NA
ATOM     29  C   UNL     1      47.595   2.096   6.706  0.00  0.00    +0.000 C 
ENDBRANCH  22  29
ENDBRANCH  20  25
ENDBRANCH  17  20
ENDBRANCH   1  17
TORSDOF 7
ENDMDL
MODEL 6
REMARK VINA RESULT:    -7.196      3.777      8.180
REMARK INTER + INTRA:         -11.107
REMARK INTER:                 -10.243
REMARK INTRA:                  -0.863
REMARK UNBOUND:                -0.966
REMARK  Name = 
REMARK  7 active torsions:
REMARK  status: ('A' for Active; 'I' for Inactive)
REMARK    1  A    between atoms: C_2  and  C_3
REMARK    2  A    between atoms: C_6  and  N_7
REMARK    3  A    between atoms: N_7  and  C_8
REMARK    4  A    between atoms: C_8  and  C_9
REMARK    5  A    between atoms: C_13  and  C_14
REMARK    6  A    between atoms: C_18  and  O_19
REMARK    7  A    between atoms: O_19  and  C_20
REMARK                            x       y       z     vdW  Elec       q    Type
REMARK                         _______ _______ _______ _____ _____    ______ ____
ROOT
ATOM      1  C   UNL     1      47.291   7.693  12.505  0.00  0.00    +0.000 A 
ATOM      2  C   UNL     1      46.249   8.535  12.921  0.00  0.00    +0.000 A 
ATOM      3  C   UNL     1      44.943   8.337  12.486  0.00  0.00    +0.000 A 
ATOM      4  C   UNL     1      44.650   7.265  11.645  0.00  0.00    +0.000 A 
ATOM      5  C   UNL     1      45.633   6.330  11.277  0.00  0.00    +0.000 A 
ATOM      6  C   UNL     1      46.946   6.565  11.735  0.00  0.00    +0.000 A 
ENDROOT
BRANCH   5   7
ATOM      7  C   UNL     1      45.304   5.167  10.423  0.00  0.00    +0.000 A 
ATOM      8  C   UNL     1      44.554   4.087  10.898  0.00  0.00    +0.000 A 
ATOM      9  N   UNL     1      44.193   3.005  10.165  0.00  0.00    +0.000 NA
ATOM     10  C   UNL     1      44.619   2.968   8.884  0.00  0.00    +0.000 A 
ATOM     11  C   UNL     1      45.417   3.948   8.311  0.00  0.00    +0.000 A 
ATOM     12  C   UNL     1      45.726   5.067   9.087  0.00  0.00    +0.000 A 
BRANCH  11  13
ATOM     13  O   UNL     1      45.924   3.944   7.045  0.00  0.00    +0.000 OA
BRANCH  13  14
ATOM     14  C   UNL     1      46.565   2.740   6.654  0.00  0.00    +0.000 C 
ATOM     15  F   UNL     1      46.802   2.789   5.321  0.00  0.00    +0.000 F 
ATOM     16  F   UNL     1      47.773   2.708   7.269  0.00  0.00    +0.000 F 
ENDBRANCH  13  14
ENDBRANCH  11  13
ENDBRANCH   5   7
BRANCH   1  17
ATOM     17  C   UNL     1      48.743   8.071  12.779  0.00  0.00    +0.000 C 
ATOM     18  C   UNL     1      49.807   7.689  11.769  0.00  0.00    +0.000 C 
ATOM     19  C   UNL     1      49.308   9.095  11.793  0.00  0.00    +0.000 C 
BRANCH  17  20
ATOM     20  N   UNL     1      49.065   8.312  14.178  0.00  0.00    +0.000 N 
ATOM     21  H   UNL     1      48.687   9.128  14.647  0.00  0.00    +0.000 HD
BRANCH  20  25
ATOM     22  C   UNL     1      50.616   5.631  16.862  0.00  0.00    +0.000 A 
ATOM     23  C   UNL     1      51.376   6.619  16.259  0.00  0.00    +0.000 A 
ATOM     24  N   UNL     1      50.849   7.519  15.393  0.00  0.00    +0.000 NA
ATOM     25  C   UNL     1      49.527   7.410  15.123  0.00  0.00    +0.000 A 
ATOM     26  C   UNL     1      48.773   6.413  15.737  0.00  0.00    +0.000 A 
ATOM     27  N   UNL     1      49.289   5.508  16.616  0.00  0.00    +0.000 NA
BRANCH  22  29
ATOM     28  N   UNL     1      51.677   3.953  18.535  0.00  0.00    +0.000 NA
ATOM     29  C   UNL     1      51.222   4.693  17.760  0.00  0.00    +0.000 C 
ENDBRANCH  22  29
ENDBRANCH  20  25
ENDBRANCH  17  20
ENDBRANCH   1  17
TORSDOF 7
ENDMDL
MODEL 7
REMARK VINA RESULT:    -7.117      2.238      2.522
REMARK INTER + INTRA:         -10.995
REMARK INTER:                 -10.177
REMARK INTRA:                  -0.818
REMARK UNBOUND:                -0.966
REMARK  Name = 
REMARK  7 active torsions:
REMARK  status: ('A' for Active; 'I' for Inactive)
REMARK    1  A    between atoms: C_2  and  C_3
REMARK    2  A    between atoms: C_6  and  N_7
REMARK    3  A    between atoms: N_7  and  C_8
REMARK    4  A    between atoms: C_8  and  C_9
REMARK    5  A    between atoms: C_13  and  C_14
REMARK    6  A    between atoms: C_18  and  O_19
REMARK    7  A    between atoms: O_19  and  C_20
REMARK                            x       y       z     vdW  Elec       q    Type
REMARK                         _______ _______ _______ _____ _____    ______ ____
ROOT
ATOM      1  C   UNL     1      44.697   6.557  11.364  0.00  0.00    +0.000 A 
ATOM      2  C   UNL     1      44.055   7.783  11.132  0.00  0.00    +0.000 A 
ATOM      3  C   UNL     1      44.634   8.985  11.522  0.00  0.00    +0.000 A 
ATOM      4  C   UNL     1      45.889   8.984  12.126  0.00  0.00    +0.000 A 
ATOM      5  C   UNL     1      46.624   7.797  12.292  0.00  0.00    +0.000 A 
ATOM      6  C   UNL     1      46.004   6.597  11.887  0.00  0.00    +0.000 A 
ENDROOT
BRANCH   5   7
ATOM      7  C   UNL     1      47.978   7.809  12.891  0.00  0.00    +0.000 A 
ATOM      8  C   UNL     1      49.134   7.881  12.108  0.00  0.00    +0.000 A 
ATOM      9  N   UNL     1      50.400   7.925  12.589  0.00  0.00    +0.000 NA
ATOM     10  C   UNL     1      50.544   7.867  13.931  0.00  0.00    +0.000 A 
ATOM     11  C   UNL     1      49.481   7.735  14.812  0.00  0.00    +0.000 A 
ATOM     12  C   UNL     1      48.191   7.742  14.277  0.00  0.00    +0.000 A 
BRANCH  11  13
ATOM     13  O   UNL     1      49.561   7.617  16.169  0.00  0.00    +0.000 OA
BRANCH  13  14
ATOM     14  C   UNL     1      48.558   8.308  16.897  0.00  0.00    +0.000 C 
ATOM     15  F   UNL     1      48.497   7.790  18.147  0.00  0.00    +0.000 F 
ATOM     16  F   UNL     1      48.964   9.595  17.022  0.00  0.00    +0.000 F 
ENDBRANCH  13  14
ENDBRANCH  11  13
ENDBRANCH   5   7
BRANCH   1  17
ATOM     17  C   UNL     1      43.944   5.245  11.168  0.00  0.00    +0.000 C 
ATOM     18  C   UNL     1      43.776   4.308  12.348  0.00  0.00    +0.000 C 
ATOM     19  C   UNL     1      42.627   5.169  11.943  0.00  0.00    +0.000 C 
BRANCH  17  20
ATOM     20  N   UNL     1      43.885   4.766   9.794  0.00  0.00    +0.000 N 
ATOM     21  H   UNL     1      43.243   5.197   9.139  0.00  0.00    +0.000 HD
BRANCH  20  25
ATOM     22  C   UNL     1      46.654   2.727   7.565  0.00  0.00    +0.000 A 
ATOM     23  C   UNL     1      46.518   4.104   7.521  0.00  0.00    +0.000 A 
ATOM     24  N   UNL     1      45.617   4.773   8.282  0.00  0.00    +0.000 NA
ATOM     25  C   UNL     1      44.831   4.032   9.096  0.00  0.00    +0.000 A 
ATOM     26  C   UNL     1      44.979   2.648   9.134  0.00  0.00    +0.000 A 
ATOM     27  N   UNL     1      45.887   1.964   8.379  0.00  0.00    +0.000 NA
BRANCH  22  29
ATOM     28  N   UNL     1      48.346   1.523   6.007  0.00  0.00    +0.000 NA
ATOM     29  C   UNL     1      47.612   2.063   6.730  0.00  0.00    +0.000 C 
ENDBRANCH  22  29
ENDBRANCH  20  25
ENDBRANCH  17  20
ENDBRANCH   1  17
TORSDOF 7
ENDMDL
MODEL 8
REMARK VINA RESULT:    -6.914      3.849      7.717
REMARK INTER + INTRA:         -10.709
REMARK INTER:                  -9.945
REMARK INTRA:                  -0.765
REMARK UNBOUND:                -0.966
REMARK  Name = 
REMARK  7 active torsions:
REMARK  status: ('A' for Active; 'I' for Inactive)
REMARK    1  A    between atoms: C_2  and  C_3
REMARK    2  A    between atoms: C_6  and  N_7
REMARK    3  A    between atoms: N_7  and  C_8
REMARK    4  A    between atoms: C_8  and  C_9
REMARK    5  A    between atoms: C_13  and  C_14
REMARK    6  A    between atoms: C_18  and  O_19
REMARK    7  A    between atoms: O_19  and  C_20
REMARK                            x       y       z     vdW  Elec       q    Type
REMARK                         _______ _______ _______ _____ _____    ______ ____
ROOT
ATOM      1  C   UNL     1      48.187   7.487  14.156  0.00  0.00    +0.000 A 
ATOM      2  C   UNL     1      48.813   8.158  13.093  0.00  0.00    +0.000 A 
ATOM      3  C   UNL     1      48.504   7.860  11.771  0.00  0.00    +0.000 A 
ATOM      4  C   UNL     1      47.534   6.902  11.487  0.00  0.00    +0.000 A 
ATOM      5  C   UNL     1      46.802   6.271  12.508  0.00  0.00    +0.000 A 
ATOM      6  C   UNL     1      47.145   6.595  13.837  0.00  0.00    +0.000 A 
ENDROOT
BRANCH   5   7
ATOM      7  C   UNL     1      45.739   5.288  12.197  0.00  0.00    +0.000 A 
ATOM      8  C   UNL     1      45.041   4.610  13.200  0.00  0.00    +0.000 A 
ATOM      9  N   UNL     1      44.040   3.721  12.988  0.00  0.00    +0.000 NA
ATOM     10  C   UNL     1      43.719   3.459  11.703  0.00  0.00    +0.000 A 
ATOM     11  C   UNL     1      44.375   4.023  10.618  0.00  0.00    +0.000 A 
ATOM     12  C   UNL     1      45.368   4.969  10.881  0.00  0.00    +0.000 A 
BRANCH  11  13
ATOM     13  O   UNL     1      44.137   3.761   9.300  0.00  0.00    +0.000 OA
BRANCH  13  14
ATOM     14  C   UNL     1      45.245   3.248   8.576  0.00  0.00    +0.000 C 
ATOM     15  F   UNL     1      45.412   1.945   8.908  0.00  0.00    +0.000 F 
ATOM     16  F   UNL     1      44.918   3.282   7.261  0.00  0.00    +0.000 F 
ENDBRANCH  13  14
ENDBRANCH  11  13
ENDBRANCH   5   7
BRANCH   1  17
ATOM     17  C   UNL     1      48.715   7.638  15.579  0.00  0.00    +0.000 C 
ATOM     18  C   UNL     1      49.973   8.449  15.817  0.00  0.00    +0.000 C 
ATOM     19  C   UNL     1      48.649   9.070  16.111  0.00  0.00    +0.000 C 
BRANCH  17  20
ATOM     20  N   UNL     1      48.279   6.608  16.512  0.00  0.00    +0.000 N 
ATOM     21  H   UNL     1      47.325   6.611  16.853  0.00  0.00    +0.000 HD
BRANCH  20  25
ATOM     22  C   UNL     1      50.161   3.025  17.160  0.00  0.00    +0.000 A 
ATOM     23  C   UNL     1      50.784   4.247  17.345  0.00  0.00    +0.000 A 
ATOM     24  N   UNL     1      50.146   5.429  17.155  0.00  0.00    +0.000 NA
ATOM     25  C   UNL     1      48.853   5.371  16.758  0.00  0.00    +0.000 A 
ATOM     26  C   UNL     1      48.237   4.135  16.578  0.00  0.00    +0.000 A 
ATOM     27  N   UNL     1      48.865   2.940  16.774  0.00  0.00    +0.000 NA
BRANCH  22  29
ATOM     28  N   UNL     1      51.511   0.844  17.556  0.00  0.00    +0.000 NA
ATOM     29  C   UNL     1      50.883   1.803  17.361  0.00  0.00    +0.000 C 
ENDBRANCH  22  29
ENDBRANCH  20  25
ENDBRANCH  17  20
ENDBRANCH   1  17
TORSDOF 7
ENDMDL
MODEL 9
REMARK VINA RESULT:    -6.109      3.285      7.462
REMARK INTER + INTRA:          -9.575
REMARK INTER:                  -8.710
REMARK INTRA:                  -0.865
REMARK UNBOUND:                -0.966
REMARK  Name = 
REMARK  7 active torsions:
REMARK  status: ('A' for Active; 'I' for Inactive)
REMARK    1  A    between atoms: C_2  and  C_3
REMARK    2  A    between atoms: C_6  and  N_7
REMARK    3  A    between atoms: N_7  and  C_8
REMARK    4  A    between atoms: C_8  and  C_9
REMARK    5  A    between atoms: C_13  and  C_14
REMARK    6  A    between atoms: C_18  and  O_19
REMARK    7  A    between atoms: O_19  and  C_20
REMARK                            x       y       z     vdW  Elec       q    Type
REMARK                         _______ _______ _______ _____ _____    ______ ____
ROOT
ATOM      1  C   UNL     1      48.847   7.939  15.096  0.00  0.00    +0.000 A 
ATOM      2  C   UNL     1      49.960   8.417  14.387  0.00  0.00    +0.000 A 
ATOM      3  C   UNL     1      50.148   8.102  13.045  0.00  0.00    +0.000 A 
ATOM      4  C   UNL     1      49.204   7.326  12.378  0.00  0.00    +0.000 A 
ATOM      5  C   UNL     1      48.020   6.905  13.009  0.00  0.00    +0.000 A 
ATOM      6  C   UNL     1      47.864   7.240  14.370  0.00  0.00    +0.000 A 
ENDROOT
BRANCH   5   7
ATOM      7  C   UNL     1      46.998   6.120  12.279  0.00  0.00    +0.000 A 
ATOM      8  C   UNL     1      46.588   6.460  10.986  0.00  0.00    +0.000 A 
ATOM      9  N   UNL     1      45.681   5.772  10.250  0.00  0.00    +0.000 NA
ATOM     10  C   UNL     1      45.117   4.691  10.832  0.00  0.00    +0.000 A 
ATOM     11  C   UNL     1      45.397   4.285  12.129  0.00  0.00    +0.000 A 
ATOM     12  C   UNL     1      46.372   4.994  12.835  0.00  0.00    +0.000 A 
BRANCH  11  13
ATOM     13  O   UNL     1      44.825   3.239  12.793  0.00  0.00    +0.000 OA
BRANCH  13  14
ATOM     14  C   UNL     1      43.411   3.291  12.900  0.00  0.00    +0.000 C 
ATOM     15  F   UNL     1      43.040   4.580  13.090  0.00  0.00    +0.000 F 
ATOM     16  F   UNL     1      42.901   2.904  11.706  0.00  0.00    +0.000 F 
ENDBRANCH  13  14
ENDBRANCH  11  13
ENDBRANCH   5   7
BRANCH   1  17
ATOM     17  C   UNL     1      48.786   8.075  16.614  0.00  0.00    +0.000 C 
ATOM     18  C   UNL     1      49.657   9.110  17.298  0.00  0.00    +0.000 C 
ATOM     19  C   UNL     1      48.210   9.410  17.090  0.00  0.00    +0.000 C 
BRANCH  17  20
ATOM     20  N   UNL     1      48.295   6.899  17.320  0.00  0.00    +0.000 N 
ATOM     21  H   UNL     1      47.330   6.864  17.627  0.00  0.00    +0.000 HD
BRANCH  20  25
ATOM     22  C   UNL     1      50.074   3.207  17.332  0.00  0.00    +0.000 A 
ATOM     23  C   UNL     1      50.712   4.352  17.777  0.00  0.00    +0.000 A 
ATOM     24  N   UNL     1      50.107   5.566  17.795  0.00  0.00    +0.000 NA
ATOM     25  C   UNL     1      48.833   5.622  17.343  0.00  0.00    +0.000 A 
ATOM     26  C   UNL     1      48.200   4.463  16.901  0.00  0.00    +0.000 A 
ATOM     27  N   UNL     1      48.795   3.236  16.886  0.00  0.00    +0.000 NA
BRANCH  22  29
ATOM     28  N   UNL     1      51.366   0.956  17.280  0.00  0.00    +0.000 NA
ATOM     29  C   UNL     1      50.761   1.949  17.319  0.00  0.00    +0.000 C 
ENDBRANCH  22  29
ENDBRANCH  20  25
ENDBRANCH  17  20
ENDBRANCH   1  17
TORSDOF 7
ENDMDL
