MODEL 1
REMARK VINA RESULT:    -9.353      0.000      0.000
REMARK INTER + INTRA:         -12.423
REMARK INTER:                 -11.540
REMARK INTRA:                  -0.883
REMARK UNBOUND:                -0.883
REMARK  Name = 
REMARK  4 active torsions:
REMARK  status: ('A' for Active; 'I' for Inactive)
REMARK    1  A    between atoms: C_2  and  C_4
REMARK    2  A    between atoms: N_8  and  C_9
REMARK    3  A    between atoms: C_9  and  C_10
REMARK    4  A    between atoms: C_15  and  C_16
REMARK                            x       y       z     vdW  Elec       q    Type
REMARK                         _______ _______ _______ _____ _____    ______ ____
ROOT
ATOM      1  C   UNL     1      44.675   5.140  11.894  0.00  0.00    +0.000 A 
ATOM      2  C   UNL     1      45.004   4.281  12.948  0.00  0.00    +0.000 A 
ATOM      3  C   UNL     1      46.093   4.570  13.767  0.00  0.00    +0.000 A 
ATOM      4  C   UNL     1      46.853   5.716  13.540  0.00  0.00    +0.000 A 
ATOM      5  F   UNL     1      47.876   5.953  14.377  0.00  0.00    +0.000 F 
ATOM      6  C   UNL     1      46.564   6.612  12.498  0.00  0.00    +0.000 A 
ATOM      7  C   UNL     1      45.459   6.292  11.682  0.00  0.00    +0.000 A 
ENDROOT
BRANCH   6   8
ATOM      8  C   UNL     1      47.357   7.839  12.260  0.00  0.00    +0.000 A 
ATOM      9  C   UNL     1      48.644   7.811  11.731  0.00  0.00    +0.000 A 
ATOM     10  N   UNL     1      49.386   8.917  11.502  0.00  0.00    +0.000 NA
ATOM     11  N   UNL     1      48.863  10.142  11.786  0.00  0.00    +0.000 NA
ATOM     12  C   UNL     1      47.626  10.242  12.302  0.00  0.00    +0.000 A 
ATOM     13  N   UNL     1      47.099  11.515  12.538  0.00  0.00    +0.000 N 
ATOM     14  C   UNL     1      46.856   9.116  12.546  0.00  0.00    +0.000 A 
ATOM     15  H   UNL     1      47.834  12.195  12.353  0.00  0.00    +0.000 HD
ATOM     16  H   UNL     1      46.723  11.605  13.475  0.00  0.00    +0.000 HD
ENDBRANCH   6   8
BRANCH   1  17
ATOM     17  C   UNL     1      43.475   4.865  11.017  0.00  0.00    +0.000 C 
BRANCH  17  22
ATOM     18  C   UNL     1      46.395   2.261   7.710  0.00  0.00    +0.000 A 
ATOM     19  C   UNL     1      45.641   1.781   8.776  0.00  0.00    +0.000 A 
ATOM     20  C   UNL     1      44.781   2.648   9.448  0.00  0.00    +0.000 A 
ATOM     21  C   UNL     1      44.697   3.979   9.056  0.00  0.00    +0.000 A 
ATOM     22  N   UNL     1      43.804   4.877   9.606  0.00  0.00    +0.000 N 
ATOM     23  N   UNL     1      45.434   4.458   8.035  0.00  0.00    +0.000 NA
ATOM     24  C   UNL     1      46.270   3.602   7.390  0.00  0.00    +0.000 A 
ATOM     25  H   UNL     1      44.015   5.789   9.210  0.00  0.00    +0.000 HD
BRANCH  18  27
ATOM     26  N   UNL     1      48.393   2.013   6.354  0.00  0.00    +0.000 N 
ATOM     27  C   UNL     1      47.308   1.405   6.926  0.00  0.00    +0.000 C 
ATOM     28  O   UNL     1      47.125   0.203   6.815  0.00  0.00    +0.000 OA
ATOM     29  H   UNL     1      49.064   1.403   5.901  0.00  0.00    +0.000 HD
ATOM     30  H   UNL     1      48.715   2.928   6.635  0.00  0.00    +0.000 HD
ENDBRANCH  18  27
ENDBRANCH  17  22
ENDBRANCH   1  17
TORSDOF 4
ENDMDL
MODEL 2
REMARK VINA RESULT:    -9.133      3.030      3.978
REMARK INTER + INTRA:         -12.152
REMARK INTER:                 -11.259
REMARK INTRA:                  -0.894
REMARK UNBOUND:                -0.883
REMARK  Name = 
REMARK  4 active torsions:
REMARK  status: ('A' for Active; 'I' for Inactive)
REMARK    1  A    between atoms: C_2  and  C_4
REMARK    2  A    between atoms: N_8  and  C_9
REMARK    3  A    between atoms: C_9  and  C_10
REMARK    4  A    between atoms: C_15  and  C_16
REMARK                            x       y       z     vdW  Elec       q    Type
REMARK                         _______ _______ _______ _____ _____    ______ ____
ROOT
ATOM      1  C   UNL     1      44.704   5.473  11.911  0.00  0.00    +0.000 A 
ATOM      2  C   UNL     1      45.233   6.732  11.610  0.00  0.00    +0.000 A 
ATOM      3  C   UNL     1      46.314   7.225  12.337  0.00  0.00    +0.000 A 
ATOM      4  C   UNL     1      46.871   6.463  13.364  0.00  0.00    +0.000 A 
ATOM      5  F   UNL     1      47.925   6.981  14.013  0.00  0.00    +0.000 F 
ATOM      6  C   UNL     1      46.379   5.193  13.704  0.00  0.00    +0.000 A 
ATOM      7  C   UNL     1      45.281   4.722  12.954  0.00  0.00    +0.000 A 
ENDROOT
BRANCH   6   8
ATOM      8  C   UNL     1      46.974   4.371  14.782  0.00  0.00    +0.000 A 
ATOM      9  C   UNL     1      47.699   3.210  14.530  0.00  0.00    +0.000 A 
ATOM     10  N   UNL     1      48.254   2.447  15.497  0.00  0.00    +0.000 NA
ATOM     11  N   UNL     1      48.122   2.819  16.800  0.00  0.00    +0.000 NA
ATOM     12  C   UNL     1      47.432   3.929  17.115  0.00  0.00    +0.000 A 
ATOM     13  N   UNL     1      47.354   4.310  18.458  0.00  0.00    +0.000 N 
ATOM     14  C   UNL     1      46.854   4.718  16.134  0.00  0.00    +0.000 A 
ATOM     15  H   UNL     1      47.786   3.577  19.015  0.00  0.00    +0.000 HD
ATOM     16  H   UNL     1      46.401   4.499  18.747  0.00  0.00    +0.000 HD
ENDBRANCH   6   8
BRANCH   1  17
ATOM     17  C   UNL     1      43.556   4.905  11.109  0.00  0.00    +0.000 C 
BRANCH  17  22
ATOM     18  C   UNL     1      46.372   2.283   7.727  0.00  0.00    +0.000 A 
ATOM     19  C   UNL     1      45.671   1.811   8.831  0.00  0.00    +0.000 A 
ATOM     20  C   UNL     1      44.828   2.678   9.525  0.00  0.00    +0.000 A 
ATOM     21  C   UNL     1      44.708   4.001   9.113  0.00  0.00    +0.000 A 
ATOM     22  N   UNL     1      43.826   4.896   9.685  0.00  0.00    +0.000 N 
ATOM     23  N   UNL     1      45.394   4.471   8.054  0.00  0.00    +0.000 NA
ATOM     24  C   UNL     1      46.215   3.616   7.388  0.00  0.00    +0.000 A 
ATOM     25  H   UNL     1      44.006   5.804   9.264  0.00  0.00    +0.000 HD
BRANCH  18  27
ATOM     26  N   UNL     1      48.346   2.029   6.334  0.00  0.00    +0.000 N 
ATOM     27  C   UNL     1      47.264   1.426   6.919  0.00  0.00    +0.000 C 
ATOM     28  O   UNL     1      47.068   0.227   6.801  0.00  0.00    +0.000 OA
ATOM     29  H   UNL     1      49.003   1.417   5.866  0.00  0.00    +0.000 HD
ATOM     30  H   UNL     1      48.680   2.939   6.619  0.00  0.00    +0.000 HD
ENDBRANCH  18  27
ENDBRANCH  17  22
ENDBRANCH   1  17
TORSDOF 4
ENDMDL
MODEL 3
REMARK VINA RESULT:    -8.078      2.140      2.921
REMARK INTER + INTRA:         -10.850
REMARK INTER:                 -10.310
REMARK INTRA:                  -0.540
REMARK UNBOUND:                -0.883
REMARK  Name = 
REMARK  4 active torsions:
REMARK  status: ('A' for Active; 'I' for Inactive)
REMARK    1  A    between atoms: C_2  and  C_4
REMARK    2  A    between atoms: N_8  and  C_9
REMARK    3  A    between atoms: C_9  and  C_10
REMARK    4  A    between atoms: C_15  and  C_16
REMARK                            x       y       z     vdW  Elec       q    Type
REMARK                         _______ _______ _______ _____ _____    ______ ____
ROOT
ATOM      1  C   UNL     1      44.084   5.290  11.421  0.00  0.00    +0.000 A 
ATOM      2  C   UNL     1      43.512   6.516  11.065  0.00  0.00    +0.000 A 
ATOM      3  C   UNL     1      44.101   7.707  11.483  0.00  0.00    +0.000 A 
ATOM      4  C   UNL     1      45.263   7.679  12.254  0.00  0.00    +0.000 A 
ATOM      5  F   UNL     1      45.797   8.858  12.607  0.00  0.00    +0.000 F 
ATOM      6  C   UNL     1      45.878   6.475  12.635  0.00  0.00    +0.000 A 
ATOM      7  C   UNL     1      45.257   5.285  12.202  0.00  0.00    +0.000 A 
ENDROOT
BRANCH   6   8
ATOM      8  C   UNL     1      47.120   6.438  13.440  0.00  0.00    +0.000 A 
ATOM      9  C   UNL     1      47.265   5.626  14.561  0.00  0.00    +0.000 A 
ATOM     10  N   UNL     1      48.389   5.572  15.309  0.00  0.00    +0.000 NA
ATOM     11  N   UNL     1      49.461   6.337  14.960  0.00  0.00    +0.000 NA
ATOM     12  C   UNL     1      49.388   7.147  13.889  0.00  0.00    +0.000 A 
ATOM     13  N   UNL     1      50.520   7.883  13.529  0.00  0.00    +0.000 N 
ATOM     14  C   UNL     1      48.240   7.215  13.116  0.00  0.00    +0.000 A 
ATOM     15  H   UNL     1      51.226   7.741  14.248  0.00  0.00    +0.000 HD
ATOM     16  H   UNL     1      50.309   8.865  13.391  0.00  0.00    +0.000 HD
ENDBRANCH   6   8
BRANCH   1  17
ATOM     17  C   UNL     1      43.482   3.988  10.946  0.00  0.00    +0.000 C 
BRANCH  17  22
ATOM     18  C   UNL     1      46.704   2.583   7.219  0.00  0.00    +0.000 A 
ATOM     19  C   UNL     1      46.351   3.864   7.632  0.00  0.00    +0.000 A 
ATOM     20  C   UNL     1      45.581   4.021   8.784  0.00  0.00    +0.000 A 
ATOM     21  C   UNL     1      45.166   2.901   9.495  0.00  0.00    +0.000 A 
ATOM     22  N   UNL     1      44.485   2.972  10.693  0.00  0.00    +0.000 N 
ATOM     23  N   UNL     1      45.491   1.656   9.095  0.00  0.00    +0.000 NA
ATOM     24  C   UNL     1      46.239   1.517   7.969  0.00  0.00    +0.000 A 
ATOM     25  H   UNL     1      44.225   2.023  10.947  0.00  0.00    +0.000 HD
BRANCH  18  27
ATOM     26  N   UNL     1      47.393   3.184   4.969  0.00  0.00    +0.000 N 
ATOM     27  C   UNL     1      47.540   2.328   6.028  0.00  0.00    +0.000 C 
ATOM     28  O   UNL     1      48.351   1.416   5.997  0.00  0.00    +0.000 OA
ATOM     29  H   UNL     1      48.038   3.060   4.198  0.00  0.00    +0.000 HD
ATOM     30  H   UNL     1      46.940   4.082   5.055  0.00  0.00    +0.000 HD
ENDBRANCH  18  27
ENDBRANCH  17  22
ENDBRANCH   1  17
TORSDOF 4
ENDMDL
MODEL 4
REMARK VINA RESULT:    -7.833      2.189      2.950
REMARK INTER + INTRA:         -10.548
REMARK INTER:                  -9.920
REMARK INTRA:                  -0.628
REMARK UNBOUND:                -0.883
REMARK  Name = 
REMARK  4 active torsions:
REMARK  status: ('A' for Active; 'I' for Inactive)
REMARK    1  A    between atoms: C_2  and  C_4
REMARK    2  A    between atoms: N_8  and  C_9
REMARK    3  A    between atoms: C_9  and  C_10
REMARK    4  A    between atoms: C_15  and  C_16
REMARK                            x       y       z     vdW  Elec       q    Type
REMARK                         _______ _______ _______ _____ _____    ______ ____
ROOT
ATOM      1  C   UNL     1      45.061   6.802  11.614  0.00  0.00    +0.000 A 
ATOM      2  C   UNL     1      44.607   8.109  11.407  0.00  0.00    +0.000 A 
ATOM      3  C   UNL     1      45.309   9.183  11.947  0.00  0.00    +0.000 A 
ATOM      4  C   UNL     1      46.467   8.958  12.690  0.00  0.00    +0.000 A 
ATOM      5  F   UNL     1      47.113  10.034  13.165  0.00  0.00    +0.000 F 
ATOM      6  C   UNL     1      46.966   7.666  12.924  0.00  0.00    +0.000 A 
ATOM      7  C   UNL     1      46.231   6.598  12.370  0.00  0.00    +0.000 A 
ENDROOT
BRANCH   6   8
ATOM      8  C   UNL     1      48.203   7.420  13.700  0.00  0.00    +0.000 A 
ATOM      9  C   UNL     1      48.216   6.682  14.879  0.00  0.00    +0.000 A 
ATOM     10  N   UNL     1      49.332   6.441  15.602  0.00  0.00    +0.000 NA
ATOM     11  N   UNL     1      50.527   6.928  15.167  0.00  0.00    +0.000 NA
ATOM     12  C   UNL     1      50.586   7.653  14.037  0.00  0.00    +0.000 A 
ATOM     13  N   UNL     1      51.834   8.099  13.591  0.00  0.00    +0.000 N 
ATOM     14  C   UNL     1      49.449   7.911  13.288  0.00  0.00    +0.000 A 
ATOM     15  H   UNL     1      52.522   7.860  14.302  0.00  0.00    +0.000 HD
ATOM     16  H   UNL     1      51.832   9.090  13.379  0.00  0.00    +0.000 HD
ENDBRANCH   6   8
BRANCH   1  17
ATOM     17  C   UNL     1      44.334   5.625  11.004  0.00  0.00    +0.000 C 
BRANCH  17  22
ATOM     18  C   UNL     1      46.450   2.123   7.921  0.00  0.00    +0.000 A 
ATOM     19  C   UNL     1      45.607   1.932   9.011  0.00  0.00    +0.000 A 
ATOM     20  C   UNL     1      45.008   3.038   9.611  0.00  0.00    +0.000 A 
ATOM     21  C   UNL     1      45.267   4.314   9.124  0.00  0.00    +0.000 A 
ATOM     22  N   UNL     1      44.642   5.450   9.599  0.00  0.00    +0.000 N 
ATOM     23  N   UNL     1      46.093   4.511   8.078  0.00  0.00    +0.000 NA
ATOM     24  C   UNL     1      46.674   3.425   7.504  0.00  0.00    +0.000 A 
ATOM     25  H   UNL     1      45.078   6.245   9.141  0.00  0.00    +0.000 HD
BRANCH  18  27
ATOM     26  N   UNL     1      46.801  -0.261   7.628  0.00  0.00    +0.000 N 
ATOM     27  C   UNL     1      47.103   1.007   7.209  0.00  0.00    +0.000 C 
ATOM     28  O   UNL     1      47.856   1.199   6.267  0.00  0.00    +0.000 OA
ATOM     29  H   UNL     1      47.176  -1.020   7.072  0.00  0.00    +0.000 HD
ATOM     30  H   UNL     1      46.002  -0.465   8.211  0.00  0.00    +0.000 HD
ENDBRANCH  18  27
ENDBRANCH  17  22
ENDBRANCH   1  17
TORSDOF 4
ENDMDL
MODEL 5
REMARK VINA RESULT:    -7.819      3.504      7.521
REMARK INTER + INTRA:         -10.531
REMARK INTER:                 -10.378
REMARK INTRA:                  -0.153
REMARK UNBOUND:                -0.883
REMARK  Name = 
REMARK  4 active torsions:
REMARK  status: ('A' for Active; 'I' for Inactive)
REMARK    1  A    between atoms: C_2  and  C_4
REMARK    2  A    between atoms: N_8  and  C_9
REMARK    3  A    between atoms: C_9  and  C_10
REMARK    4  A    between atoms: C_15  and  C_16
REMARK                            x       y       z     vdW  Elec       q    Type
REMARK                         _______ _______ _______ _____ _____    ______ ____
ROOT
ATOM      1  C   UNL     1      44.878   5.250  10.630  0.00  0.00    +0.000 A 
ATOM      2  C   UNL     1      43.800   4.633  11.274  0.00  0.00    +0.000 A 
ATOM      3  C   UNL     1      43.442   3.329  10.940  0.00  0.00    +0.000 A 
ATOM      4  C   UNL     1      44.160   2.636   9.966  0.00  0.00    +0.000 A 
ATOM      5  F   UNL     1      43.783   1.375   9.704  0.00  0.00    +0.000 F 
ATOM      6  C   UNL     1      45.251   3.208   9.292  0.00  0.00    +0.000 A 
ATOM      7  C   UNL     1      45.587   4.531   9.647  0.00  0.00    +0.000 A 
ENDROOT
BRANCH   6   8
ATOM      8  C   UNL     1      46.027   2.473   8.268  0.00  0.00    +0.000 A 
ATOM      9  C   UNL     1      46.201   1.093   8.304  0.00  0.00    +0.000 A 
ATOM     10  N   UNL     1      46.902   0.400   7.379  0.00  0.00    +0.000 NA
ATOM     11  N   UNL     1      47.470   1.065   6.335  0.00  0.00    +0.000 NA
ATOM     12  C   UNL     1      47.344   2.400   6.241  0.00  0.00    +0.000 A 
ATOM     13  N   UNL     1      47.898   3.049   5.133  0.00  0.00    +0.000 N 
ATOM     14  C   UNL     1      46.632   3.123   7.184  0.00  0.00    +0.000 A 
ATOM     15  H   UNL     1      48.422   2.359   4.598  0.00  0.00    +0.000 HD
ATOM     16  H   UNL     1      48.473   3.840   5.402  0.00  0.00    +0.000 HD
ENDBRANCH   6   8
BRANCH   1  17
ATOM     17  C   UNL     1      45.305   6.650  11.005  0.00  0.00    +0.000 C 
BRANCH  17  22
ATOM     18  C   UNL     1      47.806   5.415  15.302  0.00  0.00    +0.000 A 
ATOM     19  C   UNL     1      46.775   4.732  14.664  0.00  0.00    +0.000 A 
ATOM     20  C   UNL     1      46.350   5.160  13.407  0.00  0.00    +0.000 A 
ATOM     21  C   UNL     1      46.949   6.266  12.815  0.00  0.00    +0.000 A 
ATOM     22  N   UNL     1      46.653   6.695  11.537  0.00  0.00    +0.000 N 
ATOM     23  N   UNL     1      47.938   6.942  13.430  0.00  0.00    +0.000 NA
ATOM     24  C   UNL     1      48.341   6.517  14.657  0.00  0.00    +0.000 A 
ATOM     25  H   UNL     1      47.156   7.565  11.389  0.00  0.00    +0.000 HD
BRANCH  18  27
ATOM     26  N   UNL     1      47.510   5.175  17.700  0.00  0.00    +0.000 N 
ATOM     27  C   UNL     1      48.336   5.013  16.620  0.00  0.00    +0.000 C 
ATOM     28  O   UNL     1      49.450   4.528  16.743  0.00  0.00    +0.000 OA
ATOM     29  H   UNL     1      47.845   4.806  18.582  0.00  0.00    +0.000 HD
ATOM     30  H   UNL     1      46.515   5.319  17.606  0.00  0.00    +0.000 HD
ENDBRANCH  18  27
ENDBRANCH  17  22
ENDBRANCH   1  17
TORSDOF 4
ENDMDL
MODEL 6
REMARK VINA RESULT:    -7.274      5.375      8.085
REMARK INTER + INTRA:          -9.858
REMARK INTER:                  -9.072
REMARK INTRA:                  -0.787
REMARK UNBOUND:                -0.883
REMARK  Name = 
REMARK  4 active torsions:
REMARK  status: ('A' for Active; 'I' for Inactive)
REMARK    1  A    between atoms: C_2  and  C_4
REMARK    2  A    between atoms: N_8  and  C_9
REMARK    3  A    between atoms: C_9  and  C_10
REMARK    4  A    between atoms: C_15  and  C_16
REMARK                            x       y       z     vdW  Elec       q    Type
REMARK                         _______ _______ _______ _____ _____    ______ ____
ROOT
ATOM      1  C   UNL     1      48.609   6.738  14.962  0.00  0.00    +0.000 A 
ATOM      2  C   UNL     1      49.361   7.396  13.984  0.00  0.00    +0.000 A 
ATOM      3  C   UNL     1      48.939   7.384  12.657  0.00  0.00    +0.000 A 
ATOM      4  C   UNL     1      47.765   6.720  12.302  0.00  0.00    +0.000 A 
ATOM      5  F   UNL     1      47.398   6.763  11.012  0.00  0.00    +0.000 F 
ATOM      6  C   UNL     1      46.973   6.047  13.247  0.00  0.00    +0.000 A 
ATOM      7  C   UNL     1      47.428   6.071  14.582  0.00  0.00    +0.000 A 
ENDROOT
BRANCH   6   8
ATOM      8  C   UNL     1      45.718   5.352  12.881  0.00  0.00    +0.000 A 
ATOM      9  C   UNL     1      45.596   3.966  12.889  0.00  0.00    +0.000 A 
ATOM     10  N   UNL     1      44.461   3.310  12.562  0.00  0.00    +0.000 NA
ATOM     11  N   UNL     1      43.354   4.023  12.215  0.00  0.00    +0.000 NA
ATOM     12  C   UNL     1      43.402   5.366  12.184  0.00  0.00    +0.000 A 
ATOM     13  N   UNL     1      42.237   6.072  11.869  0.00  0.00    +0.000 N 
ATOM     14  C   UNL     1      44.561   6.051  12.512  0.00  0.00    +0.000 A 
ATOM     15  H   UNL     1      41.525   5.394  11.606  0.00  0.00    +0.000 HD
ATOM     16  H   UNL     1      42.393   6.762  11.144  0.00  0.00    +0.000 HD
ENDBRANCH   6   8
BRANCH   1  17
ATOM     17  C   UNL     1      49.030   6.771  16.414  0.00  0.00    +0.000 C 
BRANCH  17  22
ATOM     18  C   UNL     1      51.489   2.429  17.573  0.00  0.00    +0.000 A 
ATOM     19  C   UNL     1      51.972   3.733  17.574  0.00  0.00    +0.000 A 
ATOM     20  C   UNL     1      51.082   4.790  17.388  0.00  0.00    +0.000 A 
ATOM     21  C   UNL     1      49.731   4.529  17.191  0.00  0.00    +0.000 A 
ATOM     22  N   UNL     1      48.773   5.518  17.095  0.00  0.00    +0.000 N 
ATOM     23  N   UNL     1      49.255   3.268  17.174  0.00  0.00    +0.000 NA
ATOM     24  C   UNL     1      50.134   2.247  17.354  0.00  0.00    +0.000 A 
ATOM     25  H   UNL     1      47.894   5.062  16.863  0.00  0.00    +0.000 HD
BRANCH  18  27
ATOM     26  N   UNL     1      51.744   0.088  18.166  0.00  0.00    +0.000 N 
ATOM     27  C   UNL     1      52.357   1.254  17.791  0.00  0.00    +0.000 C 
ATOM     28  O   UNL     1      53.564   1.306  17.614  0.00  0.00    +0.000 OA
ATOM     29  H   UNL     1      52.334  -0.734  18.217  0.00  0.00    +0.000 HD
ATOM     30  H   UNL     1      50.750  -0.060  18.066  0.00  0.00    +0.000 HD
ENDBRANCH  18  27
ENDBRANCH  17  22
ENDBRANCH   1  17
TORSDOF 4
ENDMDL
MODEL 7
REMARK VINA RESULT:    -6.827      4.822      8.241
REMARK INTER + INTRA:          -9.307
REMARK INTER:                  -8.705
REMARK INTRA:                  -0.602
REMARK UNBOUND:                -0.883
REMARK  Name = 
REMARK  4 active torsions:
REMARK  status: ('A' for Active; 'I' for Inactive)
REMARK    1  A    between atoms: C_2  and  C_4
REMARK    2  A    between atoms: N_8  and  C_9
REMARK    3  A    between atoms: C_9  and  C_10
REMARK    4  A    between atoms: C_15  and  C_16
REMARK                            x       y       z     vdW  Elec       q    Type
REMARK                         _______ _______ _______ _____ _____    ______ ____
ROOT
ATOM      1  C   UNL     1      47.279   7.571  13.383  0.00  0.00    +0.000 A 
ATOM      2  C   UNL     1      46.592   8.784  13.268  0.00  0.00    +0.000 A 
ATOM      3  C   UNL     1      45.461   8.870  12.461  0.00  0.00    +0.000 A 
ATOM      4  C   UNL     1      45.010   7.747  11.769  0.00  0.00    +0.000 A 
ATOM      5  F   UNL     1      43.901   7.886  11.025  0.00  0.00    +0.000 F 
ATOM      6  C   UNL     1      45.661   6.506  11.852  0.00  0.00    +0.000 A 
ATOM      7  C   UNL     1      46.807   6.450  12.673  0.00  0.00    +0.000 A 
ENDROOT
BRANCH   6   8
ATOM      8  C   UNL     1      45.180   5.305  11.132  0.00  0.00    +0.000 A 
ATOM      9  C   UNL     1      45.394   5.108   9.771  0.00  0.00    +0.000 A 
ATOM     10  N   UNL     1      44.966   4.019   9.094  0.00  0.00    +0.000 NA
ATOM     11  N   UNL     1      44.298   3.038   9.760  0.00  0.00    +0.000 NA
ATOM     12  C   UNL     1      44.054   3.165  11.076  0.00  0.00    +0.000 A 
ATOM     13  N   UNL     1      43.406   2.120  11.742  0.00  0.00    +0.000 N 
ATOM     14  C   UNL     1      44.482   4.278  11.782  0.00  0.00    +0.000 A 
ATOM     15  H   UNL     1      43.126   1.434  11.045  0.00  0.00    +0.000 HD
ATOM     16  H   UNL     1      42.621   2.447  12.293  0.00  0.00    +0.000 HD
ENDBRANCH   6   8
BRANCH   1  17
ATOM     17  C   UNL     1      48.487   7.448  14.284  0.00  0.00    +0.000 C 
BRANCH  17  22
ATOM     18  C   UNL     1      51.026   4.574  17.680  0.00  0.00    +0.000 A 
ATOM     19  C   UNL     1      51.419   5.763  17.076  0.00  0.00    +0.000 A 
ATOM     20  C   UNL     1      50.499   6.472  16.304  0.00  0.00    +0.000 A 
ATOM     21  C   UNL     1      49.210   5.978  16.138  0.00  0.00    +0.000 A 
ATOM     22  N   UNL     1      48.215   6.664  15.472  0.00  0.00    +0.000 N 
ATOM     23  N   UNL     1      48.824   4.820  16.708  0.00  0.00    +0.000 NA
ATOM     24  C   UNL     1      49.731   4.137  17.455  0.00  0.00    +0.000 A 
ATOM     25  H   UNL     1      47.410   6.045  15.417  0.00  0.00    +0.000 HD
BRANCH  18  27
ATOM     26  N   UNL     1      51.974   4.101  19.865  0.00  0.00    +0.000 N 
ATOM     27  C   UNL     1      51.926   3.775  18.536  0.00  0.00    +0.000 C 
ATOM     28  O   UNL     1      52.578   2.844  18.089  0.00  0.00    +0.000 OA
ATOM     29  H   UNL     1      52.518   3.487  20.459  0.00  0.00    +0.000 HD
ATOM     30  H   UNL     1      51.271   4.673  20.310  0.00  0.00    +0.000 HD
ENDBRANCH  18  27
ENDBRANCH  17  22
ENDBRANCH   1  17
TORSDOF 4
ENDMDL
MODEL 8
REMARK VINA RESULT:    -6.745      3.622      7.601
REMARK INTER + INTRA:          -9.206
REMARK INTER:                  -8.691
REMARK INTRA:                  -0.515
REMARK UNBOUND:                -0.883
REMARK  Name = 
REMARK  4 active torsions:
REMARK  status: ('A' for Active; 'I' for Inactive)
REMARK    1  A    between atoms: C_2  and  C_4
REMARK    2  A    between atoms: N_8  and  C_9
REMARK    3  A    between atoms: C_9  and  C_10
REMARK    4  A    between atoms: C_15  and  C_16
REMARK                            x       y       z     vdW  Elec       q    Type
REMARK                         _______ _______ _______ _____ _____    ______ ____
ROOT
ATOM      1  C   UNL     1      44.727   5.770  11.477  0.00  0.00    +0.000 A 
ATOM      2  C   UNL     1      43.760   5.089  12.224  0.00  0.00    +0.000 A 
ATOM      3  C   UNL     1      43.378   3.801  11.859  0.00  0.00    +0.000 A 
ATOM      4  C   UNL     1      43.960   3.187  10.751  0.00  0.00    +0.000 A 
ATOM      5  F   UNL     1      43.568   1.936  10.462  0.00  0.00    +0.000 F 
ATOM      6  C   UNL     1      44.937   3.826   9.969  0.00  0.00    +0.000 A 
ATOM      7  C   UNL     1      45.300   5.132  10.360  0.00  0.00    +0.000 A 
ENDROOT
BRANCH   6   8
ATOM      8  C   UNL     1      45.571   3.176   8.800  0.00  0.00    +0.000 A 
ATOM      9  C   UNL     1      45.930   3.877   7.653  0.00  0.00    +0.000 A 
ATOM     10  N   UNL     1      46.512   3.306   6.575  0.00  0.00    +0.000 NA
ATOM     11  N   UNL     1      46.785   1.972   6.592  0.00  0.00    +0.000 NA
ATOM     12  C   UNL     1      46.462   1.233   7.668  0.00  0.00    +0.000 A 
ATOM     13  N   UNL     1      46.797  -0.124   7.674  0.00  0.00    +0.000 N 
ATOM     14  C   UNL     1      45.860   1.805   8.778  0.00  0.00    +0.000 A 
ATOM     15  H   UNL     1      47.171  -0.356   6.757  0.00  0.00    +0.000 HD
ATOM     16  H   UNL     1      46.010  -0.711   7.925  0.00  0.00    +0.000 HD
ENDBRANCH   6   8
BRANCH   1  17
ATOM     17  C   UNL     1      45.183   7.154  11.880  0.00  0.00    +0.000 C 
BRANCH  17  22
ATOM     18  C   UNL     1      49.405   7.110  14.781  0.00  0.00    +0.000 A 
ATOM     19  C   UNL     1      48.286   6.287  14.855  0.00  0.00    +0.000 A 
ATOM     20  C   UNL     1      47.317   6.362  13.855  0.00  0.00    +0.000 A 
ATOM     21  C   UNL     1      47.475   7.262  12.807  0.00  0.00    +0.000 A 
ATOM     22  N   UNL     1      46.613   7.332  11.731  0.00  0.00    +0.000 N 
ATOM     23  N   UNL     1      48.548   8.073  12.734  0.00  0.00    +0.000 NA
ATOM     24  C   UNL     1      49.483   7.992  13.717  0.00  0.00    +0.000 A 
ATOM     25  H   UNL     1      46.902   8.126  11.167  0.00  0.00    +0.000 HD
BRANCH  18  27
ATOM     26  N   UNL     1      50.516   6.005  16.636  0.00  0.00    +0.000 N 
ATOM     27  C   UNL     1      50.490   7.075  15.782  0.00  0.00    +0.000 C 
ATOM     28  O   UNL     1      51.347   7.943  15.829  0.00  0.00    +0.000 OA
ATOM     29  H   UNL     1      51.318   5.941  17.252  0.00  0.00    +0.000 HD
ATOM     30  H   UNL     1      49.997   5.157  16.461  0.00  0.00    +0.000 HD
ENDBRANCH  18  27
ENDBRANCH  17  22
ENDBRANCH   1  17
TORSDOF 4
ENDMDL
MODEL 9
REMARK VINA RESULT:    -6.581      4.670      8.556
REMARK INTER + INTRA:          -9.003
REMARK INTER:                  -8.132
REMARK INTRA:                  -0.871
REMARK UNBOUND:                -0.883
REMARK  Name = 
REMARK  4 active torsions:
REMARK  status: ('A' for Active; 'I' for Inactive)
REMARK    1  A    between atoms: C_2  and  C_4
REMARK    2  A    between atoms: N_8  and  C_9
REMARK    3  A    between atoms: C_9  and  C_10
REMARK    4  A    between atoms: C_15  and  C_16
REMARK                            x       y       z     vdW  Elec       q    Type
REMARK                         _______ _______ _______ _____ _____    ______ ____
ROOT
ATOM      1  C   UNL     1      47.806   7.429  12.617  0.00  0.00    +0.000 A 
ATOM      2  C   UNL     1      47.208   8.685  12.471  0.00  0.00    +0.000 A 
ATOM      3  C   UNL     1      45.892   8.783  12.027  0.00  0.00    +0.000 A 
ATOM      4  C   UNL     1      45.167   7.629  11.731  0.00  0.00    +0.000 A 
ATOM      5  F   UNL     1      43.896   7.785  11.330  0.00  0.00    +0.000 F 
ATOM      6  C   UNL     1      45.720   6.344  11.864  0.00  0.00    +0.000 A 
ATOM      7  C   UNL     1      47.056   6.277  12.310  0.00  0.00    +0.000 A 
ENDROOT
BRANCH   6   8
ATOM      8  C   UNL     1      44.952   5.114  11.566  0.00  0.00    +0.000 A 
ATOM      9  C   UNL     1      44.130   4.495  12.504  0.00  0.00    +0.000 A 
ATOM     10  N   UNL     1      43.418   3.374  12.254  0.00  0.00    +0.000 NA
ATOM     11  N   UNL     1      43.481   2.804  11.019  0.00  0.00    +0.000 NA
ATOM     12  C   UNL     1      44.258   3.348  10.067  0.00  0.00    +0.000 A 
ATOM     13  N   UNL     1      44.265   2.767   8.795  0.00  0.00    +0.000 N 
ATOM     14  C   UNL     1      44.997   4.495  10.310  0.00  0.00    +0.000 A 
ATOM     15  H   UNL     1      43.712   1.914   8.840  0.00  0.00    +0.000 HD
ATOM     16  H   UNL     1      45.205   2.596   8.459  0.00  0.00    +0.000 HD
ENDBRANCH   6   8
BRANCH   1  17
ATOM     17  C   UNL     1      49.221   7.301  13.134  0.00  0.00    +0.000 C 
BRANCH  17  22
ATOM     18  C   UNL     1      48.383   6.866  18.169  0.00  0.00    +0.000 A 
ATOM     19  C   UNL     1      48.780   5.889  17.262  0.00  0.00    +0.000 A 
ATOM     20  C   UNL     1      49.114   6.262  15.961  0.00  0.00    +0.000 A 
ATOM     21  C   UNL     1      49.036   7.598  15.584  0.00  0.00    +0.000 A 
ATOM     22  N   UNL     1      49.439   8.062  14.348  0.00  0.00    +0.000 N 
ATOM     23  N   UNL     1      48.639   8.550  16.450  0.00  0.00    +0.000 NA
ATOM     24  C   UNL     1      48.312   8.172  17.715  0.00  0.00    +0.000 A 
ATOM     25  H   UNL     1      49.189   9.047  14.302  0.00  0.00    +0.000 HD
BRANCH  18  27
ATOM     26  N   UNL     1      47.001   5.694  19.785  0.00  0.00    +0.000 N 
ATOM     27  C   UNL     1      48.039   6.562  19.572  0.00  0.00    +0.000 C 
ATOM     28  O   UNL     1      48.668   7.036  20.505  0.00  0.00    +0.000 OA
ATOM     29  H   UNL     1      46.837   5.417  20.746  0.00  0.00    +0.000 HD
ATOM     30  H   UNL     1      46.639   5.091  19.061  0.00  0.00    +0.000 HD
ENDBRANCH  18  27
ENDBRANCH  17  22
ENDBRANCH   1  17
TORSDOF 4
ENDMDL
