MODEL 1
REMARK VINA RESULT:    -8.156      0.000      0.000
REMARK INTER + INTRA:         -12.922
REMARK INTER:                 -11.493
REMARK INTRA:                  -1.429
REMARK UNBOUND:                -1.429
REMARK  Name = 
REMARK  7 active torsions:
REMARK  status: ('A' for Active; 'I' for Inactive)
REMARK    1  A    between atoms: C_2  and  C_4
REMARK    2  A    between atoms: C_7  and  C_8
REMARK    3  A    between atoms: C_8  and  N_9
REMARK    4  A    between atoms: C_10  and  C_12
REMARK    5  A    between atoms: C_23  and  C_24
REMARK    6  A    between atoms: C_24  and  N_25
REMARK    7  A    between atoms: C_26  and  C_28
REMARK                            x       y       z     vdW  Elec       q    Type
REMARK                         _______ _______ _______ _____ _____    ______ ____
ROOT
ATOM      1  C   UNL     1      45.361   4.876  12.727  0.00  0.00    +0.000 A 
ATOM      2  C   UNL     1      46.187   5.037  13.853  0.00  0.00    +0.000 A 
ATOM      3  C   UNL     1      47.276   5.913  13.823  0.00  0.00    +0.000 A 
ATOM      4  C   UNL     1      47.575   6.630  12.661  0.00  0.00    +0.000 A 
ATOM      5  C   UNL     1      46.768   6.448  11.529  0.00  0.00    +0.000 A 
ATOM      6  C   UNL     1      45.639   5.604  11.551  0.00  0.00    +0.000 A 
ENDROOT
BRANCH   1   8
ATOM      7  N   UNL     1      44.522   2.604  12.412  0.00  0.00    +0.000 N 
ATOM      8  C   UNL     1      44.242   3.890  12.789  0.00  0.00    +0.000 C 
ATOM      9  O   UNL     1      43.115   4.200  13.159  0.00  0.00    +0.000 OA
ATOM     10  H   UNL     1      43.779   1.921  12.491  0.00  0.00    +0.000 HD
ATOM     11  H   UNL     1      45.457   2.266  12.229  0.00  0.00    +0.000 HD
ENDBRANCH   1   8
BRANCH   4  12
ATOM     12  C   UNL     1      48.776   7.537  12.602  0.00  0.00    +0.000 C 
BRANCH  12  13
ATOM     13  N   UNL     1      49.803   7.085  13.501  0.00  0.00    +0.000 N 
ATOM     14  C   UNL     1      50.041   7.725  14.690  0.00  0.00    +0.000 C 
ATOM     15  O   UNL     1      49.355   8.672  15.066  0.00  0.00    +0.000 OA
ATOM     16  H   UNL     1      50.527   6.491  13.107  0.00  0.00    +0.000 HD
BRANCH  14  17
ATOM     17  C   UNL     1      51.114   7.174  15.528  0.00  0.00    +0.000 A 
ATOM     18  C   UNL     1      52.431   7.550  15.296  0.00  0.00    +0.000 A 
ATOM     19  S   UNL     1      53.540   6.877  16.402  0.00  0.00    +0.000 S 
ATOM     20  C   UNL     1      52.307   6.015  17.197  0.00  0.00    +0.000 A 
ATOM     21  N   UNL     1      52.588   5.206  18.253  0.00  0.00    +0.000 NA
ATOM     22  C   UNL     1      51.563   4.585  18.737  0.00  0.00    +0.000 A 
ATOM     23  N   UNL     1      50.283   4.703  18.263  0.00  0.00    +0.000 N 
ATOM     24  C   UNL     1      49.947   5.537  17.223  0.00  0.00    +0.000 A 
ATOM     25  O   UNL     1      48.782   5.659  16.853  0.00  0.00    +0.000 OA
ATOM     26  C   UNL     1      51.064   6.249  16.634  0.00  0.00    +0.000 A 
ATOM     27  H   UNL     1      49.523   4.196  18.690  0.00  0.00    +0.000 HD
ENDBRANCH  14  17
ENDBRANCH  12  13
ENDBRANCH   4  12
BRANCH   6  28
ATOM     28  C   UNL     1      44.788   5.536  10.307  0.00  0.00    +0.000 C 
BRANCH  28  29
ATOM     29  N   UNL     1      45.433   4.793   9.256  0.00  0.00    +0.000 N 
ATOM     30  C   UNL     1      45.111   3.497   8.947  0.00  0.00    +0.000 C 
ATOM     31  O   UNL     1      44.216   2.875   9.514  0.00  0.00    +0.000 OA
ATOM     32  H   UNL     1      46.101   5.304   8.695  0.00  0.00    +0.000 HD
BRANCH  30  33
ATOM     33  C   UNL     1      45.914   2.901   7.900  0.00  0.00    +0.000 A 
ATOM     34  C   UNL     1      46.383   3.401   6.695  0.00  0.00    +0.000 A 
ATOM     35  C   UNL     1      47.150   2.393   6.062  0.00  0.00    +0.000 A 
ATOM     36  C   UNL     1      47.140   1.296   6.891  0.00  0.00    +0.000 A 
ATOM     37  N   UNL     1      46.406   1.615   8.002  0.00  0.00    +0.000 N 
ATOM     38  H   UNL     1      46.243   1.016   8.803  0.00  0.00    +0.000 HD
ENDBRANCH  30  33
ENDBRANCH  28  29
ENDBRANCH   6  28
TORSDOF 7
ENDMDL
MODEL 2
REMARK VINA RESULT:    -8.092      2.722      3.314
REMARK INTER + INTRA:         -12.832
REMARK INTER:                 -12.136
REMARK INTRA:                  -0.696
REMARK UNBOUND:                -1.429
REMARK  Name = 
REMARK  7 active torsions:
REMARK  status: ('A' for Active; 'I' for Inactive)
REMARK    1  A    between atoms: C_2  and  C_4
REMARK    2  A    between atoms: C_7  and  C_8
REMARK    3  A    between atoms: C_8  and  N_9
REMARK    4  A    between atoms: C_10  and  C_12
REMARK    5  A    between atoms: C_23  and  C_24
REMARK    6  A    between atoms: C_24  and  N_25
REMARK    7  A    between atoms: C_26  and  C_28
REMARK                            x       y       z     vdW  Elec       q    Type
REMARK                         _______ _______ _______ _____ _____    ______ ____
ROOT
ATOM      1  C   UNL     1      45.182   6.686  12.060  0.00  0.00    +0.000 A 
ATOM      2  C   UNL     1      46.049   7.043  13.108  0.00  0.00    +0.000 A 
ATOM      3  C   UNL     1      46.717   6.064  13.849  0.00  0.00    +0.000 A 
ATOM      4  C   UNL     1      46.516   4.709  13.573  0.00  0.00    +0.000 A 
ATOM      5  C   UNL     1      45.630   4.352  12.547  0.00  0.00    +0.000 A 
ATOM      6  C   UNL     1      44.981   5.323  11.758  0.00  0.00    +0.000 A 
ENDROOT
BRANCH   1   8
ATOM      7  N   UNL     1      43.127   7.542  11.054  0.00  0.00    +0.000 N 
ATOM      8  C   UNL     1      44.450   7.764  11.331  0.00  0.00    +0.000 C 
ATOM      9  O   UNL     1      44.992   8.808  10.988  0.00  0.00    +0.000 OA
ATOM     10  H   UNL     1      42.614   8.286  10.598  0.00  0.00    +0.000 HD
ATOM     11  H   UNL     1      42.600   6.765  11.428  0.00  0.00    +0.000 HD
ENDBRANCH   1   8
BRANCH   4  12
ATOM     12  C   UNL     1      47.192   3.645  14.399  0.00  0.00    +0.000 C 
BRANCH  12  13
ATOM     13  N   UNL     1      47.835   4.223  15.549  0.00  0.00    +0.000 N 
ATOM     14  C   UNL     1      47.374   3.981  16.818  0.00  0.00    +0.000 C 
ATOM     15  O   UNL     1      46.435   3.219  17.033  0.00  0.00    +0.000 OA
ATOM     16  H   UNL     1      48.425   5.032  15.384  0.00  0.00    +0.000 HD
BRANCH  14  17
ATOM     17  C   UNL     1      48.110   4.621  17.915  0.00  0.00    +0.000 A 
ATOM     18  C   UNL     1      47.483   5.586  18.693  0.00  0.00    +0.000 A 
ATOM     19  S   UNL     1      48.453   6.174  19.966  0.00  0.00    +0.000 S 
ATOM     20  C   UNL     1      49.765   5.201  19.490  0.00  0.00    +0.000 A 
ATOM     21  N   UNL     1      50.944   5.237  20.166  0.00  0.00    +0.000 NA
ATOM     22  C   UNL     1      51.864   4.475  19.674  0.00  0.00    +0.000 A 
ATOM     23  N   UNL     1      51.710   3.677  18.570  0.00  0.00    +0.000 N 
ATOM     24  C   UNL     1      50.525   3.581  17.879  0.00  0.00    +0.000 A 
ATOM     25  O   UNL     1      50.404   2.820  16.923  0.00  0.00    +0.000 OA
ATOM     26  C   UNL     1      49.462   4.428  18.383  0.00  0.00    +0.000 A 
ATOM     27  H   UNL     1      52.467   3.098  18.238  0.00  0.00    +0.000 HD
ENDBRANCH  14  17
ENDBRANCH  12  13
ENDBRANCH   4  12
BRANCH   6  28
ATOM     28  C   UNL     1      44.108   4.839  10.626  0.00  0.00    +0.000 C 
BRANCH  28  29
ATOM     29  N   UNL     1      44.886   4.340   9.523  0.00  0.00    +0.000 N 
ATOM     30  C   UNL     1      44.918   3.017   9.165  0.00  0.00    +0.000 C 
ATOM     31  O   UNL     1      44.251   2.154   9.731  0.00  0.00    +0.000 OA
ATOM     32  H   UNL     1      45.365   5.034   8.966  0.00  0.00    +0.000 HD
BRANCH  30  33
ATOM     33  C   UNL     1      45.808   2.701   8.068  0.00  0.00    +0.000 A 
ATOM     34  C   UNL     1      46.206   3.433   6.960  0.00  0.00    +0.000 A 
ATOM     35  C   UNL     1      47.120   2.649   6.214  0.00  0.00    +0.000 A 
ATOM     36  C   UNL     1      47.268   1.454   6.880  0.00  0.00    +0.000 A 
ATOM     37  N   UNL     1      46.486   1.500   8.003  0.00  0.00    +0.000 N 
ATOM     38  H   UNL     1      46.408   0.775   8.707  0.00  0.00    +0.000 HD
ENDBRANCH  30  33
ENDBRANCH  28  29
ENDBRANCH   6  28
TORSDOF 7
ENDMDL
MODEL 3
REMARK VINA RESULT:    -8.070      2.013      2.304
REMARK INTER + INTRA:         -12.801
REMARK INTER:                 -11.511
REMARK INTRA:                  -1.291
REMARK UNBOUND:                -1.429
REMARK  Name = 
REMARK  7 active torsions:
REMARK  status: ('A' for Active; 'I' for Inactive)
REMARK    1  A    between atoms: C_2  and  C_4
REMARK    2  A    between atoms: C_7  and  C_8
REMARK    3  A    between atoms: C_8  and  N_9
REMARK    4  A    between atoms: C_10  and  C_12
REMARK    5  A    between atoms: C_23  and  C_24
REMARK    6  A    between atoms: C_24  and  N_25
REMARK    7  A    between atoms: C_26  and  C_28
REMARK                            x       y       z     vdW  Elec       q    Type
REMARK                         _______ _______ _______ _____ _____    ______ ____
ROOT
ATOM      1  C   UNL     1      44.908   4.632  12.166  0.00  0.00    +0.000 A 
ATOM      2  C   UNL     1      45.302   4.434  13.501  0.00  0.00    +0.000 A 
ATOM      3  C   UNL     1      46.396   5.121  14.034  0.00  0.00    +0.000 A 
ATOM      4  C   UNL     1      47.132   6.004  13.239  0.00  0.00    +0.000 A 
ATOM      5  C   UNL     1      46.757   6.181  11.900  0.00  0.00    +0.000 A 
ATOM      6  C   UNL     1      45.630   5.533  11.355  0.00  0.00    +0.000 A 
ENDROOT
BRANCH   1   8
ATOM      7  N   UNL     1      44.025   2.541  11.265  0.00  0.00    +0.000 N 
ATOM      8  C   UNL     1      43.766   3.837  11.625  0.00  0.00    +0.000 C 
ATOM      9  O   UNL     1      42.641   4.306  11.502  0.00  0.00    +0.000 OA
ATOM     10  H   UNL     1      43.246   1.984  10.937  0.00  0.00    +0.000 HD
ATOM     11  H   UNL     1      44.893   2.067  11.469  0.00  0.00    +0.000 HD
ENDBRANCH   1   8
BRANCH   4  12
ATOM     12  C   UNL     1      48.343   6.711  13.790  0.00  0.00    +0.000 C 
BRANCH  12  13
ATOM     13  N   UNL     1      48.262   6.825  15.222  0.00  0.00    +0.000 N 
ATOM     14  C   UNL     1      49.380   6.720  16.008  0.00  0.00    +0.000 C 
ATOM     15  O   UNL     1      50.502   6.584  15.527  0.00  0.00    +0.000 OA
ATOM     16  H   UNL     1      47.348   6.681  15.641  0.00  0.00    +0.000 HD
BRANCH  14  17
ATOM     17  C   UNL     1      49.177   6.855  17.456  0.00  0.00    +0.000 A 
ATOM     18  C   UNL     1      49.173   8.117  18.036  0.00  0.00    +0.000 A 
ATOM     19  S   UNL     1      48.852   8.101  19.710  0.00  0.00    +0.000 S 
ATOM     20  C   UNL     1      48.761   6.402  19.732  0.00  0.00    +0.000 A 
ATOM     21  N   UNL     1      48.522   5.728  20.889  0.00  0.00    +0.000 NA
ATOM     22  C   UNL     1      48.515   4.442  20.765  0.00  0.00    +0.000 A 
ATOM     23  N   UNL     1      48.721   3.769  19.589  0.00  0.00    +0.000 N 
ATOM     24  C   UNL     1      48.928   4.409  18.390  0.00  0.00    +0.000 A 
ATOM     25  O   UNL     1      49.061   3.779  17.344  0.00  0.00    +0.000 OA
ATOM     26  C   UNL     1      48.959   5.856  18.475  0.00  0.00    +0.000 A 
ATOM     27  H   UNL     1      48.696   2.761  19.557  0.00  0.00    +0.000 HD
ENDBRANCH  14  17
ENDBRANCH  12  13
ENDBRANCH   4  12
BRANCH   6  28
ATOM     28  C   UNL     1      45.261   5.849   9.926  0.00  0.00    +0.000 C 
BRANCH  28  29
ATOM     29  N   UNL     1      45.952   5.000   8.992  0.00  0.00    +0.000 N 
ATOM     30  C   UNL     1      45.332   4.007   8.279  0.00  0.00    +0.000 C 
ATOM     31  O   UNL     1      44.125   3.787   8.348  0.00  0.00    +0.000 OA
ATOM     32  H   UNL     1      46.925   5.219   8.828  0.00  0.00    +0.000 HD
BRANCH  30  33
ATOM     33  C   UNL     1      46.208   3.219   7.438  0.00  0.00    +0.000 A 
ATOM     34  C   UNL     1      46.766   3.469   6.193  0.00  0.00    +0.000 A 
ATOM     35  C   UNL     1      47.575   2.362   5.838  0.00  0.00    +0.000 A 
ATOM     36  C   UNL     1      47.500   1.457   6.871  0.00  0.00    +0.000 A 
ATOM     37  N   UNL     1      46.688   1.987   7.836  0.00  0.00    +0.000 N 
ATOM     38  H   UNL     1      46.464   1.563   8.729  0.00  0.00    +0.000 HD
ENDBRANCH  30  33
ENDBRANCH  28  29
ENDBRANCH   6  28
TORSDOF 7
ENDMDL
MODEL 4
REMARK VINA RESULT:    -7.984      2.915      5.708
REMARK INTER + INTRA:         -12.680
REMARK INTER:                 -10.470
REMARK INTRA:                  -2.210
REMARK UNBOUND:                -1.429
REMARK  Name = 
REMARK  7 active torsions:
REMARK  status: ('A' for Active; 'I' for Inactive)
REMARK    1  A    between atoms: C_2  and  C_4
REMARK    2  A    between atoms: C_7  and  C_8
REMARK    3  A    between atoms: C_8  and  N_9
REMARK    4  A    between atoms: C_10  and  C_12
REMARK    5  A    between atoms: C_23  and  C_24
REMARK    6  A    between atoms: C_24  and  N_25
REMARK    7  A    between atoms: C_26  and  C_28
REMARK                            x       y       z     vdW  Elec       q    Type
REMARK                         _______ _______ _______ _____ _____    ______ ____
ROOT
ATOM      1  C   UNL     1      44.856   4.632  12.031  0.00  0.00    +0.000 A 
ATOM      2  C   UNL     1      44.221   5.690  11.358  0.00  0.00    +0.000 A 
ATOM      3  C   UNL     1      44.582   7.017  11.608  0.00  0.00    +0.000 A 
ATOM      4  C   UNL     1      45.570   7.315  12.551  0.00  0.00    +0.000 A 
ATOM      5  C   UNL     1      46.184   6.262  13.242  0.00  0.00    +0.000 A 
ATOM      6  C   UNL     1      45.867   4.915  12.973  0.00  0.00    +0.000 A 
ENDROOT
BRANCH   1   8
ATOM      7  N   UNL     1      44.876   2.624  10.640  0.00  0.00    +0.000 N 
ATOM      8  C   UNL     1      44.400   3.234  11.770  0.00  0.00    +0.000 C 
ATOM      9  O   UNL     1      43.634   2.643  12.522  0.00  0.00    +0.000 OA
ATOM     10  H   UNL     1      44.605   1.663  10.479  0.00  0.00    +0.000 HD
ATOM     11  H   UNL     1      45.608   3.012  10.061  0.00  0.00    +0.000 HD
ENDBRANCH   1   8
BRANCH   4  12
ATOM     12  C   UNL     1      45.930   8.743  12.864  0.00  0.00    +0.000 C 
BRANCH  12  13
ATOM     13  N   UNL     1      46.797   8.813  14.011  0.00  0.00    +0.000 N 
ATOM     14  C   UNL     1      48.013   9.443  13.946  0.00  0.00    +0.000 C 
ATOM     15  O   UNL     1      48.390  10.024  12.932  0.00  0.00    +0.000 OA
ATOM     16  H   UNL     1      46.628   8.140  14.752  0.00  0.00    +0.000 HD
BRANCH  14  17
ATOM     17  C   UNL     1      48.811   9.453  15.179  0.00  0.00    +0.000 A 
ATOM     18  C   UNL     1      49.004  10.645  15.865  0.00  0.00    +0.000 A 
ATOM     19  S   UNL     1      49.890  10.468  17.310  0.00  0.00    +0.000 S 
ATOM     20  C   UNL     1      50.097   8.800  17.043  0.00  0.00    +0.000 A 
ATOM     21  N   UNL     1      50.798   8.033  17.921  0.00  0.00    +0.000 NA
ATOM     22  C   UNL     1      50.906   6.793  17.575  0.00  0.00    +0.000 A 
ATOM     23  N   UNL     1      50.373   6.250  16.435  0.00  0.00    +0.000 N 
ATOM     24  C   UNL     1      49.626   6.979  15.541  0.00  0.00    +0.000 A 
ATOM     25  O   UNL     1      49.120   6.452  14.553  0.00  0.00    +0.000 OA
ATOM     26  C   UNL     1      49.485   8.382  15.875  0.00  0.00    +0.000 A 
ATOM     27  H   UNL     1      50.487   5.269  16.225  0.00  0.00    +0.000 HD
ENDBRANCH  14  17
ENDBRANCH  12  13
ENDBRANCH   4  12
BRANCH   6  28
ATOM     28  C   UNL     1      46.639   3.850  13.714  0.00  0.00    +0.000 C 
BRANCH  28  29
ATOM     29  N   UNL     1      46.944   4.248  15.062  0.00  0.00    +0.000 N 
ATOM     30  C   UNL     1      47.743   3.513  15.900  0.00  0.00    +0.000 C 
ATOM     31  O   UNL     1      48.299   2.473  15.553  0.00  0.00    +0.000 OA
ATOM     32  H   UNL     1      46.593   5.151  15.351  0.00  0.00    +0.000 HD
BRANCH  30  33
ATOM     33  C   UNL     1      47.881   4.047  17.238  0.00  0.00    +0.000 A 
ATOM     34  C   UNL     1      48.665   3.656  18.314  0.00  0.00    +0.000 A 
ATOM     35  C   UNL     1      48.429   4.552  19.385  0.00  0.00    +0.000 A 
ATOM     36  C   UNL     1      47.509   5.475  18.946  0.00  0.00    +0.000 A 
ATOM     37  N   UNL     1      47.196   5.173  17.648  0.00  0.00    +0.000 N 
ATOM     38  H   UNL     1      46.565   5.692  17.049  0.00  0.00    +0.000 HD
ENDBRANCH  30  33
ENDBRANCH  28  29
ENDBRANCH   6  28
TORSDOF 7
ENDMDL
MODEL 5
REMARK VINA RESULT:    -7.876      2.654      3.478
REMARK INTER + INTRA:         -12.528
REMARK INTER:                 -11.623
REMARK INTRA:                  -0.905
REMARK UNBOUND:                -1.429
REMARK  Name = 
REMARK  7 active torsions:
REMARK  status: ('A' for Active; 'I' for Inactive)
REMARK    1  A    between atoms: C_2  and  C_4
REMARK    2  A    between atoms: C_7  and  C_8
REMARK    3  A    between atoms: C_8  and  N_9
REMARK    4  A    between atoms: C_10  and  C_12
REMARK    5  A    between atoms: C_23  and  C_24
REMARK    6  A    between atoms: C_24  and  N_25
REMARK    7  A    between atoms: C_26  and  C_28
REMARK                            x       y       z     vdW  Elec       q    Type
REMARK                         _______ _______ _______ _____ _____    ______ ____
ROOT
ATOM      1  C   UNL     1      44.611   5.412  12.204  0.00  0.00    +0.000 A 
ATOM      2  C   UNL     1      45.363   6.159  13.127  0.00  0.00    +0.000 A 
ATOM      3  C   UNL     1      46.321   5.540  13.936  0.00  0.00    +0.000 A 
ATOM      4  C   UNL     1      46.531   4.161  13.856  0.00  0.00    +0.000 A 
ATOM      5  C   UNL     1      45.761   3.412  12.956  0.00  0.00    +0.000 A 
ATOM      6  C   UNL     1      44.822   4.021  12.098  0.00  0.00    +0.000 A 
ENDROOT
BRANCH   1   8
ATOM      7  N   UNL     1      43.785   7.422  11.089  0.00  0.00    +0.000 N 
ATOM      8  C   UNL     1      43.563   6.107  11.398  0.00  0.00    +0.000 C 
ATOM      9  O   UNL     1      42.543   5.541  11.023  0.00  0.00    +0.000 OA
ATOM     10  H   UNL     1      43.099   7.887  10.508  0.00  0.00    +0.000 HD
ATOM     11  H   UNL     1      44.662   7.895  11.256  0.00  0.00    +0.000 HD
ENDBRANCH   1   8
BRANCH   4  12
ATOM     12  C   UNL     1      47.524   3.478  14.760  0.00  0.00    +0.000 C 
BRANCH  12  13
ATOM     13  N   UNL     1      47.648   4.182  16.008  0.00  0.00    +0.000 N 
ATOM     14  C   UNL     1      48.641   3.874  16.903  0.00  0.00    +0.000 C 
ATOM     15  O   UNL     1      49.498   3.030  16.656  0.00  0.00    +0.000 OA
ATOM     16  H   UNL     1      46.827   4.683  16.334  0.00  0.00    +0.000 HD
BRANCH  14  17
ATOM     17  C   UNL     1      48.672   4.661  18.142  0.00  0.00    +0.000 A 
ATOM     18  C   UNL     1      48.621   4.012  19.370  0.00  0.00    +0.000 A 
ATOM     19  S   UNL     1      48.740   5.065  20.705  0.00  0.00    +0.000 S 
ATOM     20  C   UNL     1      48.808   6.431  19.692  0.00  0.00    +0.000 A 
ATOM     21  N   UNL     1      48.900   7.684  20.213  0.00  0.00    +0.000 NA
ATOM     22  C   UNL     1      48.906   8.628  19.330  0.00  0.00    +0.000 A 
ATOM     23  N   UNL     1      48.833   8.432  17.976  0.00  0.00    +0.000 N 
ATOM     24  C   UNL     1      48.778   7.183  17.405  0.00  0.00    +0.000 A 
ATOM     25  O   UNL     1      48.763   7.038  16.186  0.00  0.00    +0.000 OA
ATOM     26  C   UNL     1      48.755   6.086  18.353  0.00  0.00    +0.000 A 
ATOM     27  H   UNL     1      48.850   9.213  17.337  0.00  0.00    +0.000 HD
ENDBRANCH  14  17
ENDBRANCH  12  13
ENDBRANCH   4  12
BRANCH   6  28
ATOM     28  C   UNL     1      44.099   3.140  11.109  0.00  0.00    +0.000 C 
BRANCH  28  29
ATOM     29  N   UNL     1      44.975   2.668  10.070  0.00  0.00    +0.000 N 
ATOM     30  C   UNL     1      45.053   3.251   8.831  0.00  0.00    +0.000 C 
ATOM     31  O   UNL     1      44.410   4.251   8.520  0.00  0.00    +0.000 OA
ATOM     32  H   UNL     1      45.598   1.913  10.321  0.00  0.00    +0.000 HD
BRANCH  30  33
ATOM     33  C   UNL     1      45.946   2.594   7.901  0.00  0.00    +0.000 A 
ATOM     34  C   UNL     1      46.564   3.038   6.741  0.00  0.00    +0.000 A 
ATOM     35  C   UNL     1      47.362   1.985   6.231  0.00  0.00    +0.000 A 
ATOM     36  C   UNL     1      47.222   0.918   7.088  0.00  0.00    +0.000 A 
ATOM     37  N   UNL     1      46.380   1.298   8.098  0.00  0.00    +0.000 N 
ATOM     38  H   UNL     1      46.107   0.733   8.894  0.00  0.00    +0.000 HD
ENDBRANCH  30  33
ENDBRANCH  28  29
ENDBRANCH   6  28
TORSDOF 7
ENDMDL
MODEL 6
REMARK VINA RESULT:    -7.247      3.573      8.297
REMARK INTER + INTRA:         -11.641
REMARK INTER:                 -10.127
REMARK INTRA:                  -1.514
REMARK UNBOUND:                -1.429
REMARK  Name = 
REMARK  7 active torsions:
REMARK  status: ('A' for Active; 'I' for Inactive)
REMARK    1  A    between atoms: C_2  and  C_4
REMARK    2  A    between atoms: C_7  and  C_8
REMARK    3  A    between atoms: C_8  and  N_9
REMARK    4  A    between atoms: C_10  and  C_12
REMARK    5  A    between atoms: C_23  and  C_24
REMARK    6  A    between atoms: C_24  and  N_25
REMARK    7  A    between atoms: C_26  and  C_28
REMARK                            x       y       z     vdW  Elec       q    Type
REMARK                         _______ _______ _______ _____ _____    ______ ____
ROOT
ATOM      1  C   UNL     1      51.389   4.636  17.643  0.00  0.00    +0.000 A 
ATOM      2  C   UNL     1      50.958   3.302  17.750  0.00  0.00    +0.000 A 
ATOM      3  C   UNL     1      49.650   2.942  17.409  0.00  0.00    +0.000 A 
ATOM      4  C   UNL     1      48.741   3.911  16.976  0.00  0.00    +0.000 A 
ATOM      5  C   UNL     1      49.162   5.246  16.896  0.00  0.00    +0.000 A 
ATOM      6  C   UNL     1      50.488   5.623  17.191  0.00  0.00    +0.000 A 
ENDROOT
BRANCH   1   8
ATOM      7  N   UNL     1      52.969   5.272  19.393  0.00  0.00    +0.000 N 
ATOM      8  C   UNL     1      52.777   4.981  18.069  0.00  0.00    +0.000 C 
ATOM      9  O   UNL     1      53.716   5.008  17.281  0.00  0.00    +0.000 OA
ATOM     10  H   UNL     1      53.916   5.466  19.696  0.00  0.00    +0.000 HD
ATOM     11  H   UNL     1      52.264   5.135  20.104  0.00  0.00    +0.000 HD
ENDBRANCH   1   8
BRANCH   4  12
ATOM     12  C   UNL     1      47.316   3.542  16.655  0.00  0.00    +0.000 C 
BRANCH  12  13
ATOM     13  N   UNL     1      46.743   4.477  15.723  0.00  0.00    +0.000 N 
ATOM     14  C   UNL     1      46.753   4.233  14.374  0.00  0.00    +0.000 C 
ATOM     15  O   UNL     1      47.195   3.187  13.906  0.00  0.00    +0.000 OA
ATOM     16  H   UNL     1      46.614   5.429  16.052  0.00  0.00    +0.000 HD
BRANCH  14  17
ATOM     17  C   UNL     1      46.138   5.256  13.519  0.00  0.00    +0.000 A 
ATOM     18  C   UNL     1      46.830   6.428  13.242  0.00  0.00    +0.000 A 
ATOM     19  S   UNL     1      46.005   7.475  12.178  0.00  0.00    +0.000 S 
ATOM     20  C   UNL     1      44.669   6.424  12.093  0.00  0.00    +0.000 A 
ATOM     21  N   UNL     1      43.578   6.739  11.345  0.00  0.00    +0.000 NA
ATOM     22  C   UNL     1      42.624   5.869  11.401  0.00  0.00    +0.000 A 
ATOM     23  N   UNL     1      42.665   4.712  12.134  0.00  0.00    +0.000 N 
ATOM     24  C   UNL     1      43.761   4.335  12.874  0.00  0.00    +0.000 A 
ATOM     25  O   UNL     1      43.785   3.268  13.480  0.00  0.00    +0.000 OA
ATOM     26  C   UNL     1      44.856   5.284  12.855  0.00  0.00    +0.000 A 
ATOM     27  H   UNL     1      41.888   4.068  12.130  0.00  0.00    +0.000 HD
ENDBRANCH  14  17
ENDBRANCH  12  13
ENDBRANCH   4  12
BRANCH   6  28
ATOM     28  C   UNL     1      50.865   7.071  16.999  0.00  0.00    +0.000 C 
BRANCH  28  29
ATOM     29  N   UNL     1      51.089   7.389  15.613  0.00  0.00    +0.000 N 
ATOM     30  C   UNL     1      50.169   8.043  14.835  0.00  0.00    +0.000 C 
ATOM     31  O   UNL     1      49.094   8.451  15.269  0.00  0.00    +0.000 OA
ATOM     32  H   UNL     1      52.004   7.165  15.247  0.00  0.00    +0.000 HD
BRANCH  30  33
ATOM     33  C   UNL     1      50.552   8.215  13.449  0.00  0.00    +0.000 A 
ATOM     34  C   UNL     1      51.301   9.192  12.811  0.00  0.00    +0.000 A 
ATOM     35  C   UNL     1      51.391   8.857  11.438  0.00  0.00    +0.000 A 
ATOM     36  C   UNL     1      50.699   7.681  11.261  0.00  0.00    +0.000 A 
ATOM     37  N   UNL     1      50.210   7.294  12.479  0.00  0.00    +0.000 N 
ATOM     38  H   UNL     1      49.680   6.452  12.671  0.00  0.00    +0.000 HD
ENDBRANCH  30  33
ENDBRANCH  28  29
ENDBRANCH   6  28
TORSDOF 7
ENDMDL
MODEL 7
REMARK VINA RESULT:    -7.062      3.868      8.564
REMARK INTER + INTRA:         -11.381
REMARK INTER:                  -9.126
REMARK INTRA:                  -2.255
REMARK UNBOUND:                -1.429
REMARK  Name = 
REMARK  7 active torsions:
REMARK  status: ('A' for Active; 'I' for Inactive)
REMARK    1  A    between atoms: C_2  and  C_4
REMARK    2  A    between atoms: C_7  and  C_8
REMARK    3  A    between atoms: C_8  and  N_9
REMARK    4  A    between atoms: C_10  and  C_12
REMARK    5  A    between atoms: C_23  and  C_24
REMARK    6  A    between atoms: C_24  and  N_25
REMARK    7  A    between atoms: C_26  and  C_28
REMARK                            x       y       z     vdW  Elec       q    Type
REMARK                         _______ _______ _______ _____ _____    ______ ____
ROOT
ATOM      1  C   UNL     1      51.493   3.154  17.781  0.00  0.00    +0.000 A 
ATOM      2  C   UNL     1      50.709   2.063  17.368  0.00  0.00    +0.000 A 
ATOM      3  C   UNL     1      49.360   2.234  17.041  0.00  0.00    +0.000 A 
ATOM      4  C   UNL     1      48.763   3.493  17.142  0.00  0.00    +0.000 A 
ATOM      5  C   UNL     1      49.537   4.576  17.581  0.00  0.00    +0.000 A 
ATOM      6  C   UNL     1      50.909   4.435  17.872  0.00  0.00    +0.000 A 
ENDROOT
BRANCH   1   8
ATOM      7  N   UNL     1      53.182   2.789  19.507  0.00  0.00    +0.000 N 
ATOM      8  C   UNL     1      52.915   2.913  18.170  0.00  0.00    +0.000 C 
ATOM      9  O   UNL     1      53.815   2.829  17.343  0.00  0.00    +0.000 OA
ATOM     10  H   UNL     1      54.137   2.584  19.775  0.00  0.00    +0.000 HD
ATOM     11  H   UNL     1      52.466   2.716  20.217  0.00  0.00    +0.000 HD
ENDBRANCH   1   8
BRANCH   4  12
ATOM     12  C   UNL     1      47.298   3.678  16.842  0.00  0.00    +0.000 C 
BRANCH  12  13
ATOM     13  N   UNL     1      47.110   4.634  15.782  0.00  0.00    +0.000 N 
ATOM     14  C   UNL     1      47.139   4.251  14.466  0.00  0.00    +0.000 C 
ATOM     15  O   UNL     1      47.268   3.076  14.134  0.00  0.00    +0.000 OA
ATOM     16  H   UNL     1      47.258   5.611  16.016  0.00  0.00    +0.000 HD
BRANCH  14  17
ATOM     17  C   UNL     1      46.932   5.312  13.472  0.00  0.00    +0.000 A 
ATOM     18  C   UNL     1      45.896   5.201  12.553  0.00  0.00    +0.000 A 
ATOM     19  S   UNL     1      45.751   6.550  11.519  0.00  0.00    +0.000 S 
ATOM     20  C   UNL     1      47.103   7.305  12.226  0.00  0.00    +0.000 A 
ATOM     21  N   UNL     1      47.539   8.515  11.782  0.00  0.00    +0.000 NA
ATOM     22  C   UNL     1      48.595   8.953  12.384  0.00  0.00    +0.000 A 
ATOM     23  N   UNL     1      49.251   8.294  13.391  0.00  0.00    +0.000 N 
ATOM     24  C   UNL     1      48.824   7.089  13.896  0.00  0.00    +0.000 A 
ATOM     25  O   UNL     1      49.404   6.547  14.833  0.00  0.00    +0.000 OA
ATOM     26  C   UNL     1      47.648   6.545  13.246  0.00  0.00    +0.000 A 
ATOM     27  H   UNL     1      50.069   8.695  13.827  0.00  0.00    +0.000 HD
ENDBRANCH  14  17
ENDBRANCH  12  13
ENDBRANCH   4  12
BRANCH   6  28
ATOM     28  C   UNL     1      51.676   5.675  18.261  0.00  0.00    +0.000 C 
BRANCH  28  29
ATOM     29  N   UNL     1      51.705   6.644  17.198  0.00  0.00    +0.000 N 
ATOM     30  C   UNL     1      52.716   6.717  16.275  0.00  0.00    +0.000 C 
ATOM     31  O   UNL     1      53.662   5.932  16.255  0.00  0.00    +0.000 OA
ATOM     32  H   UNL     1      50.892   7.240  17.116  0.00  0.00    +0.000 HD
BRANCH  30  33
ATOM     33  C   UNL     1      52.598   7.799  15.321  0.00  0.00    +0.000 A 
ATOM     34  C   UNL     1      52.158   9.107  15.456  0.00  0.00    +0.000 A 
ATOM     35  C   UNL     1      52.277   9.749  14.199  0.00  0.00    +0.000 A 
ATOM     36  C   UNL     1      52.790   8.825  13.319  0.00  0.00    +0.000 A 
ATOM     37  N   UNL     1      52.994   7.658  14.006  0.00  0.00    +0.000 N 
ATOM     38  H   UNL     1      53.389   6.804  13.630  0.00  0.00    +0.000 HD
ENDBRANCH  30  33
ENDBRANCH  28  29
ENDBRANCH   6  28
TORSDOF 7
ENDMDL
MODEL 8
REMARK VINA RESULT:    -6.972      3.526      4.931
REMARK INTER + INTRA:         -11.254
REMARK INTER:                  -9.638
REMARK INTRA:                  -1.616
REMARK UNBOUND:                -1.429
REMARK  Name = 
REMARK  7 active torsions:
REMARK  status: ('A' for Active; 'I' for Inactive)
REMARK    1  A    between atoms: C_2  and  C_4
REMARK    2  A    between atoms: C_7  and  C_8
REMARK    3  A    between atoms: C_8  and  N_9
REMARK    4  A    between atoms: C_10  and  C_12
REMARK    5  A    between atoms: C_23  and  C_24
REMARK    6  A    between atoms: C_24  and  N_25
REMARK    7  A    between atoms: C_26  and  C_28
REMARK                            x       y       z     vdW  Elec       q    Type
REMARK                         _______ _______ _______ _____ _____    ______ ____
ROOT
ATOM      1  C   UNL     1      46.706   4.754  14.193  0.00  0.00    +0.000 A 
ATOM      2  C   UNL     1      46.924   4.408  15.538  0.00  0.00    +0.000 A 
ATOM      3  C   UNL     1      47.891   5.070  16.300  0.00  0.00    +0.000 A 
ATOM      4  C   UNL     1      48.675   6.076  15.728  0.00  0.00    +0.000 A 
ATOM      5  C   UNL     1      48.478   6.402  14.379  0.00  0.00    +0.000 A 
ATOM      6  C   UNL     1      47.478   5.779  13.605  0.00  0.00    +0.000 A 
ENDROOT
BRANCH   1   8
ATOM      7  N   UNL     1      44.422   4.477  13.374  0.00  0.00    +0.000 N 
ATOM      8  C   UNL     1      45.699   3.984  13.404  0.00  0.00    +0.000 C 
ATOM      9  O   UNL     1      45.985   2.954  12.805  0.00  0.00    +0.000 OA
ATOM     10  H   UNL     1      43.744   3.984  12.807  0.00  0.00    +0.000 HD
ATOM     11  H   UNL     1      44.165   5.385  13.735  0.00  0.00    +0.000 HD
ENDBRANCH   1   8
BRANCH   4  12
ATOM     12  C   UNL     1      49.755   6.760  16.526  0.00  0.00    +0.000 C 
BRANCH  12  13
ATOM     13  N   UNL     1      50.763   5.818  16.935  0.00  0.00    +0.000 N 
ATOM     14  C   UNL     1      50.871   5.415  18.241  0.00  0.00    +0.000 C 
ATOM     15  O   UNL     1      50.081   5.791  19.104  0.00  0.00    +0.000 OA
ATOM     16  H   UNL     1      51.558   5.702  16.315  0.00  0.00    +0.000 HD
BRANCH  14  17
ATOM     17  C   UNL     1      51.935   4.450  18.543  0.00  0.00    +0.000 A 
ATOM     18  C   UNL     1      53.026   4.844  19.306  0.00  0.00    +0.000 A 
ATOM     19  S   UNL     1      54.131   3.585  19.624  0.00  0.00    +0.000 S 
ATOM     20  C   UNL     1      53.219   2.480  18.706  0.00  0.00    +0.000 A 
ATOM     21  N   UNL     1      53.628   1.192  18.552  0.00  0.00    +0.000 NA
ATOM     22  C   UNL     1      52.860   0.474  17.801  0.00  0.00    +0.000 A 
ATOM     23  N   UNL     1      51.717   0.926  17.194  0.00  0.00    +0.000 N 
ATOM     24  C   UNL     1      51.246   2.208  17.352  0.00  0.00    +0.000 A 
ATOM     25  O   UNL     1      50.192   2.569  16.835  0.00  0.00    +0.000 OA
ATOM     26  C   UNL     1      52.080   3.061  18.176  0.00  0.00    +0.000 A 
ATOM     27  H   UNL     1      51.155   0.312  16.624  0.00  0.00    +0.000 HD
ENDBRANCH  14  17
ENDBRANCH  12  13
ENDBRANCH   4  12
BRANCH   6  28
ATOM     28  C   UNL     1      47.290   6.254  12.185  0.00  0.00    +0.000 C 
BRANCH  28  29
ATOM     29  N   UNL     1      46.397   7.380  12.109  0.00  0.00    +0.000 N 
ATOM     30  C   UNL     1      45.193   7.340  11.455  0.00  0.00    +0.000 C 
ATOM     31  O   UNL     1      44.757   6.326  10.915  0.00  0.00    +0.000 OA
ATOM     32  H   UNL     1      46.670   8.201  12.632  0.00  0.00    +0.000 HD
BRANCH  30  33
ATOM     33  C   UNL     1      44.465   8.592  11.436  0.00  0.00    +0.000 A 
ATOM     34  C   UNL     1      44.796   9.861  11.887  0.00  0.00    +0.000 A 
ATOM     35  C   UNL     1      43.719  10.732  11.591  0.00  0.00    +0.000 A 
ATOM     36  C   UNL     1      42.751   9.983  10.964  0.00  0.00    +0.000 A 
ATOM     37  N   UNL     1      43.215   8.699  10.861  0.00  0.00    +0.000 N 
ATOM     38  H   UNL     1      42.734   7.923  10.420  0.00  0.00    +0.000 HD
ENDBRANCH  30  33
ENDBRANCH  28  29
ENDBRANCH   6  28
TORSDOF 7
ENDMDL
MODEL 9
REMARK VINA RESULT:    -6.939      2.905      5.916
REMARK INTER + INTRA:         -11.208
REMARK INTER:                  -9.251
REMARK INTRA:                  -1.957
REMARK UNBOUND:                -1.429
REMARK  Name = 
REMARK  7 active torsions:
REMARK  status: ('A' for Active; 'I' for Inactive)
REMARK    1  A    between atoms: C_2  and  C_4
REMARK    2  A    between atoms: C_7  and  C_8
REMARK    3  A    between atoms: C_8  and  N_9
REMARK    4  A    between atoms: C_10  and  C_12
REMARK    5  A    between atoms: C_23  and  C_24
REMARK    6  A    between atoms: C_24  and  N_25
REMARK    7  A    between atoms: C_26  and  C_28
REMARK                            x       y       z     vdW  Elec       q    Type
REMARK                         _______ _______ _______ _____ _____    ______ ____
ROOT
ATOM      1  C   UNL     1      46.099   5.345  12.603  0.00  0.00    +0.000 A 
ATOM      2  C   UNL     1      46.390   6.261  11.578  0.00  0.00    +0.000 A 
ATOM      3  C   UNL     1      47.494   7.115  11.672  0.00  0.00    +0.000 A 
ATOM      4  C   UNL     1      48.315   7.085  12.803  0.00  0.00    +0.000 A 
ATOM      5  C   UNL     1      48.008   6.192  13.838  0.00  0.00    +0.000 A 
ATOM      6  C   UNL     1      46.928   5.291  13.743  0.00  0.00    +0.000 A 
ENDROOT
BRANCH   1   8
ATOM      7  N   UNL     1      43.695   5.033  12.902  0.00  0.00    +0.000 N 
ATOM      8  C   UNL     1      44.880   4.491  12.482  0.00  0.00    +0.000 C 
ATOM      9  O   UNL     1      44.921   3.352  12.030  0.00  0.00    +0.000 OA
ATOM     10  H   UNL     1      42.859   4.475  12.784  0.00  0.00    +0.000 HD
ATOM     11  H   UNL     1      43.583   6.004  13.155  0.00  0.00    +0.000 HD
ENDBRANCH   1   8
BRANCH   4  12
ATOM     12  C   UNL     1      49.476   8.036  12.937  0.00  0.00    +0.000 C 
BRANCH  12  13
ATOM     13  N   UNL     1      50.513   7.465  13.755  0.00  0.00    +0.000 N 
ATOM     14  C   UNL     1      51.358   8.257  14.488  0.00  0.00    +0.000 C 
ATOM     15  O   UNL     1      51.233   9.479  14.527  0.00  0.00    +0.000 OA
ATOM     16  H   UNL     1      50.791   6.512  13.540  0.00  0.00    +0.000 HD
BRANCH  14  17
ATOM     17  C   UNL     1      52.377   7.565  15.286  0.00  0.00    +0.000 A 
ATOM     18  C   UNL     1      53.718   7.886  15.119  0.00  0.00    +0.000 A 
ATOM     19  S   UNL     1      54.761   7.044  16.173  0.00  0.00    +0.000 S 
ATOM     20  C   UNL     1      53.463   6.177  16.852  0.00  0.00    +0.000 A 
ATOM     21  N   UNL     1      53.673   5.251  17.825  0.00  0.00    +0.000 NA
ATOM     22  C   UNL     1      52.604   4.644  18.223  0.00  0.00    +0.000 A 
ATOM     23  N   UNL     1      51.344   4.882  17.739  0.00  0.00    +0.000 N 
ATOM     24  C   UNL     1      51.080   5.834  16.783  0.00  0.00    +0.000 A 
ATOM     25  O   UNL     1      49.934   6.059  16.404  0.00  0.00    +0.000 OA
ATOM     26  C   UNL     1      52.249   6.537  16.292  0.00  0.00    +0.000 A 
ATOM     27  H   UNL     1      50.547   4.378  18.097  0.00  0.00    +0.000 HD
ENDBRANCH  14  17
ENDBRANCH  12  13
ENDBRANCH   4  12
BRANCH   6  28
ATOM     28  C   UNL     1      46.727   4.314  14.876  0.00  0.00    +0.000 C 
BRANCH  28  29
ATOM     29  N   UNL     1      47.147   4.861  16.139  0.00  0.00    +0.000 N 
ATOM     30  C   UNL     1      47.148   4.142  17.306  0.00  0.00    +0.000 C 
ATOM     31  O   UNL     1      46.829   2.956  17.362  0.00  0.00    +0.000 OA
ATOM     32  H   UNL     1      47.518   5.801  16.115  0.00  0.00    +0.000 HD
BRANCH  30  33
ATOM     33  C   UNL     1      47.545   4.885  18.483  0.00  0.00    +0.000 A 
ATOM     34  C   UNL     1      47.412   6.224  18.820  0.00  0.00    +0.000 A 
ATOM     35  C   UNL     1      47.956   6.413  20.114  0.00  0.00    +0.000 A 
ATOM     36  C   UNL     1      48.408   5.188  20.547  0.00  0.00    +0.000 A 
ATOM     37  N   UNL     1      48.144   4.271  19.565  0.00  0.00    +0.000 N 
ATOM     38  H   UNL     1      48.338   3.278  19.606  0.00  0.00    +0.000 HD
ENDBRANCH  30  33
ENDBRANCH  28  29
ENDBRANCH   6  28
TORSDOF 7
ENDMDL
