MODEL 1
REMARK VINA RESULT:    -7.874      0.000      0.000
REMARK INTER + INTRA:         -11.924
REMARK INTER:                 -11.096
REMARK INTRA:                  -0.827
REMARK UNBOUND:                -0.827
REMARK  Name = 
REMARK  10 active torsions:
REMARK  status: ('A' for Active; 'I' for Inactive)
REMARK    1  A    between atoms: C_1  and  O_2
REMARK    2  A    between atoms: O_2  and  C_3
REMARK    3  A    between atoms: C_5  and  C_6
REMARK    4  A    between atoms: C_6  and  O_7
REMARK    5  A    between atoms: O_7  and  C_8
REMARK    6  A    between atoms: C_11  and  C_12
REMARK    7  A    between atoms: C_18  and  O_19
REMARK    8  A    between atoms: O_19  and  C_20
REMARK    9  A    between atoms: C_21  and  O_22
REMARK   10  A    between atoms: O_22  and  C_23
REMARK                            x       y       z     vdW  Elec       q    Type
REMARK                         _______ _______ _______ _____ _____    ______ ____
ROOT
ATOM      1  C   UNL     1      43.685   3.027  11.545  0.00  0.00    +0.000 C 
ENDROOT
BRANCH   1   4
ATOM      2  C   UNL     1      46.730   4.106  13.570  0.00  0.00    +0.000 A 
ATOM      3  C   UNL     1      45.755   3.319  12.943  0.00  0.00    +0.000 A 
ATOM      4  C   UNL     1      44.702   3.899  12.228  0.00  0.00    +0.000 A 
ATOM      5  C   UNL     1      44.613   5.289  12.153  0.00  0.00    +0.000 A 
ATOM      6  C   UNL     1      45.552   6.096  12.801  0.00  0.00    +0.000 A 
ATOM      7  C   UNL     1      46.644   5.510  13.479  0.00  0.00    +0.000 A 
BRANCH   2   9
ATOM      8  C   UNL     1      47.472   3.451  15.740  0.00  0.00    +0.000 C 
ATOM      9  O   UNL     1      47.721   3.555  14.342  0.00  0.00    +0.000 OA
ENDBRANCH   2   9
BRANCH   6  10
ATOM     10  O   UNL     1      45.481   7.470  12.767  0.00  0.00    +0.000 OA
ATOM     11  C   UNL     1      44.817   8.014  11.629  0.00  0.00    +0.000 C 
ENDBRANCH   6  10
BRANCH   7  12
ATOM     12  O   UNL     1      47.514   6.400  14.066  0.00  0.00    +0.000 OA
ATOM     13  C   UNL     1      48.681   6.737  13.325  0.00  0.00    +0.000 C 
ENDBRANCH   7  12
ENDBRANCH   1   4
BRANCH   1  14
ATOM     14  O   UNL     1      43.503   3.485  10.203  0.00  0.00    +0.000 OA
BRANCH  14  15
ATOM     15  C   UNL     1      44.466   3.104   9.315  0.00  0.00    +0.000 A 
ATOM     16  C   UNL     1      44.992   1.819   9.185  0.00  0.00    +0.000 A 
ATOM     17  C   UNL     1      45.972   1.565   8.233  0.00  0.00    +0.000 A 
ATOM     18  C   UNL     1      46.402   2.613   7.432  0.00  0.00    +0.000 A 
ATOM     19  N   UNL     1      45.920   3.885   7.524  0.00  0.00    +0.000 NA
ATOM     20  C   UNL     1      44.966   4.092   8.467  0.00  0.00    +0.000 A 
BRANCH  18  21
ATOM     21  C   UNL     1      47.451   2.353   6.401  0.00  0.00    +0.000 C 
ATOM     22  N   UNL     1      47.451   3.206   5.333  0.00  0.00    +0.000 N 
ATOM     23  O   UNL     1      48.260   1.436   6.499  0.00  0.00    +0.000 OA
ATOM     24  H   UNL     1      46.757   3.941   5.281  0.00  0.00    +0.000 HD
ATOM     25  H   UNL     1      48.127   3.080   4.593  0.00  0.00    +0.000 HD
ENDBRANCH  18  21
ENDBRANCH  14  15
ENDBRANCH   1  14
TORSDOF 7
ENDMDL
MODEL 2
REMARK VINA RESULT:    -7.436      1.075      2.966
REMARK INTER + INTRA:         -11.306
REMARK INTER:                 -10.534
REMARK INTRA:                  -0.772
REMARK UNBOUND:                -0.827
REMARK  Name = 
REMARK  10 active torsions:
REMARK  status: ('A' for Active; 'I' for Inactive)
REMARK    1  A    between atoms: C_1  and  O_2
REMARK    2  A    between atoms: O_2  and  C_3
REMARK    3  A    between atoms: C_5  and  C_6
REMARK    4  A    between atoms: C_6  and  O_7
REMARK    5  A    between atoms: O_7  and  C_8
REMARK    6  A    between atoms: C_11  and  C_12
REMARK    7  A    between atoms: C_18  and  O_19
REMARK    8  A    between atoms: O_19  and  C_20
REMARK    9  A    between atoms: C_21  and  O_22
REMARK   10  A    between atoms: O_22  and  C_23
REMARK                            x       y       z     vdW  Elec       q    Type
REMARK                         _______ _______ _______ _____ _____    ______ ____
ROOT
ATOM      1  C   UNL     1      43.575   3.874  11.544  0.00  0.00    +0.000 C 
ENDROOT
BRANCH   1   4
ATOM      2  C   UNL     1      45.636   6.998  12.275  0.00  0.00    +0.000 A 
ATOM      3  C   UNL     1      44.657   6.134  11.766  0.00  0.00    +0.000 A 
ATOM      4  C   UNL     1      44.654   4.772  12.084  0.00  0.00    +0.000 A 
ATOM      5  C   UNL     1      45.656   4.262  12.910  0.00  0.00    +0.000 A 
ATOM      6  C   UNL     1      46.665   5.096  13.399  0.00  0.00    +0.000 A 
ATOM      7  C   UNL     1      46.638   6.481  13.121  0.00  0.00    +0.000 A 
BRANCH   2   9
ATOM      8  C   UNL     1      44.523   8.893  11.348  0.00  0.00    +0.000 C 
ATOM      9  O   UNL     1      45.699   8.318  11.908  0.00  0.00    +0.000 OA
ENDBRANCH   2   9
BRANCH   6  10
ATOM     10  O   UNL     1      47.681   4.622  14.196  0.00  0.00    +0.000 OA
ATOM     11  C   UNL     1      47.277   4.160  15.483  0.00  0.00    +0.000 C 
ENDBRANCH   6  10
BRANCH   7  12
ATOM     12  O   UNL     1      47.671   7.208  13.667  0.00  0.00    +0.000 OA
ATOM     13  C   UNL     1      48.816   7.409  12.847  0.00  0.00    +0.000 C 
ENDBRANCH   7  12
ENDBRANCH   1   4
BRANCH   1  14
ATOM     14  O   UNL     1      43.437   4.102  10.139  0.00  0.00    +0.000 OA
BRANCH  14  15
ATOM     15  C   UNL     1      44.434   3.592   9.360  0.00  0.00    +0.000 A 
ATOM     16  C   UNL     1      45.266   4.328   8.516  0.00  0.00    +0.000 A 
ATOM     17  C   UNL     1      46.249   3.680   7.777  0.00  0.00    +0.000 A 
ATOM     18  C   UNL     1      46.371   2.304   7.902  0.00  0.00    +0.000 A 
ATOM     19  N   UNL     1      45.580   1.544   8.711  0.00  0.00    +0.000 NA
ATOM     20  C   UNL     1      44.632   2.212   9.415  0.00  0.00    +0.000 A 
BRANCH  18  21
ATOM     21  C   UNL     1      47.426   1.597   7.116  0.00  0.00    +0.000 C 
ATOM     22  N   UNL     1      48.358   2.402   6.524  0.00  0.00    +0.000 N 
ATOM     23  O   UNL     1      47.458   0.376   7.003  0.00  0.00    +0.000 OA
ATOM     24  H   UNL     1      48.289   3.407   6.628  0.00  0.00    +0.000 HD
ATOM     25  H   UNL     1      49.094   1.991   5.968  0.00  0.00    +0.000 HD
ENDBRANCH  18  21
ENDBRANCH  14  15
ENDBRANCH   1  14
TORSDOF 7
ENDMDL
MODEL 3
REMARK VINA RESULT:    -5.758      3.338      7.200
REMARK INTER + INTRA:          -8.942
REMARK INTER:                  -8.609
REMARK INTRA:                  -0.332
REMARK UNBOUND:                -0.827
REMARK  Name = 
REMARK  10 active torsions:
REMARK  status: ('A' for Active; 'I' for Inactive)
REMARK    1  A    between atoms: C_1  and  O_2
REMARK    2  A    between atoms: O_2  and  C_3
REMARK    3  A    between atoms: C_5  and  C_6
REMARK    4  A    between atoms: C_6  and  O_7
REMARK    5  A    between atoms: O_7  and  C_8
REMARK    6  A    between atoms: C_11  and  C_12
REMARK    7  A    between atoms: C_18  and  O_19
REMARK    8  A    between atoms: O_19  and  C_20
REMARK    9  A    between atoms: C_21  and  O_22
REMARK   10  A    between atoms: O_22  and  C_23
REMARK                            x       y       z     vdW  Elec       q    Type
REMARK                         _______ _______ _______ _____ _____    ______ ____
ROOT
ATOM      1  C   UNL     1      46.160   7.002  11.600  0.00  0.00    +0.000 C 
ENDROOT
BRANCH   1   4
ATOM      2  C   UNL     1      45.599   4.546   8.737  0.00  0.00    +0.000 A 
ATOM      3  C   UNL     1      46.082   5.616   9.502  0.00  0.00    +0.000 A 
ATOM      4  C   UNL     1      45.604   5.861  10.794  0.00  0.00    +0.000 A 
ATOM      5  C   UNL     1      44.613   5.033  11.323  0.00  0.00    +0.000 A 
ATOM      6  C   UNL     1      44.089   3.982  10.565  0.00  0.00    +0.000 A 
ATOM      7  C   UNL     1      44.609   3.703   9.282  0.00  0.00    +0.000 A 
BRANCH   2   9
ATOM      8  C   UNL     1      47.109   3.477   7.233  0.00  0.00    +0.000 C 
ATOM      9  O   UNL     1      45.998   4.343   7.441  0.00  0.00    +0.000 OA
ENDBRANCH   2   9
BRANCH   6  10
ATOM     10  O   UNL     1      43.095   3.160  11.047  0.00  0.00    +0.000 OA
ATOM     11  C   UNL     1      43.433   2.425  12.220  0.00  0.00    +0.000 C 
ENDBRANCH   6  10
BRANCH   7  12
ATOM     12  O   UNL     1      44.028   2.637   8.634  0.00  0.00    +0.000 OA
ATOM     13  C   UNL     1      44.686   1.381   8.753  0.00  0.00    +0.000 C 
ENDBRANCH   7  12
ENDBRANCH   1   4
BRANCH   1  14
ATOM     14  O   UNL     1      47.474   6.661  12.048  0.00  0.00    +0.000 OA
BRANCH  14  15
ATOM     15  C   UNL     1      47.544   6.088  13.284  0.00  0.00    +0.000 A 
ATOM     16  C   UNL     1      46.890   4.922  13.680  0.00  0.00    +0.000 A 
ATOM     17  C   UNL     1      47.051   4.444  14.975  0.00  0.00    +0.000 A 
ATOM     18  C   UNL     1      47.867   5.152  15.845  0.00  0.00    +0.000 A 
ATOM     19  N   UNL     1      48.524   6.297  15.503  0.00  0.00    +0.000 NA
ATOM     20  C   UNL     1      48.340   6.732  14.232  0.00  0.00    +0.000 A 
BRANCH  18  21
ATOM     21  C   UNL     1      48.053   4.646  17.237  0.00  0.00    +0.000 C 
ATOM     22  N   UNL     1      47.251   5.220  18.184  0.00  0.00    +0.000 N 
ATOM     23  O   UNL     1      48.870   3.777  17.521  0.00  0.00    +0.000 OA
ATOM     24  H   UNL     1      46.600   5.946  17.913  0.00  0.00    +0.000 HD
ATOM     25  H   UNL     1      47.332   4.934  19.149  0.00  0.00    +0.000 HD
ENDBRANCH  18  21
ENDBRANCH  14  15
ENDBRANCH   1  14
TORSDOF 7
ENDMDL
MODEL 4
REMARK VINA RESULT:    -5.609      4.747      7.323
REMARK INTER + INTRA:          -8.732
REMARK INTER:                  -8.166
REMARK INTRA:                  -0.567
REMARK UNBOUND:                -0.827
REMARK  Name = 
REMARK  10 active torsions:
REMARK  status: ('A' for Active; 'I' for Inactive)
REMARK    1  A    between atoms: C_1  and  O_2
REMARK    2  A    between atoms: O_2  and  C_3
REMARK    3  A    between atoms: C_5  and  C_6
REMARK    4  A    between atoms: C_6  and  O_7
REMARK    5  A    between atoms: O_7  and  C_8
REMARK    6  A    between atoms: C_11  and  C_12
REMARK    7  A    between atoms: C_18  and  O_19
REMARK    8  A    between atoms: O_19  and  C_20
REMARK    9  A    between atoms: C_21  and  O_22
REMARK   10  A    between atoms: O_22  and  C_23
REMARK                            x       y       z     vdW  Elec       q    Type
REMARK                         _______ _______ _______ _____ _____    ______ ____
ROOT
ATOM      1  C   UNL     1      46.747   3.668  14.354  0.00  0.00    +0.000 C 
ENDROOT
BRANCH   1   4
ATOM      2  C   UNL     1      47.047   7.130  12.783  0.00  0.00    +0.000 A 
ATOM      3  C   UNL     1      47.341   5.953  13.484  0.00  0.00    +0.000 A 
ATOM      4  C   UNL     1      46.394   4.931  13.618  0.00  0.00    +0.000 A 
ATOM      5  C   UNL     1      45.128   5.097  13.057  0.00  0.00    +0.000 A 
ATOM      6  C   UNL     1      44.799   6.278  12.385  0.00  0.00    +0.000 A 
ATOM      7  C   UNL     1      45.771   7.287  12.205  0.00  0.00    +0.000 A 
BRANCH   2   9
ATOM      8  C   UNL     1      48.942   8.102  11.709  0.00  0.00    +0.000 C 
ATOM      9  O   UNL     1      47.935   8.173  12.714  0.00  0.00    +0.000 OA
ENDBRANCH   2   9
BRANCH   6  10
ATOM     10  O   UNL     1      43.552   6.484  11.841  0.00  0.00    +0.000 OA
ATOM     11  C   UNL     1      42.847   5.300  11.477  0.00  0.00    +0.000 C 
ENDBRANCH   6  10
BRANCH   7  12
ATOM     12  O   UNL     1      45.341   8.397  11.516  0.00  0.00    +0.000 OA
ATOM     13  C   UNL     1      45.047   9.556  12.288  0.00  0.00    +0.000 C 
ENDBRANCH   7  12
ENDBRANCH   1   4
BRANCH   1  14
ATOM     14  O   UNL     1      46.932   3.970  15.739  0.00  0.00    +0.000 OA
BRANCH  14  15
ATOM     15  C   UNL     1      48.102   3.530  16.286  0.00  0.00    +0.000 A 
ATOM     16  C   UNL     1      48.894   4.236  17.191  0.00  0.00    +0.000 A 
ATOM     17  C   UNL     1      50.066   3.667  17.675  0.00  0.00    +0.000 A 
ATOM     18  C   UNL     1      50.416   2.399  17.235  0.00  0.00    +0.000 A 
ATOM     19  N   UNL     1      49.675   1.673  16.350  0.00  0.00    +0.000 NA
ATOM     20  C   UNL     1      48.540   2.263  15.900  0.00  0.00    +0.000 A 
BRANCH  18  21
ATOM     21  C   UNL     1      51.671   1.775  17.751  0.00  0.00    +0.000 C 
ATOM     22  N   UNL     1      51.597   0.434  18.009  0.00  0.00    +0.000 N 
ATOM     23  O   UNL     1      52.700   2.415  17.936  0.00  0.00    +0.000 OA
ATOM     24  H   UNL     1      50.725  -0.057  17.859  0.00  0.00    +0.000 HD
ATOM     25  H   UNL     1      52.406  -0.051  18.371  0.00  0.00    +0.000 HD
ENDBRANCH  18  21
ENDBRANCH  14  15
ENDBRANCH   1  14
TORSDOF 7
ENDMDL
MODEL 5
REMARK VINA RESULT:    -5.601      3.334      7.082
REMARK INTER + INTRA:          -8.720
REMARK INTER:                  -8.572
REMARK INTRA:                  -0.148
REMARK UNBOUND:                -0.827
REMARK  Name = 
REMARK  10 active torsions:
REMARK  status: ('A' for Active; 'I' for Inactive)
REMARK    1  A    between atoms: C_1  and  O_2
REMARK    2  A    between atoms: O_2  and  C_3
REMARK    3  A    between atoms: C_5  and  C_6
REMARK    4  A    between atoms: C_6  and  O_7
REMARK    5  A    between atoms: O_7  and  C_8
REMARK    6  A    between atoms: C_11  and  C_12
REMARK    7  A    between atoms: C_18  and  O_19
REMARK    8  A    between atoms: O_19  and  C_20
REMARK    9  A    between atoms: C_21  and  O_22
REMARK   10  A    between atoms: O_22  and  C_23
REMARK                            x       y       z     vdW  Elec       q    Type
REMARK                         _______ _______ _______ _____ _____    ______ ____
ROOT
ATOM      1  C   UNL     1      46.184   6.901  11.692  0.00  0.00    +0.000 C 
ENDROOT
BRANCH   1   4
ATOM      2  C   UNL     1      44.212   3.829  10.589  0.00  0.00    +0.000 A 
ATOM      3  C   UNL     1      44.736   4.870  11.367  0.00  0.00    +0.000 A 
ATOM      4  C   UNL     1      45.660   5.778  10.840  0.00  0.00    +0.000 A 
ATOM      5  C   UNL     1      46.081   5.632   9.518  0.00  0.00    +0.000 A 
ATOM      6  C   UNL     1      45.602   4.580   8.733  0.00  0.00    +0.000 A 
ATOM      7  C   UNL     1      44.630   3.694   9.249  0.00  0.00    +0.000 A 
BRANCH   2   9
ATOM      8  C   UNL     1      43.448   2.652  12.518  0.00  0.00    +0.000 C 
ATOM      9  O   UNL     1      43.369   2.884  11.115  0.00  0.00    +0.000 OA
ENDBRANCH   2   9
BRANCH   6  10
ATOM     10  O   UNL     1      46.014   4.392   7.434  0.00  0.00    +0.000 OA
ATOM     11  C   UNL     1      47.188   3.600   7.279  0.00  0.00    +0.000 C 
ENDBRANCH   6  10
BRANCH   7  12
ATOM     12  O   UNL     1      44.219   2.707   8.384  0.00  0.00    +0.000 OA
ATOM     13  C   UNL     1      44.736   1.401   8.611  0.00  0.00    +0.000 C 
ENDBRANCH   7  12
ENDBRANCH   1   4
BRANCH   1  14
ATOM     14  O   UNL     1      47.503   6.573  12.138  0.00  0.00    +0.000 OA
BRANCH  14  15
ATOM     15  C   UNL     1      47.581   6.002  13.374  0.00  0.00    +0.000 A 
ATOM     16  C   UNL     1      46.894   4.863  13.790  0.00  0.00    +0.000 A 
ATOM     17  C   UNL     1      47.069   4.383  15.083  0.00  0.00    +0.000 A 
ATOM     18  C   UNL     1      47.931   5.063  15.930  0.00  0.00    +0.000 A 
ATOM     19  N   UNL     1      48.622   6.182  15.568  0.00  0.00    +0.000 NA
ATOM     20  C   UNL     1      48.424   6.620  14.300  0.00  0.00    +0.000 A 
BRANCH  18  21
ATOM     21  C   UNL     1      48.132   4.555  17.320  0.00  0.00    +0.000 C 
ATOM     22  N   UNL     1      47.203   3.652  17.756  0.00  0.00    +0.000 N 
ATOM     23  O   UNL     1      49.063   4.922  18.029  0.00  0.00    +0.000 OA
ATOM     24  H   UNL     1      46.440   3.386  17.147  0.00  0.00    +0.000 HD
ATOM     25  H   UNL     1      47.272   3.276  18.691  0.00  0.00    +0.000 HD
ENDBRANCH  18  21
ENDBRANCH  14  15
ENDBRANCH   1  14
TORSDOF 7
ENDMDL
MODEL 6
REMARK VINA RESULT:    -5.595      4.060      7.642
REMARK INTER + INTRA:          -8.712
REMARK INTER:                  -8.309
REMARK INTRA:                  -0.403
REMARK UNBOUND:                -0.827
REMARK  Name = 
REMARK  10 active torsions:
REMARK  status: ('A' for Active; 'I' for Inactive)
REMARK    1  A    between atoms: C_1  and  O_2
REMARK    2  A    between atoms: O_2  and  C_3
REMARK    3  A    between atoms: C_5  and  C_6
REMARK    4  A    between atoms: C_6  and  O_7
REMARK    5  A    between atoms: O_7  and  C_8
REMARK    6  A    between atoms: C_11  and  C_12
REMARK    7  A    between atoms: C_18  and  O_19
REMARK    8  A    between atoms: O_19  and  C_20
REMARK    9  A    between atoms: C_21  and  O_22
REMARK   10  A    between atoms: O_22  and  C_23
REMARK                            x       y       z     vdW  Elec       q    Type
REMARK                         _______ _______ _______ _____ _____    ______ ____
ROOT
ATOM      1  C   UNL     1      47.149   5.206  15.276  0.00  0.00    +0.000 C 
ENDROOT
BRANCH   1   4
ATOM      2  C   UNL     1      45.710   6.361  11.939  0.00  0.00    +0.000 A 
ATOM      3  C   UNL     1      46.323   6.360  13.199  0.00  0.00    +0.000 A 
ATOM      4  C   UNL     1      46.464   5.180  13.938  0.00  0.00    +0.000 A 
ATOM      5  C   UNL     1      45.970   3.984  13.415  0.00  0.00    +0.000 A 
ATOM      6  C   UNL     1      45.322   3.967  12.177  0.00  0.00    +0.000 A 
ATOM      7  C   UNL     1      45.225   5.148  11.408  0.00  0.00    +0.000 A 
BRANCH   2   9
ATOM      8  C   UNL     1      45.265   8.703  12.001  0.00  0.00    +0.000 C 
ATOM      9  O   UNL     1      45.491   7.521  11.241  0.00  0.00    +0.000 OA
ENDBRANCH   2   9
BRANCH   6  10
ATOM     10  O   UNL     1      44.801   2.810  11.642  0.00  0.00    +0.000 OA
ATOM     11  C   UNL     1      43.430   2.567  11.947  0.00  0.00    +0.000 C 
ENDBRANCH   6  10
BRANCH   7  12
ATOM     12  O   UNL     1      44.581   5.010  10.201  0.00  0.00    +0.000 OA
ATOM     13  C   UNL     1      45.389   4.669   9.080  0.00  0.00    +0.000 C 
ENDBRANCH   7  12
ENDBRANCH   1   4
BRANCH   1  14
ATOM     14  O   UNL     1      47.073   3.906  15.866  0.00  0.00    +0.000 OA
BRANCH  14  15
ATOM     15  C   UNL     1      48.241   3.424  16.381  0.00  0.00    +0.000 A 
ATOM     16  C   UNL     1      49.024   4.051  17.350  0.00  0.00    +0.000 A 
ATOM     17  C   UNL     1      50.194   3.446  17.791  0.00  0.00    +0.000 A 
ATOM     18  C   UNL     1      50.552   2.222  17.246  0.00  0.00    +0.000 A 
ATOM     19  N   UNL     1      49.819   1.572  16.296  0.00  0.00    +0.000 NA
ATOM     20  C   UNL     1      48.686   2.196  15.890  0.00  0.00    +0.000 A 
BRANCH  18  21
ATOM     21  C   UNL     1      51.805   1.558  17.715  0.00  0.00    +0.000 C 
ATOM     22  N   UNL     1      51.669   0.257  18.112  0.00  0.00    +0.000 N 
ATOM     23  O   UNL     1      52.886   2.136  17.749  0.00  0.00    +0.000 OA
ATOM     24  H   UNL     1      50.756  -0.181  18.085  0.00  0.00    +0.000 HD
ATOM     25  H   UNL     1      52.474  -0.249  18.452  0.00  0.00    +0.000 HD
ENDBRANCH  18  21
ENDBRANCH  14  15
ENDBRANCH   1  14
TORSDOF 7
ENDMDL
MODEL 7
REMARK VINA RESULT:    -5.531      4.840      7.432
REMARK INTER + INTRA:          -8.622
REMARK INTER:                  -7.978
REMARK INTRA:                  -0.644
REMARK UNBOUND:                -0.827
REMARK  Name = 
REMARK  10 active torsions:
REMARK  status: ('A' for Active; 'I' for Inactive)
REMARK    1  A    between atoms: C_1  and  O_2
REMARK    2  A    between atoms: O_2  and  C_3
REMARK    3  A    between atoms: C_5  and  C_6
REMARK    4  A    between atoms: C_6  and  O_7
REMARK    5  A    between atoms: O_7  and  C_8
REMARK    6  A    between atoms: C_11  and  C_12
REMARK    7  A    between atoms: C_18  and  O_19
REMARK    8  A    between atoms: O_19  and  C_20
REMARK    9  A    between atoms: C_21  and  O_22
REMARK   10  A    between atoms: O_22  and  C_23
REMARK                            x       y       z     vdW  Elec       q    Type
REMARK                         _______ _______ _______ _____ _____    ______ ____
ROOT
ATOM      1  C   UNL     1      46.823   3.620  14.439  0.00  0.00    +0.000 C 
ENDROOT
BRANCH   1   4
ATOM      2  C   UNL     1      44.911   6.224  12.414  0.00  0.00    +0.000 A 
ATOM      3  C   UNL     1      45.249   5.045  13.090  0.00  0.00    +0.000 A 
ATOM      4  C   UNL     1      46.499   4.888  13.698  0.00  0.00    +0.000 A 
ATOM      5  C   UNL     1      47.433   5.921  13.614  0.00  0.00    +0.000 A 
ATOM      6  C   UNL     1      47.133   7.092  12.914  0.00  0.00    +0.000 A 
ATOM      7  C   UNL     1      45.853   7.272  12.344  0.00  0.00    +0.000 A 
BRANCH   2   9
ATOM      8  C   UNL     1      42.676   5.459  12.087  0.00  0.00    +0.000 C 
ATOM      9  O   UNL     1      43.723   6.361  11.743  0.00  0.00    +0.000 OA
ENDBRANCH   2   9
BRANCH   6  10
ATOM     10  O   UNL     1      48.039   8.121  12.791  0.00  0.00    +0.000 OA
ATOM     11  C   UNL     1      48.539   8.638  14.022  0.00  0.00    +0.000 C 
ENDBRANCH   6  10
BRANCH   7  12
ATOM     12  O   UNL     1      45.665   8.468  11.692  0.00  0.00    +0.000 OA
ATOM     13  C   UNL     1      45.026   9.505  12.429  0.00  0.00    +0.000 C 
ENDBRANCH   7  12
ENDBRANCH   1   4
BRANCH   1  14
ATOM     14  O   UNL     1      47.032   3.925  15.820  0.00  0.00    +0.000 OA
BRANCH  14  15
ATOM     15  C   UNL     1      48.207   3.477  16.350  0.00  0.00    +0.000 A 
ATOM     16  C   UNL     1      49.037   4.193  17.211  0.00  0.00    +0.000 A 
ATOM     17  C   UNL     1      50.209   3.613  17.683  0.00  0.00    +0.000 A 
ATOM     18  C   UNL     1      50.520   2.324  17.275  0.00  0.00    +0.000 A 
ATOM     19  N   UNL     1      49.740   1.588  16.433  0.00  0.00    +0.000 NA
ATOM     20  C   UNL     1      48.606   2.189  15.994  0.00  0.00    +0.000 A 
BRANCH  18  21
ATOM     21  C   UNL     1      51.774   1.688  17.778  0.00  0.00    +0.000 C 
ATOM     22  N   UNL     1      51.701   0.342  18.003  0.00  0.00    +0.000 N 
ATOM     23  O   UNL     1      52.802   2.325  17.981  0.00  0.00    +0.000 OA
ATOM     24  H   UNL     1      50.829  -0.146  17.839  0.00  0.00    +0.000 HD
ATOM     25  H   UNL     1      52.509  -0.151  18.355  0.00  0.00    +0.000 HD
ENDBRANCH  18  21
ENDBRANCH  14  15
ENDBRANCH   1  14
TORSDOF 7
ENDMDL
MODEL 8
REMARK VINA RESULT:    -5.268      3.927      6.538
REMARK INTER + INTRA:          -8.251
REMARK INTER:                  -7.663
REMARK INTRA:                  -0.588
REMARK UNBOUND:                -0.827
REMARK  Name = 
REMARK  10 active torsions:
REMARK  status: ('A' for Active; 'I' for Inactive)
REMARK    1  A    between atoms: C_1  and  O_2
REMARK    2  A    between atoms: O_2  and  C_3
REMARK    3  A    between atoms: C_5  and  C_6
REMARK    4  A    between atoms: C_6  and  O_7
REMARK    5  A    between atoms: O_7  and  C_8
REMARK    6  A    between atoms: C_11  and  C_12
REMARK    7  A    between atoms: C_18  and  O_19
REMARK    8  A    between atoms: O_19  and  C_20
REMARK    9  A    between atoms: C_21  and  O_22
REMARK   10  A    between atoms: O_22  and  C_23
REMARK                            x       y       z     vdW  Elec       q    Type
REMARK                         _______ _______ _______ _____ _____    ______ ____
ROOT
ATOM      1  C   UNL     1      48.416   6.864  14.590  0.00  0.00    +0.000 C 
ENDROOT
BRANCH   1   4
ATOM      2  C   UNL     1      50.876   6.140  17.412  0.00  0.00    +0.000 A 
ATOM      3  C   UNL     1      50.288   6.678  16.260  0.00  0.00    +0.000 A 
ATOM      4  C   UNL     1      49.033   6.248  15.815  0.00  0.00    +0.000 A 
ATOM      5  C   UNL     1      48.363   5.251  16.525  0.00  0.00    +0.000 A 
ATOM      6  C   UNL     1      48.946   4.672  17.656  0.00  0.00    +0.000 A 
ATOM      7  C   UNL     1      50.189   5.143  18.134  0.00  0.00    +0.000 A 
BRANCH   2   9
ATOM      8  C   UNL     1      53.228   5.799  17.213  0.00  0.00    +0.000 C 
ATOM      9  O   UNL     1      52.139   6.492  17.814  0.00  0.00    +0.000 OA
ENDBRANCH   2   9
BRANCH   6  10
ATOM     10  O   UNL     1      48.324   3.670  18.365  0.00  0.00    +0.000 OA
ATOM     11  C   UNL     1      47.374   2.905  17.626  0.00  0.00    +0.000 C 
ENDBRANCH   6  10
BRANCH   7  12
ATOM     12  O   UNL     1      50.659   4.511  19.262  0.00  0.00    +0.000 OA
ATOM     13  C   UNL     1      50.511   5.207  20.494  0.00  0.00    +0.000 C 
ENDBRANCH   7  12
ENDBRANCH   1   4
BRANCH   1  14
ATOM     14  O   UNL     1      48.296   5.864  13.575  0.00  0.00    +0.000 OA
BRANCH  14  15
ATOM     15  C   UNL     1      47.046   5.706  13.050  0.00  0.00    +0.000 A 
ATOM     16  C   UNL     1      46.508   6.439  11.993  0.00  0.00    +0.000 A 
ATOM     17  C   UNL     1      45.217   6.172  11.552  0.00  0.00    +0.000 A 
ATOM     18  C   UNL     1      44.495   5.173  12.188  0.00  0.00    +0.000 A 
ATOM     19  N   UNL     1      44.979   4.432  13.226  0.00  0.00    +0.000 NA
ATOM     20  C   UNL     1      46.241   4.724  13.627  0.00  0.00    +0.000 A 
BRANCH  18  21
ATOM     21  C   UNL     1      43.109   4.872  11.721  0.00  0.00    +0.000 C 
ATOM     22  N   UNL     1      42.233   5.921  11.764  0.00  0.00    +0.000 N 
ATOM     23  O   UNL     1      42.771   3.761  11.328  0.00  0.00    +0.000 OA
ATOM     24  H   UNL     1      42.546   6.819  12.110  0.00  0.00    +0.000 HD
ATOM     25  H   UNL     1      41.275   5.786  11.474  0.00  0.00    +0.000 HD
ENDBRANCH  18  21
ENDBRANCH  14  15
ENDBRANCH   1  14
TORSDOF 7
ENDMDL
MODEL 9
REMARK VINA RESULT:    -5.239      3.951      6.596
REMARK INTER + INTRA:          -8.210
REMARK INTER:                  -7.510
REMARK INTRA:                  -0.700
REMARK UNBOUND:                -0.827
REMARK  Name = 
REMARK  10 active torsions:
REMARK  status: ('A' for Active; 'I' for Inactive)
REMARK    1  A    between atoms: C_1  and  O_2
REMARK    2  A    between atoms: O_2  and  C_3
REMARK    3  A    between atoms: C_5  and  C_6
REMARK    4  A    between atoms: C_6  and  O_7
REMARK    5  A    between atoms: O_7  and  C_8
REMARK    6  A    between atoms: C_11  and  C_12
REMARK    7  A    between atoms: C_18  and  O_19
REMARK    8  A    between atoms: O_19  and  C_20
REMARK    9  A    between atoms: C_21  and  O_22
REMARK   10  A    between atoms: O_22  and  C_23
REMARK                            x       y       z     vdW  Elec       q    Type
REMARK                         _______ _______ _______ _____ _____    ______ ____
ROOT
ATOM      1  C   UNL     1      48.582   7.001  14.371  0.00  0.00    +0.000 C 
ENDROOT
BRANCH   1   4
ATOM      2  C   UNL     1      48.659   7.682  18.122  0.00  0.00    +0.000 A 
ATOM      3  C   UNL     1      48.642   7.864  16.733  0.00  0.00    +0.000 A 
ATOM      4  C   UNL     1      48.626   6.774  15.857  0.00  0.00    +0.000 A 
ATOM      5  C   UNL     1      48.646   5.480  16.378  0.00  0.00    +0.000 A 
ATOM      6  C   UNL     1      48.701   5.273  17.760  0.00  0.00    +0.000 A 
ATOM      7  C   UNL     1      48.664   6.373  18.645  0.00  0.00    +0.000 A 
BRANCH   2   9
ATOM      8  C   UNL     1      47.591   9.534  19.179  0.00  0.00    +0.000 C 
ATOM      9  O   UNL     1      48.757   8.739  18.991  0.00  0.00    +0.000 OA
ENDBRANCH   2   9
BRANCH   6  10
ATOM     10  O   UNL     1      48.745   4.011  18.307  0.00  0.00    +0.000 OA
ATOM     11  C   UNL     1      47.768   3.100  17.809  0.00  0.00    +0.000 C 
ENDBRANCH   6  10
BRANCH   7  12
ATOM     12  O   UNL     1      48.707   6.050  19.981  0.00  0.00    +0.000 OA
ATOM     13  C   UNL     1      47.471   6.069  20.685  0.00  0.00    +0.000 C 
ENDBRANCH   7  12
ENDBRANCH   1   4
BRANCH   1  14
ATOM     14  O   UNL     1      48.310   5.760  13.716  0.00  0.00    +0.000 OA
BRANCH  14  15
ATOM     15  C   UNL     1      47.067   5.644  13.166  0.00  0.00    +0.000 A 
ATOM     16  C   UNL     1      46.546   6.450  12.155  0.00  0.00    +0.000 A 
ATOM     17  C   UNL     1      45.260   6.220  11.681  0.00  0.00    +0.000 A 
ATOM     18  C   UNL     1      44.525   5.184  12.238  0.00  0.00    +0.000 A 
ATOM     19  N   UNL     1      44.992   4.372  13.229  0.00  0.00    +0.000 NA
ATOM     20  C   UNL     1      46.250   4.629  13.666  0.00  0.00    +0.000 A 
BRANCH  18  21
ATOM     21  C   UNL     1      43.143   4.923  11.735  0.00  0.00    +0.000 C 
ATOM     22  N   UNL     1      42.306   6.004  11.728  0.00  0.00    +0.000 N 
ATOM     23  O   UNL     1      42.777   3.816  11.355  0.00  0.00    +0.000 OA
ATOM     24  H   UNL     1      42.641   6.898  12.066  0.00  0.00    +0.000 HD
ATOM     25  H   UNL     1      41.353   5.896  11.411  0.00  0.00    +0.000 HD
ENDBRANCH  18  21
ENDBRANCH  14  15
ENDBRANCH   1  14
TORSDOF 7
ENDMDL
