MODEL 1
REMARK VINA RESULT:    -9.009      0.000      0.000
REMARK INTER + INTRA:         -12.791
REMARK INTER:                 -12.168
REMARK INTRA:                  -0.622
REMARK UNBOUND:                -0.622
REMARK  Name = 
REMARK  8 active torsions:
REMARK  status: ('A' for Active; 'I' for Inactive)
REMARK    1  A    between atoms: C_1  and  C_2
REMARK    2  A    between atoms: C_2  and  C_3
REMARK    3  A    between atoms: C_5  and  N_6
REMARK    4  A    between atoms: N_6  and  C_7
REMARK    5  A    between atoms: C_11  and  C_12
REMARK    6  A    between atoms: C_12  and  C_13
REMARK    7  A    between atoms: C_13  and  N_14
REMARK    8  A    between atoms: C_18  and  C_19
REMARK                            x       y       z     vdW  Elec       q    Type
REMARK                         _______ _______ _______ _____ _____    ______ ____
ROOT
ATOM      1  C   UNL     1      43.241   5.387  12.263  0.00  0.00    +0.000 C 
ENDROOT
BRANCH   1   6
ATOM      2  C   UNL     1      46.598   4.820  14.083  0.00  0.00    +0.000 A 
ATOM      3  C   UNL     1      47.322   5.916  13.624  0.00  0.00    +0.000 A 
ATOM      4  C   UNL     1      46.713   6.877  12.813  0.00  0.00    +0.000 A 
ATOM      5  C   UNL     1      45.387   6.716  12.400  0.00  0.00    +0.000 A 
ATOM      6  C   UNL     1      44.651   5.593  12.798  0.00  0.00    +0.000 A 
ATOM      7  C   UNL     1      45.272   4.670  13.658  0.00  0.00    +0.000 A 
BRANCH   2   8
ATOM      8  N   UNL     1      47.176   3.781  14.830  0.00  0.00    +0.000 N 
ATOM      9  H   UNL     1      47.176   2.883  14.352  0.00  0.00    +0.000 HD
BRANCH   8  14
ATOM     10  C   UNL     1      48.525   3.687  19.023  0.00  0.00    +0.000 C 
ATOM     11  C   UNL     1      49.060   3.624  17.594  0.00  0.00    +0.000 C 
ATOM     12  C   UNL     1      50.580   3.501  17.567  0.00  0.00    +0.000 C 
ATOM     13  C   UNL     1      48.502   4.741  16.668  0.00  0.00    +0.000 C 
ATOM     14  C   UNL     1      47.386   3.756  16.235  0.00  0.00    +0.000 C 
ATOM     15  C   UNL     1      48.323   2.607  16.673  0.00  0.00    +0.000 C 
ENDBRANCH   8  14
ENDBRANCH   2   8
ENDBRANCH   1   6
BRANCH   1  16
ATOM     16  C   UNL     1      43.177   4.530  10.993  0.00  0.00    +0.000 C 
BRANCH  16  17
ATOM     17  N   UNL     1      43.956   5.079   9.879  0.00  0.00    +0.000 N 
ATOM     18  C   UNL     1      44.716   4.066   9.247  0.00  0.00    +0.000 A 
ATOM     19  C   UNL     1      45.514   4.397   8.158  0.00  0.00    +0.000 A 
ATOM     20  C   UNL     1      46.270   3.399   7.533  0.00  0.00    +0.000 A 
ATOM     21  C   UNL     1      46.223   2.088   8.008  0.00  0.00    +0.000 A 
ATOM     22  C   UNL     1      45.394   1.845   9.087  0.00  0.00    +0.000 A 
ATOM     23  N   UNL     1      44.649   2.794   9.699  0.00  0.00    +0.000 NA
ATOM     24  H   UNL     1      44.597   5.808  10.182  0.00  0.00    +0.000 HD
BRANCH  21  25
ATOM     25  C   UNL     1      47.043   1.037   7.361  0.00  0.00    +0.000 C 
ATOM     26  N   UNL     1      46.798  -0.276   7.647  0.00  0.00    +0.000 N 
ATOM     27  O   UNL     1      47.945   1.331   6.581  0.00  0.00    +0.000 OA
ATOM     28  H   UNL     1      46.095  -0.632   8.276  0.00  0.00    +0.000 HD
ATOM     29  H   UNL     1      47.396  -0.953   7.189  0.00  0.00    +0.000 HD
ENDBRANCH  21  25
ENDBRANCH  16  17
ENDBRANCH   1  16
TORSDOF 6
ENDMDL
MODEL 2
REMARK VINA RESULT:    -8.650      2.333      3.855
REMARK INTER + INTRA:         -12.306
REMARK INTER:                 -11.210
REMARK INTRA:                  -1.096
REMARK UNBOUND:                -0.622
REMARK  Name = 
REMARK  8 active torsions:
REMARK  status: ('A' for Active; 'I' for Inactive)
REMARK    1  A    between atoms: C_1  and  C_2
REMARK    2  A    between atoms: C_2  and  C_3
REMARK    3  A    between atoms: C_5  and  N_6
REMARK    4  A    between atoms: N_6  and  C_7
REMARK    5  A    between atoms: C_11  and  C_12
REMARK    6  A    between atoms: C_12  and  C_13
REMARK    7  A    between atoms: C_13  and  N_14
REMARK    8  A    between atoms: C_18  and  C_19
REMARK                            x       y       z     vdW  Elec       q    Type
REMARK                         _______ _______ _______ _____ _____    ______ ____
ROOT
ATOM      1  C   UNL     1      43.220   5.018  12.313  0.00  0.00    +0.000 C 
ENDROOT
BRANCH   1   6
ATOM      2  C   UNL     1      46.584   6.475  13.521  0.00  0.00    +0.000 A 
ATOM      3  C   UNL     1      47.303   5.304  13.737  0.00  0.00    +0.000 A 
ATOM      4  C   UNL     1      46.750   4.064  13.412  0.00  0.00    +0.000 A 
ATOM      5  C   UNL     1      45.441   3.979  12.925  0.00  0.00    +0.000 A 
ATOM      6  C   UNL     1      44.672   5.137  12.754  0.00  0.00    +0.000 A 
ATOM      7  C   UNL     1      45.274   6.375  13.037  0.00  0.00    +0.000 A 
BRANCH   2   8
ATOM      8  N   UNL     1      47.053   7.743  13.905  0.00  0.00    +0.000 N 
ATOM      9  H   UNL     1      46.563   8.137  14.704  0.00  0.00    +0.000 HD
BRANCH   8  14
ATOM     10  C   UNL     1      49.792   9.961  11.261  0.00  0.00    +0.000 C 
ATOM     11  C   UNL     1      49.545   8.562  11.823  0.00  0.00    +0.000 C 
ATOM     12  C   UNL     1      50.567   7.557  11.302  0.00  0.00    +0.000 C 
ATOM     13  C   UNL     1      48.072   8.087  11.690  0.00  0.00    +0.000 C 
ATOM     14  C   UNL     1      47.815   8.644  13.114  0.00  0.00    +0.000 C 
ATOM     15  C   UNL     1      49.335   8.513  13.366  0.00  0.00    +0.000 C 
ENDBRANCH   8  14
ENDBRANCH   2   8
ENDBRANCH   1   6
BRANCH   1  16
ATOM     16  C   UNL     1      43.043   4.420  10.912  0.00  0.00    +0.000 C 
BRANCH  16  17
ATOM     17  N   UNL     1      43.939   5.006   9.910  0.00  0.00    +0.000 N 
ATOM     18  C   UNL     1      44.704   4.002   9.270  0.00  0.00    +0.000 A 
ATOM     19  C   UNL     1      45.607   4.368   8.279  0.00  0.00    +0.000 A 
ATOM     20  C   UNL     1      46.368   3.378   7.645  0.00  0.00    +0.000 A 
ATOM     21  C   UNL     1      46.220   2.041   8.016  0.00  0.00    +0.000 A 
ATOM     22  C   UNL     1      45.292   1.766   9.002  0.00  0.00    +0.000 A 
ATOM     23  N   UNL     1      44.540   2.707   9.619  0.00  0.00    +0.000 NA
ATOM     24  H   UNL     1      44.584   5.678  10.319  0.00  0.00    +0.000 HD
BRANCH  21  25
ATOM     25  C   UNL     1      47.045   0.998   7.363  0.00  0.00    +0.000 C 
ATOM     26  N   UNL     1      46.812  -0.318   7.649  0.00  0.00    +0.000 N 
ATOM     27  O   UNL     1      47.939   1.300   6.577  0.00  0.00    +0.000 OA
ATOM     28  H   UNL     1      46.116  -0.680   8.281  0.00  0.00    +0.000 HD
ATOM     29  H   UNL     1      47.412  -0.990   7.186  0.00  0.00    +0.000 HD
ENDBRANCH  21  25
ENDBRANCH  16  17
ENDBRANCH   1  16
TORSDOF 6
ENDMDL
MODEL 3
REMARK VINA RESULT:    -7.678      2.809      8.147
REMARK INTER + INTRA:         -10.993
REMARK INTER:                 -10.403
REMARK INTRA:                  -0.590
REMARK UNBOUND:                -0.622
REMARK  Name = 
REMARK  8 active torsions:
REMARK  status: ('A' for Active; 'I' for Inactive)
REMARK    1  A    between atoms: C_1  and  C_2
REMARK    2  A    between atoms: C_2  and  C_3
REMARK    3  A    between atoms: C_5  and  N_6
REMARK    4  A    between atoms: N_6  and  C_7
REMARK    5  A    between atoms: C_11  and  C_12
REMARK    6  A    between atoms: C_12  and  C_13
REMARK    7  A    between atoms: C_13  and  N_14
REMARK    8  A    between atoms: C_18  and  C_19
REMARK                            x       y       z     vdW  Elec       q    Type
REMARK                         _______ _______ _______ _____ _____    ______ ____
ROOT
ATOM      1  C   UNL     1      46.281   7.401  12.540  0.00  0.00    +0.000 C 
ENDROOT
BRANCH   1   6
ATOM      2  C   UNL     1      44.451   4.978  10.157  0.00  0.00    +0.000 A 
ATOM      3  C   UNL     1      43.465   4.485  11.007  0.00  0.00    +0.000 A 
ATOM      4  C   UNL     1      43.330   4.990  12.301  0.00  0.00    +0.000 A 
ATOM      5  C   UNL     1      44.224   5.953  12.782  0.00  0.00    +0.000 A 
ATOM      6  C   UNL     1      45.262   6.425  11.970  0.00  0.00    +0.000 A 
ATOM      7  C   UNL     1      45.341   5.938  10.653  0.00  0.00    +0.000 A 
BRANCH   2   8
ATOM      8  N   UNL     1      44.690   4.453   8.876  0.00  0.00    +0.000 N 
ATOM      9  H   UNL     1      43.928   4.608   8.220  0.00  0.00    +0.000 HD
BRANCH   8  14
ATOM     10  C   UNL     1      47.599   1.636   7.140  0.00  0.00    +0.000 C 
ATOM     11  C   UNL     1      46.666   2.781   6.751  0.00  0.00    +0.000 C 
ATOM     12  C   UNL     1      46.753   3.098   5.262  0.00  0.00    +0.000 C 
ATOM     13  C   UNL     1      46.793   4.029   7.669  0.00  0.00    +0.000 C 
ATOM     14  C   UNL     1      45.638   3.454   8.529  0.00  0.00    +0.000 C 
ATOM     15  C   UNL     1      45.210   2.638   7.287  0.00  0.00    +0.000 C 
ENDBRANCH   8  14
ENDBRANCH   2   8
ENDBRANCH   1   6
BRANCH   1  16
ATOM     16  C   UNL     1      47.719   6.870  12.540  0.00  0.00    +0.000 C 
BRANCH  16  17
ATOM     17  N   UNL     1      48.466   7.207  13.756  0.00  0.00    +0.000 N 
ATOM     18  C   UNL     1      48.254   6.238  14.764  0.00  0.00    +0.000 A 
ATOM     19  C   UNL     1      48.891   6.385  15.991  0.00  0.00    +0.000 A 
ATOM     20  C   UNL     1      48.681   5.430  16.992  0.00  0.00    +0.000 A 
ATOM     21  C   UNL     1      47.834   4.347  16.756  0.00  0.00    +0.000 A 
ATOM     22  C   UNL     1      47.251   4.272  15.505  0.00  0.00    +0.000 A 
ATOM     23  N   UNL     1      47.449   5.180  14.521  0.00  0.00    +0.000 NA
ATOM     24  H   UNL     1      48.197   8.114  14.131  0.00  0.00    +0.000 HD
BRANCH  21  25
ATOM     25  C   UNL     1      47.592   3.350  17.825  0.00  0.00    +0.000 C 
ATOM     26  N   UNL     1      48.345   3.393  18.964  0.00  0.00    +0.000 N 
ATOM     27  O   UNL     1      46.733   2.482  17.696  0.00  0.00    +0.000 OA
ATOM     28  H   UNL     1      49.080   4.050  19.172  0.00  0.00    +0.000 HD
ATOM     29  H   UNL     1      48.149   2.681  19.657  0.00  0.00    +0.000 HD
ENDBRANCH  21  25
ENDBRANCH  16  17
ENDBRANCH   1  16
TORSDOF 6
ENDMDL
MODEL 4
REMARK VINA RESULT:    -7.340      3.607      4.591
REMARK INTER + INTRA:         -10.537
REMARK INTER:                  -9.812
REMARK INTRA:                  -0.725
REMARK UNBOUND:                -0.622
REMARK  Name = 
REMARK  8 active torsions:
REMARK  status: ('A' for Active; 'I' for Inactive)
REMARK    1  A    between atoms: C_1  and  C_2
REMARK    2  A    between atoms: C_2  and  C_3
REMARK    3  A    between atoms: C_5  and  N_6
REMARK    4  A    between atoms: N_6  and  C_7
REMARK    5  A    between atoms: C_11  and  C_12
REMARK    6  A    between atoms: C_12  and  C_13
REMARK    7  A    between atoms: C_13  and  N_14
REMARK    8  A    between atoms: C_18  and  C_19
REMARK                            x       y       z     vdW  Elec       q    Type
REMARK                         _______ _______ _______ _____ _____    ______ ____
ROOT
ATOM      1  C   UNL     1      44.288   5.235  12.162  0.00  0.00    +0.000 C 
ENDROOT
BRANCH   1   6
ATOM      2  C   UNL     1      45.959   8.594  13.074  0.00  0.00    +0.000 A 
ATOM      3  C   UNL     1      45.416   9.419  12.095  0.00  0.00    +0.000 A 
ATOM      4  C   UNL     1      44.455   8.929  11.209  0.00  0.00    +0.000 A 
ATOM      5  C   UNL     1      44.073   7.584  11.253  0.00  0.00    +0.000 A 
ATOM      6  C   UNL     1      44.646   6.714  12.189  0.00  0.00    +0.000 A 
ATOM      7  C   UNL     1      45.571   7.249  13.104  0.00  0.00    +0.000 A 
BRANCH   2   8
ATOM      8  N   UNL     1      46.987   9.005  13.938  0.00  0.00    +0.000 N 
ATOM      9  H   UNL     1      46.663   9.556  14.729  0.00  0.00    +0.000 HD
BRANCH   8  14
ATOM     10  C   UNL     1      51.092   9.601  12.452  0.00  0.00    +0.000 C 
ATOM     11  C   UNL     1      49.636   9.897  12.094  0.00  0.00    +0.000 C 
ATOM     12  C   UNL     1      49.525  10.678  10.789  0.00  0.00    +0.000 C 
ATOM     13  C   UNL     1      48.818  10.507  13.265  0.00  0.00    +0.000 C 
ATOM     14  C   UNL     1      48.375   9.070  13.641  0.00  0.00    +0.000 C 
ATOM     15  C   UNL     1      48.687   8.666  12.181  0.00  0.00    +0.000 C 
ENDBRANCH   8  14
ENDBRANCH   2   8
ENDBRANCH   1   6
BRANCH   1  16
ATOM     16  C   UNL     1      43.688   4.766  10.831  0.00  0.00    +0.000 C 
BRANCH  16  17
ATOM     17  N   UNL     1      43.855   3.329  10.591  0.00  0.00    +0.000 N 
ATOM     18  C   UNL     1      44.768   3.097   9.535  0.00  0.00    +0.000 A 
ATOM     19  C   UNL     1      45.062   1.788   9.169  0.00  0.00    +0.000 A 
ATOM     20  C   UNL     1      45.962   1.554   8.124  0.00  0.00    +0.000 A 
ATOM     21  C   UNL     1      46.551   2.629   7.456  0.00  0.00    +0.000 A 
ATOM     22  C   UNL     1      46.212   3.896   7.893  0.00  0.00    +0.000 A 
ATOM     23  N   UNL     1      45.351   4.142   8.908  0.00  0.00    +0.000 NA
ATOM     24  H   UNL     1      42.976   2.877  10.350  0.00  0.00    +0.000 HD
BRANCH  21  25
ATOM     25  C   UNL     1      47.484   2.381   6.333  0.00  0.00    +0.000 C 
ATOM     26  N   UNL     1      47.439   3.188   5.232  0.00  0.00    +0.000 N 
ATOM     27  O   UNL     1      48.290   1.454   6.375  0.00  0.00    +0.000 OA
ATOM     28  H   UNL     1      46.817   3.967   5.085  0.00  0.00    +0.000 HD
ATOM     29  H   UNL     1      48.089   2.967   4.487  0.00  0.00    +0.000 HD
ENDBRANCH  21  25
ENDBRANCH  16  17
ENDBRANCH   1  16
TORSDOF 6
ENDMDL
MODEL 5
REMARK VINA RESULT:    -7.019      3.174      8.577
REMARK INTER + INTRA:         -10.103
REMARK INTER:                  -9.728
REMARK INTRA:                  -0.375
REMARK UNBOUND:                -0.622
REMARK  Name = 
REMARK  8 active torsions:
REMARK  status: ('A' for Active; 'I' for Inactive)
REMARK    1  A    between atoms: C_1  and  C_2
REMARK    2  A    between atoms: C_2  and  C_3
REMARK    3  A    between atoms: C_5  and  N_6
REMARK    4  A    between atoms: N_6  and  C_7
REMARK    5  A    between atoms: C_11  and  C_12
REMARK    6  A    between atoms: C_12  and  C_13
REMARK    7  A    between atoms: C_13  and  N_14
REMARK    8  A    between atoms: C_18  and  C_19
REMARK                            x       y       z     vdW  Elec       q    Type
REMARK                         _______ _______ _______ _____ _____    ______ ____
ROOT
ATOM      1  C   UNL     1      46.373   6.569  12.442  0.00  0.00    +0.000 C 
ENDROOT
BRANCH   1   6
ATOM      2  C   UNL     1      44.650   3.554  10.756  0.00  0.00    +0.000 A 
ATOM      3  C   UNL     1      43.400   3.605  11.365  0.00  0.00    +0.000 A 
ATOM      4  C   UNL     1      43.080   4.647  12.237  0.00  0.00    +0.000 A 
ATOM      5  C   UNL     1      44.034   5.618  12.560  0.00  0.00    +0.000 A 
ATOM      6  C   UNL     1      45.320   5.559  12.008  0.00  0.00    +0.000 A 
ATOM      7  C   UNL     1      45.597   4.530  11.091  0.00  0.00    +0.000 A 
BRANCH   2   8
ATOM      8  N   UNL     1      45.059   2.489   9.936  0.00  0.00    +0.000 N 
ATOM      9  H   UNL     1      45.600   1.779  10.425  0.00  0.00    +0.000 HD
BRANCH   8  14
ATOM     10  C   UNL     1      46.012   2.453   5.635  0.00  0.00    +0.000 C 
ATOM     11  C   UNL     1      46.683   2.492   7.007  0.00  0.00    +0.000 C 
ATOM     12  C   UNL     1      48.203   2.512   6.891  0.00  0.00    +0.000 C 
ATOM     13  C   UNL     1      46.140   1.425   7.998  0.00  0.00    +0.000 C 
ATOM     14  C   UNL     1      45.138   2.487   8.518  0.00  0.00    +0.000 C 
ATOM     15  C   UNL     1      46.105   3.566   7.977  0.00  0.00    +0.000 C 
ENDBRANCH   8  14
ENDBRANCH   2   8
ENDBRANCH   1   6
BRANCH   1  16
ATOM     16  C   UNL     1      47.365   6.026  13.477  0.00  0.00    +0.000 C 
BRANCH  16  17
ATOM     17  N   UNL     1      46.859   4.867  14.218  0.00  0.00    +0.000 N 
ATOM     18  C   UNL     1      47.486   4.763  15.482  0.00  0.00    +0.000 A 
ATOM     19  C   UNL     1      47.125   3.725  16.335  0.00  0.00    +0.000 A 
ATOM     20  C   UNL     1      47.745   3.618  17.584  0.00  0.00    +0.000 A 
ATOM     21  C   UNL     1      48.720   4.543  17.962  0.00  0.00    +0.000 A 
ATOM     22  C   UNL     1      49.008   5.548  17.059  0.00  0.00    +0.000 A 
ATOM     23  N   UNL     1      48.413   5.675  15.850  0.00  0.00    +0.000 NA
ATOM     24  H   UNL     1      47.016   3.995  13.719  0.00  0.00    +0.000 HD
BRANCH  21  25
ATOM     25  C   UNL     1      49.394   4.412  19.274  0.00  0.00    +0.000 C 
ATOM     26  N   UNL     1      48.672   4.010  20.362  0.00  0.00    +0.000 N 
ATOM     27  O   UNL     1      50.589   4.670  19.399  0.00  0.00    +0.000 OA
ATOM     28  H   UNL     1      47.690   3.783  20.379  0.00  0.00    +0.000 HD
ATOM     29  H   UNL     1      49.178   3.950  21.238  0.00  0.00    +0.000 HD
ENDBRANCH  21  25
ENDBRANCH  16  17
ENDBRANCH   1  16
TORSDOF 6
ENDMDL
MODEL 6
REMARK VINA RESULT:    -6.758      3.499      7.770
REMARK INTER + INTRA:          -9.751
REMARK INTER:                  -8.781
REMARK INTRA:                  -0.969
REMARK UNBOUND:                -0.622
REMARK  Name = 
REMARK  8 active torsions:
REMARK  status: ('A' for Active; 'I' for Inactive)
REMARK    1  A    between atoms: C_1  and  C_2
REMARK    2  A    between atoms: C_2  and  C_3
REMARK    3  A    between atoms: C_5  and  N_6
REMARK    4  A    between atoms: N_6  and  C_7
REMARK    5  A    between atoms: C_11  and  C_12
REMARK    6  A    between atoms: C_12  and  C_13
REMARK    7  A    between atoms: C_13  and  N_14
REMARK    8  A    between atoms: C_18  and  C_19
REMARK                            x       y       z     vdW  Elec       q    Type
REMARK                         _______ _______ _______ _____ _____    ______ ____
ROOT
ATOM      1  C   UNL     1      49.116   8.926  12.418  0.00  0.00    +0.000 C 
ENDROOT
BRANCH   1   6
ATOM      2  C   UNL     1      45.393   8.056  11.889  0.00  0.00    +0.000 A 
ATOM      3  C   UNL     1      44.839   9.332  11.852  0.00  0.00    +0.000 A 
ATOM      4  C   UNL     1      45.659  10.461  11.903  0.00  0.00    +0.000 A 
ATOM      5  C   UNL     1      47.043  10.324  12.057  0.00  0.00    +0.000 A 
ATOM      6  C   UNL     1      47.623   9.054  12.157  0.00  0.00    +0.000 A 
ATOM      7  C   UNL     1      46.779   7.934  12.047  0.00  0.00    +0.000 A 
BRANCH   2   8
ATOM      8  N   UNL     1      44.617   6.886  11.925  0.00  0.00    +0.000 N 
ATOM      9  H   UNL     1      44.144   6.735  12.813  0.00  0.00    +0.000 HD
BRANCH   8  14
ATOM     10  C   UNL     1      44.555   3.067   9.730  0.00  0.00    +0.000 C 
ATOM     11  C   UNL     1      44.097   3.697  11.044  0.00  0.00    +0.000 C 
ATOM     12  C   UNL     1      43.344   2.699  11.916  0.00  0.00    +0.000 C 
ATOM     13  C   UNL     1      43.362   5.054  10.862  0.00  0.00    +0.000 C 
ATOM     14  C   UNL     1      44.726   5.764  11.060  0.00  0.00    +0.000 C 
ATOM     15  C   UNL     1      45.204   4.493  11.799  0.00  0.00    +0.000 C 
ENDBRANCH   8  14
ENDBRANCH   2   8
ENDBRANCH   1   6
BRANCH   1  16
ATOM     16  C   UNL     1      49.544   7.539  12.914  0.00  0.00    +0.000 C 
BRANCH  16  17
ATOM     17  N   UNL     1      50.102   7.552  14.270  0.00  0.00    +0.000 N 
ATOM     18  C   UNL     1      49.441   6.613  15.096  0.00  0.00    +0.000 A 
ATOM     19  C   UNL     1      49.841   6.475  16.420  0.00  0.00    +0.000 A 
ATOM     20  C   UNL     1      49.188   5.549  17.242  0.00  0.00    +0.000 A 
ATOM     21  C   UNL     1      48.140   4.781  16.731  0.00  0.00    +0.000 A 
ATOM     22  C   UNL     1      47.815   4.974  15.402  0.00  0.00    +0.000 A 
ATOM     23  N   UNL     1      48.442   5.857  14.589  0.00  0.00    +0.000 NA
ATOM     24  H   UNL     1      50.022   8.466  14.709  0.00  0.00    +0.000 HD
BRANCH  21  25
ATOM     25  C   UNL     1      47.432   3.821  17.609  0.00  0.00    +0.000 C 
ATOM     26  N   UNL     1      47.941   3.541  18.845  0.00  0.00    +0.000 N 
ATOM     27  O   UNL     1      46.401   3.267  17.236  0.00  0.00    +0.000 OA
ATOM     28  H   UNL     1      48.780   3.926  19.249  0.00  0.00    +0.000 HD
ATOM     29  H   UNL     1      47.426   2.867  19.400  0.00  0.00    +0.000 HD
ENDBRANCH  21  25
ENDBRANCH  16  17
ENDBRANCH   1  16
TORSDOF 6
ENDMDL
MODEL 7
REMARK VINA RESULT:    -6.637      3.663      8.962
REMARK INTER + INTRA:          -9.587
REMARK INTER:                  -8.964
REMARK INTRA:                  -0.623
REMARK UNBOUND:                -0.622
REMARK  Name = 
REMARK  8 active torsions:
REMARK  status: ('A' for Active; 'I' for Inactive)
REMARK    1  A    between atoms: C_1  and  C_2
REMARK    2  A    between atoms: C_2  and  C_3
REMARK    3  A    between atoms: C_5  and  N_6
REMARK    4  A    between atoms: N_6  and  C_7
REMARK    5  A    between atoms: C_11  and  C_12
REMARK    6  A    between atoms: C_12  and  C_13
REMARK    7  A    between atoms: C_13  and  N_14
REMARK    8  A    between atoms: C_18  and  C_19
REMARK                            x       y       z     vdW  Elec       q    Type
REMARK                         _______ _______ _______ _____ _____    ______ ____
ROOT
ATOM      1  C   UNL     1      46.356   6.799  12.924  0.00  0.00    +0.000 C 
ENDROOT
BRANCH   1   6
ATOM      2  C   UNL     1      44.421   4.879  10.192  0.00  0.00    +0.000 A 
ATOM      3  C   UNL     1      43.294   4.489  10.908  0.00  0.00    +0.000 A 
ATOM      4  C   UNL     1      43.110   4.914  12.225  0.00  0.00    +0.000 A 
ATOM      5  C   UNL     1      44.089   5.684  12.863  0.00  0.00    +0.000 A 
ATOM      6  C   UNL     1      45.262   6.042  12.186  0.00  0.00    +0.000 A 
ATOM      7  C   UNL     1      45.394   5.646  10.843  0.00  0.00    +0.000 A 
BRANCH   2   8
ATOM      8  N   UNL     1      44.702   4.416   8.895  0.00  0.00    +0.000 N 
ATOM      9  H   UNL     1      43.969   4.620   8.219  0.00  0.00    +0.000 HD
BRANCH   8  14
ATOM     10  C   UNL     1      47.593   1.610   7.114  0.00  0.00    +0.000 C 
ATOM     11  C   UNL     1      46.657   2.759   6.741  0.00  0.00    +0.000 C 
ATOM     12  C   UNL     1      46.732   3.086   5.254  0.00  0.00    +0.000 C 
ATOM     13  C   UNL     1      46.793   4.000   7.666  0.00  0.00    +0.000 C 
ATOM     14  C   UNL     1      45.646   3.419   8.532  0.00  0.00    +0.000 C 
ATOM     15  C   UNL     1      45.206   2.613   7.288  0.00  0.00    +0.000 C 
ENDBRANCH   8  14
ENDBRANCH   2   8
ENDBRANCH   1   6
BRANCH   1  16
ATOM     16  C   UNL     1      47.486   5.904  13.449  0.00  0.00    +0.000 C 
BRANCH  16  17
ATOM     17  N   UNL     1      47.326   5.530  14.858  0.00  0.00    +0.000 N 
ATOM     18  C   UNL     1      48.432   5.968  15.624  0.00  0.00    +0.000 A 
ATOM     19  C   UNL     1      48.453   5.711  16.991  0.00  0.00    +0.000 A 
ATOM     20  C   UNL     1      49.546   6.140  17.752  0.00  0.00    +0.000 A 
ATOM     21  C   UNL     1      50.603   6.813  17.137  0.00  0.00    +0.000 A 
ATOM     22  C   UNL     1      50.494   7.037  15.778  0.00  0.00    +0.000 A 
ATOM     23  N   UNL     1      49.441   6.639  15.027  0.00  0.00    +0.000 NA
ATOM     24  H   UNL     1      47.240   4.523  14.979  0.00  0.00    +0.000 HD
BRANCH  21  25
ATOM     25  C   UNL     1      51.771   7.245  17.940  0.00  0.00    +0.000 C 
ATOM     26  N   UNL     1      52.627   8.179  17.430  0.00  0.00    +0.000 N 
ATOM     27  O   UNL     1      51.985   6.767  19.051  0.00  0.00    +0.000 OA
ATOM     28  H   UNL     1      52.557   8.629  16.531  0.00  0.00    +0.000 HD
ATOM     29  H   UNL     1      53.417   8.428  18.013  0.00  0.00    +0.000 HD
ENDBRANCH  21  25
ENDBRANCH  16  17
ENDBRANCH   1  16
TORSDOF 6
ENDMDL
MODEL 8
REMARK VINA RESULT:    -6.479      3.745      7.919
REMARK INTER + INTRA:          -9.374
REMARK INTER:                  -8.249
REMARK INTRA:                  -1.125
REMARK UNBOUND:                -0.622
REMARK  Name = 
REMARK  8 active torsions:
REMARK  status: ('A' for Active; 'I' for Inactive)
REMARK    1  A    between atoms: C_1  and  C_2
REMARK    2  A    between atoms: C_2  and  C_3
REMARK    3  A    between atoms: C_5  and  N_6
REMARK    4  A    between atoms: N_6  and  C_7
REMARK    5  A    between atoms: C_11  and  C_12
REMARK    6  A    between atoms: C_12  and  C_13
REMARK    7  A    between atoms: C_13  and  N_14
REMARK    8  A    between atoms: C_18  and  C_19
REMARK                            x       y       z     vdW  Elec       q    Type
REMARK                         _______ _______ _______ _____ _____    ______ ____
ROOT
ATOM      1  C   UNL     1      48.276   9.235  16.658  0.00  0.00    +0.000 C 
ENDROOT
BRANCH   1   6
ATOM      2  C   UNL     1      48.301   7.542  13.189  0.00  0.00    +0.000 A 
ATOM      3  C   UNL     1      49.649   7.657  12.863  0.00  0.00    +0.000 A 
ATOM      4  C   UNL     1      50.557   8.188  13.782  0.00  0.00    +0.000 A 
ATOM      5  C   UNL     1      50.113   8.669  15.017  0.00  0.00    +0.000 A 
ATOM      6  C   UNL     1      48.753   8.621  15.350  0.00  0.00    +0.000 A 
ATOM      7  C   UNL     1      47.870   8.032  14.428  0.00  0.00    +0.000 A 
BRANCH   2   8
ATOM      8  N   UNL     1      47.329   7.095  12.279  0.00  0.00    +0.000 N 
ATOM      9  H   UNL     1      47.498   7.390  11.320  0.00  0.00    +0.000 HD
BRANCH   8  14
ATOM     10  C   UNL     1      43.450   5.098  12.892  0.00  0.00    +0.000 C 
ATOM     11  C   UNL     1      44.800   4.902  12.203  0.00  0.00    +0.000 C 
ATOM     12  C   UNL     1      44.874   3.561  11.481  0.00  0.00    +0.000 C 
ATOM     13  C   UNL     1      46.018   5.190  13.123  0.00  0.00    +0.000 C 
ATOM     14  C   UNL     1      46.017   6.645  12.587  0.00  0.00    +0.000 C 
ATOM     15  C   UNL     1      45.267   6.114  11.343  0.00  0.00    +0.000 C 
ENDBRANCH   8  14
ENDBRANCH   2   8
ENDBRANCH   1   6
BRANCH   1  16
ATOM     16  C   UNL     1      48.584   8.382  17.894  0.00  0.00    +0.000 C 
BRANCH  16  17
ATOM     17  N   UNL     1      47.624   7.293  18.106  0.00  0.00    +0.000 N 
ATOM     18  C   UNL     1      48.224   6.036  17.857  0.00  0.00    +0.000 A 
ATOM     19  C   UNL     1      47.468   4.881  18.016  0.00  0.00    +0.000 A 
ATOM     20  C   UNL     1      48.056   3.636  17.768  0.00  0.00    +0.000 A 
ATOM     21  C   UNL     1      49.389   3.564  17.358  0.00  0.00    +0.000 A 
ATOM     22  C   UNL     1      50.070   4.760  17.237  0.00  0.00    +0.000 A 
ATOM     23  N   UNL     1      49.521   5.973  17.482  0.00  0.00    +0.000 NA
ATOM     24  H   UNL     1      46.811   7.377  17.501  0.00  0.00    +0.000 HD
BRANCH  21  25
ATOM     25  C   UNL     1      50.003   2.247  17.071  0.00  0.00    +0.000 C 
ATOM     26  N   UNL     1      50.934   1.739  17.932  0.00  0.00    +0.000 N 
ATOM     27  O   UNL     1      49.695   1.612  16.066  0.00  0.00    +0.000 OA
ATOM     28  H   UNL     1      51.269   2.174  18.777  0.00  0.00    +0.000 HD
ATOM     29  H   UNL     1      51.333   0.842  17.682  0.00  0.00    +0.000 HD
ENDBRANCH  21  25
ENDBRANCH  16  17
ENDBRANCH   1  16
TORSDOF 6
ENDMDL
MODEL 9
REMARK VINA RESULT:    -6.300      3.771      8.086
REMARK INTER + INTRA:          -9.132
REMARK INTER:                  -9.044
REMARK INTRA:                  -0.088
REMARK UNBOUND:                -0.622
REMARK  Name = 
REMARK  8 active torsions:
REMARK  status: ('A' for Active; 'I' for Inactive)
REMARK    1  A    between atoms: C_1  and  C_2
REMARK    2  A    between atoms: C_2  and  C_3
REMARK    3  A    between atoms: C_5  and  N_6
REMARK    4  A    between atoms: N_6  and  C_7
REMARK    5  A    between atoms: C_11  and  C_12
REMARK    6  A    between atoms: C_12  and  C_13
REMARK    7  A    between atoms: C_13  and  N_14
REMARK    8  A    between atoms: C_18  and  C_19
REMARK                            x       y       z     vdW  Elec       q    Type
REMARK                         _______ _______ _______ _____ _____    ______ ____
ROOT
ATOM      1  C   UNL     1      49.713   7.030  15.344  0.00  0.00    +0.000 C 
ENDROOT
BRANCH   1   6
ATOM      2  C   UNL     1      46.757   7.019  12.862  0.00  0.00    +0.000 A 
ATOM      3  C   UNL     1      47.385   7.503  11.719  0.00  0.00    +0.000 A 
ATOM      4  C   UNL     1      48.761   7.743  11.717  0.00  0.00    +0.000 A 
ATOM      5  C   UNL     1      49.513   7.561  12.882  0.00  0.00    +0.000 A 
ATOM      6  C   UNL     1      48.897   7.132  14.063  0.00  0.00    +0.000 A 
ATOM      7  C   UNL     1      47.521   6.846  14.022  0.00  0.00    +0.000 A 
BRANCH   2   8
ATOM      8  N   UNL     1      45.367   6.838  12.952  0.00  0.00    +0.000 N 
ATOM      9  H   UNL     1      44.879   7.617  13.389  0.00  0.00    +0.000 HD
BRANCH   8  14
ATOM     10  C   UNL     1      43.384   3.019  12.009  0.00  0.00    +0.000 C 
ATOM     11  C   UNL     1      44.176   4.149  11.352  0.00  0.00    +0.000 C 
ATOM     12  C   UNL     1      44.385   3.898   9.863  0.00  0.00    +0.000 C 
ATOM     13  C   UNL     1      45.475   4.526  12.116  0.00  0.00    +0.000 C 
ATOM     14  C   UNL     1      44.660   5.608  12.869  0.00  0.00    +0.000 C 
ATOM     15  C   UNL     1      43.660   5.579  11.690  0.00  0.00    +0.000 C 
ENDBRANCH   8  14
ENDBRANCH   2   8
ENDBRANCH   1   6
BRANCH   1  16
ATOM     16  C   UNL     1      48.866   6.830  16.606  0.00  0.00    +0.000 C 
BRANCH  16  17
ATOM     17  N   UNL     1      48.235   5.508  16.682  0.00  0.00    +0.000 N 
ATOM     18  C   UNL     1      49.194   4.507  16.964  0.00  0.00    +0.000 A 
ATOM     19  C   UNL     1      48.779   3.185  17.083  0.00  0.00    +0.000 A 
ATOM     20  C   UNL     1      49.725   2.192  17.359  0.00  0.00    +0.000 A 
ATOM     21  C   UNL     1      51.072   2.531  17.504  0.00  0.00    +0.000 A 
ATOM     22  C   UNL     1      51.394   3.869  17.381  0.00  0.00    +0.000 A 
ATOM     23  N   UNL     1      50.492   4.846  17.125  0.00  0.00    +0.000 NA
ATOM     24  H   UNL     1      47.766   5.258  15.816  0.00  0.00    +0.000 HD
BRANCH  21  25
ATOM     25  C   UNL     1      52.076   1.475  17.770  0.00  0.00    +0.000 C 
ATOM     26  N   UNL     1      51.656   0.222  18.117  0.00  0.00    +0.000 N 
ATOM     27  O   UNL     1      53.278   1.713  17.691  0.00  0.00    +0.000 OA
ATOM     28  H   UNL     1      50.700  -0.082  18.221  0.00  0.00    +0.000 HD
ATOM     29  H   UNL     1      52.382  -0.459  18.301  0.00  0.00    +0.000 HD
ENDBRANCH  21  25
ENDBRANCH  16  17
ENDBRANCH   1  16
TORSDOF 6
ENDMDL
