MODEL 1
REMARK VINA RESULT:    -8.323      0.000      0.000
REMARK INTER + INTRA:         -10.793
REMARK INTER:                 -10.756
REMARK INTRA:                  -0.037
REMARK UNBOUND:                -0.037
REMARK  Name = 
REMARK  5 active torsions:
REMARK  status: ('A' for Active; 'I' for Inactive)
REMARK    1  A    between atoms: C_2  and  C_3
REMARK    2  A    between atoms: C_6  and  C_7
REMARK    3  A    between atoms: C_7  and  N_8
REMARK    4  A    between atoms: N_8  and  C_9
REMARK    5  A    between atoms: C_12  and  C_13
REMARK                            x       y       z     vdW  Elec       q    Type
REMARK                         _______ _______ _______ _____ _____    ______ ____
ROOT
ATOM      1  N   UNL     1      43.787   4.810   9.790  0.00  0.00    +0.000 N 
ATOM      2  H   UNL     1      43.248   5.435   9.197  0.00  0.00    +0.000 HD
ENDROOT
BRANCH   1   3
ATOM      3  C   UNL     1      44.633   3.933   9.098  0.00  0.00    +0.000 A 
ATOM      4  C   UNL     1      45.597   4.321   8.171  0.00  0.00    +0.000 A 
ATOM      5  C   UNL     1      46.416   3.363   7.557  0.00  0.00    +0.000 A 
ATOM      6  C   UNL     1      46.250   2.029   7.903  0.00  0.00    +0.000 A 
ATOM      7  N   UNL     1      45.342   1.598   8.817  0.00  0.00    +0.000 NA
ATOM      8  C   UNL     1      44.576   2.560   9.385  0.00  0.00    +0.000 A 
BRANCH   6   9
ATOM      9  C   UNL     1      47.089   0.968   7.259  0.00  0.00    +0.000 C 
ATOM     10  N   UNL     1      46.782  -0.315   7.623  0.00  0.00    +0.000 N 
ATOM     11  O   UNL     1      47.983   1.222   6.460  0.00  0.00    +0.000 OA
ATOM     12  H   UNL     1      46.032  -0.477   8.288  0.00  0.00    +0.000 HD
ATOM     13  H   UNL     1      47.300  -1.085   7.230  0.00  0.00    +0.000 HD
ENDBRANCH   6   9
ENDBRANCH   1   3
BRANCH   1  14
ATOM     14  C   UNL     1      43.754   5.060  11.235  0.00  0.00    +0.000 C 
ATOM     15  C   UNL     1      42.489   5.480  11.959  0.00  0.00    +0.000 C 
ATOM     16  C   UNL     1      42.922   4.054  12.031  0.00  0.00    +0.000 C 
BRANCH  14  20
ATOM     17  C   UNL     1      47.463   6.249  13.053  0.00  0.00    +0.000 A 
ATOM     18  C   UNL     1      47.044   6.933  11.921  0.00  0.00    +0.000 A 
ATOM     19  C   UNL     1      45.851   6.539  11.312  0.00  0.00    +0.000 A 
ATOM     20  C   UNL     1      45.093   5.479  11.829  0.00  0.00    +0.000 A 
ATOM     21  C   UNL     1      45.641   4.843  12.946  0.00  0.00    +0.000 A 
ATOM     22  N   UNL     1      46.788   5.199  13.574  0.00  0.00    +0.000 NA
BRANCH  17  24
ATOM     23  N   UNL     1      49.610   6.937  14.346  0.00  0.00    +0.000 NA
ATOM     24  C   UNL     1      48.645   6.654  13.762  0.00  0.00    +0.000 C 
ENDBRANCH  17  24
ENDBRANCH  14  20
ENDBRANCH   1  14
TORSDOF 5
ENDMDL
MODEL 2
REMARK VINA RESULT:    -7.207      3.002      6.860
REMARK INTER + INTRA:          -9.351
REMARK INTER:                  -8.925
REMARK INTRA:                  -0.426
REMARK UNBOUND:                -0.037
REMARK  Name = 
REMARK  5 active torsions:
REMARK  status: ('A' for Active; 'I' for Inactive)
REMARK    1  A    between atoms: C_2  and  C_3
REMARK    2  A    between atoms: C_6  and  C_7
REMARK    3  A    between atoms: C_7  and  N_8
REMARK    4  A    between atoms: N_8  and  C_9
REMARK    5  A    between atoms: C_12  and  C_13
REMARK                            x       y       z     vdW  Elec       q    Type
REMARK                         _______ _______ _______ _____ _____    ______ ____
ROOT
ATOM      1  N   UNL     1      44.633   6.008  10.928  0.00  0.00    +0.000 N 
ATOM      2  H   UNL     1      43.943   6.598  10.472  0.00  0.00    +0.000 HD
ENDROOT
BRANCH   1   3
ATOM      3  C   UNL     1      45.520   6.691  11.771  0.00  0.00    +0.000 A 
ATOM      4  C   UNL     1      46.802   6.258  12.100  0.00  0.00    +0.000 A 
ATOM      5  C   UNL     1      47.622   7.035  12.930  0.00  0.00    +0.000 A 
ATOM      6  C   UNL     1      47.132   8.246  13.400  0.00  0.00    +0.000 A 
ATOM      7  N   UNL     1      45.900   8.727  13.092  0.00  0.00    +0.000 NA
ATOM      8  C   UNL     1      45.145   7.942  12.287  0.00  0.00    +0.000 A 
BRANCH   6   9
ATOM      9  C   UNL     1      47.966   9.101  14.304  0.00  0.00    +0.000 C 
ATOM     10  N   UNL     1      47.574   9.113  15.615  0.00  0.00    +0.000 N 
ATOM     11  O   UNL     1      48.932   9.743  13.908  0.00  0.00    +0.000 OA
ATOM     12  H   UNL     1      46.767   8.565  15.897  0.00  0.00    +0.000 HD
ATOM     13  H   UNL     1      48.087   9.663  16.287  0.00  0.00    +0.000 HD
ENDBRANCH   6   9
ENDBRANCH   1   3
BRANCH   1  14
ATOM     14  C   UNL     1      44.465   4.557  10.802  0.00  0.00    +0.000 C 
ATOM     15  C   UNL     1      44.149   3.667  11.989  0.00  0.00    +0.000 C 
ATOM     16  C   UNL     1      43.043   4.060  11.068  0.00  0.00    +0.000 C 
BRANCH  14  20
ATOM     17  C   UNL     1      46.640   2.730   7.574  0.00  0.00    +0.000 A 
ATOM     18  C   UNL     1      46.545   4.114   7.595  0.00  0.00    +0.000 A 
ATOM     19  C   UNL     1      45.822   4.714   8.628  0.00  0.00    +0.000 A 
ATOM     20  C   UNL     1      45.206   3.940   9.621  0.00  0.00    +0.000 A 
ATOM     21  C   UNL     1      45.337   2.558   9.467  0.00  0.00    +0.000 A 
ATOM     22  N   UNL     1      46.037   1.935   8.488  0.00  0.00    +0.000 NA
BRANCH  17  24
ATOM     23  N   UNL     1      48.101   1.533   5.789  0.00  0.00    +0.000 NA
ATOM     24  C   UNL     1      47.426   2.061   6.576  0.00  0.00    +0.000 C 
ENDBRANCH  17  24
ENDBRANCH  14  20
ENDBRANCH   1  14
TORSDOF 5
ENDMDL
MODEL 3
REMARK VINA RESULT:    -6.965      2.925      6.451
REMARK INTER + INTRA:          -9.037
REMARK INTER:                  -8.703
REMARK INTRA:                  -0.334
REMARK UNBOUND:                -0.037
REMARK  Name = 
REMARK  5 active torsions:
REMARK  status: ('A' for Active; 'I' for Inactive)
REMARK    1  A    between atoms: C_2  and  C_3
REMARK    2  A    between atoms: C_6  and  C_7
REMARK    3  A    between atoms: C_7  and  N_8
REMARK    4  A    between atoms: N_8  and  C_9
REMARK    5  A    between atoms: C_12  and  C_13
REMARK                            x       y       z     vdW  Elec       q    Type
REMARK                         _______ _______ _______ _____ _____    ______ ____
ROOT
ATOM      1  N   UNL     1      45.300   5.986  11.854  0.00  0.00    +0.000 N 
ATOM      2  H   UNL     1      45.300   6.972  11.608  0.00  0.00    +0.000 HD
ENDROOT
BRANCH   1   3
ATOM      3  C   UNL     1      46.101   5.659  12.956  0.00  0.00    +0.000 A 
ATOM      4  C   UNL     1      47.173   6.419  13.416  0.00  0.00    +0.000 A 
ATOM      5  C   UNL     1      47.892   6.017  14.550  0.00  0.00    +0.000 A 
ATOM      6  C   UNL     1      47.501   4.859  15.207  0.00  0.00    +0.000 A 
ATOM      7  N   UNL     1      46.449   4.093  14.816  0.00  0.00    +0.000 NA
ATOM      8  C   UNL     1      45.785   4.522  13.717  0.00  0.00    +0.000 A 
BRANCH   6   9
ATOM      9  C   UNL     1      48.250   4.380  16.413  0.00  0.00    +0.000 C 
ATOM     10  N   UNL     1      47.695   3.305  17.052  0.00  0.00    +0.000 N 
ATOM     11  O   UNL     1      49.287   4.905  16.802  0.00  0.00    +0.000 OA
ATOM     12  H   UNL     1      46.835   2.903  16.692  0.00  0.00    +0.000 HD
ATOM     13  H   UNL     1      48.143   2.922  17.870  0.00  0.00    +0.000 HD
ENDBRANCH   6   9
ENDBRANCH   1   3
BRANCH   1  14
ATOM     14  C   UNL     1      44.329   5.124  11.172  0.00  0.00    +0.000 C 
ATOM     15  C   UNL     1      43.059   4.639  11.843  0.00  0.00    +0.000 C 
ATOM     16  C   UNL     1      42.980   5.788  10.896  0.00  0.00    +0.000 C 
BRANCH  14  20
ATOM     17  C   UNL     1      46.078   2.626   8.142  0.00  0.00    +0.000 A 
ATOM     18  C   UNL     1      46.197   4.001   8.001  0.00  0.00    +0.000 A 
ATOM     19  C   UNL     1      45.612   4.820   8.969  0.00  0.00    +0.000 A 
ATOM     20  C   UNL     1      44.923   4.270  10.058  0.00  0.00    +0.000 A 
ATOM     21  C   UNL     1      44.836   2.875  10.066  0.00  0.00    +0.000 A 
ATOM     22  N   UNL     1      45.395   2.043   9.154  0.00  0.00    +0.000 NA
BRANCH  17  24
ATOM     23  N   UNL     1      47.192   1.000   6.446  0.00  0.00    +0.000 NA
ATOM     24  C   UNL     1      46.716   1.733   7.215  0.00  0.00    +0.000 C 
ENDBRANCH  17  24
ENDBRANCH  14  20
ENDBRANCH   1  14
TORSDOF 5
ENDMDL
MODEL 4
REMARK VINA RESULT:    -6.717      2.960      6.593
REMARK INTER + INTRA:          -8.718
REMARK INTER:                  -8.249
REMARK INTRA:                  -0.469
REMARK UNBOUND:                -0.037
REMARK  Name = 
REMARK  5 active torsions:
REMARK  status: ('A' for Active; 'I' for Inactive)
REMARK    1  A    between atoms: C_2  and  C_3
REMARK    2  A    between atoms: C_6  and  C_7
REMARK    3  A    between atoms: C_7  and  N_8
REMARK    4  A    between atoms: N_8  and  C_9
REMARK    5  A    between atoms: C_12  and  C_13
REMARK                            x       y       z     vdW  Elec       q    Type
REMARK                         _______ _______ _______ _____ _____    ______ ____
ROOT
ATOM      1  N   UNL     1      44.747   6.420  12.072  0.00  0.00    +0.000 N 
ATOM      2  H   UNL     1      44.165   7.253  12.072  0.00  0.00    +0.000 HD
ENDROOT
BRANCH   1   3
ATOM      3  C   UNL     1      45.997   6.581  12.683  0.00  0.00    +0.000 A 
ATOM      4  C   UNL     1      46.561   5.690  13.592  0.00  0.00    +0.000 A 
ATOM      5  C   UNL     1      47.836   5.930  14.122  0.00  0.00    +0.000 A 
ATOM      6  C   UNL     1      48.523   7.064  13.710  0.00  0.00    +0.000 A 
ATOM      7  N   UNL     1      48.030   7.954  12.810  0.00  0.00    +0.000 NA
ATOM      8  C   UNL     1      46.797   7.678  12.325  0.00  0.00    +0.000 A 
BRANCH   6   9
ATOM      9  C   UNL     1      49.881   7.371  14.264  0.00  0.00    +0.000 C 
ATOM     10  N   UNL     1      50.787   7.837  13.351  0.00  0.00    +0.000 N 
ATOM     11  O   UNL     1      50.165   7.224  15.447  0.00  0.00    +0.000 OA
ATOM     12  H   UNL     1      50.506   7.944  12.382  0.00  0.00    +0.000 HD
ATOM     13  H   UNL     1      51.722   8.070  13.647  0.00  0.00    +0.000 HD
ENDBRANCH   6   9
ENDBRANCH   1   3
BRANCH   1  14
ATOM     14  C   UNL     1      44.123   5.166  11.636  0.00  0.00    +0.000 C 
ATOM     15  C   UNL     1      43.405   4.238  12.595  0.00  0.00    +0.000 C 
ATOM     16  C   UNL     1      42.598   5.151  11.735  0.00  0.00    +0.000 C 
BRANCH  14  20
ATOM     17  C   UNL     1      45.808   3.578   8.013  0.00  0.00    +0.000 A 
ATOM     18  C   UNL     1      45.113   2.710   8.844  0.00  0.00    +0.000 A 
ATOM     19  C   UNL     1      44.582   3.214  10.033  0.00  0.00    +0.000 A 
ATOM     20  C   UNL     1      44.744   4.561  10.382  0.00  0.00    +0.000 A 
ATOM     21  C   UNL     1      45.498   5.323   9.485  0.00  0.00    +0.000 A 
ATOM     22  N   UNL     1      46.023   4.878   8.318  0.00  0.00    +0.000 NA
BRANCH  17  24
ATOM     23  N   UNL     1      46.697   2.743   5.718  0.00  0.00    +0.000 NA
ATOM     24  C   UNL     1      46.318   3.133   6.746  0.00  0.00    +0.000 C 
ENDBRANCH  17  24
ENDBRANCH  14  20
ENDBRANCH   1  14
TORSDOF 5
ENDMDL
MODEL 5
REMARK VINA RESULT:    -5.962      2.943      5.071
REMARK INTER + INTRA:          -7.742
REMARK INTER:                  -7.529
REMARK INTRA:                  -0.213
REMARK UNBOUND:                -0.037
REMARK  Name = 
REMARK  5 active torsions:
REMARK  status: ('A' for Active; 'I' for Inactive)
REMARK    1  A    between atoms: C_2  and  C_3
REMARK    2  A    between atoms: C_6  and  C_7
REMARK    3  A    between atoms: C_7  and  N_8
REMARK    4  A    between atoms: N_8  and  C_9
REMARK    5  A    between atoms: C_12  and  C_13
REMARK                            x       y       z     vdW  Elec       q    Type
REMARK                         _______ _______ _______ _____ _____    ______ ____
ROOT
ATOM      1  N   UNL     1      46.599   7.129  13.382  0.00  0.00    +0.000 N 
ATOM      2  H   UNL     1      46.023   7.733  13.962  0.00  0.00    +0.000 HD
ENDROOT
BRANCH   1   3
ATOM      3  C   UNL     1      45.899   6.104  12.732  0.00  0.00    +0.000 A 
ATOM      4  C   UNL     1      45.354   6.196  11.454  0.00  0.00    +0.000 A 
ATOM      5  C   UNL     1      44.699   5.098  10.881  0.00  0.00    +0.000 A 
ATOM      6  C   UNL     1      44.619   3.919  11.611  0.00  0.00    +0.000 A 
ATOM      7  N   UNL     1      45.153   3.767  12.851  0.00  0.00    +0.000 NA
ATOM      8  C   UNL     1      45.777   4.855  13.361  0.00  0.00    +0.000 A 
BRANCH   6   9
ATOM      9  C   UNL     1      43.912   2.725  11.047  0.00  0.00    +0.000 C 
ATOM     10  N   UNL     1      44.459   2.214   9.901  0.00  0.00    +0.000 N 
ATOM     11  O   UNL     1      42.920   2.232  11.571  0.00  0.00    +0.000 OA
ATOM     12  H   UNL     1      45.283   2.655   9.504  0.00  0.00    +0.000 HD
ATOM     13  H   UNL     1      44.042   1.407   9.463  0.00  0.00    +0.000 HD
ENDBRANCH   6   9
ENDBRANCH   1   3
BRANCH   1  14
ATOM     14  C   UNL     1      47.988   7.541  13.157  0.00  0.00    +0.000 C 
ATOM     15  C   UNL     1      48.561   7.745  11.768  0.00  0.00    +0.000 C 
ATOM     16  C   UNL     1      48.143   8.939  12.559  0.00  0.00    +0.000 C 
BRANCH  14  20
ATOM     17  C   UNL     1      50.575   6.486  16.424  0.00  0.00    +0.000 A 
ATOM     18  C   UNL     1      51.067   7.351  15.458  0.00  0.00    +0.000 A 
ATOM     19  C   UNL     1      50.240   7.682  14.381  0.00  0.00    +0.000 A 
ATOM     20  C   UNL     1      48.946   7.155  14.278  0.00  0.00    +0.000 A 
ATOM     21  C   UNL     1      48.582   6.263  15.290  0.00  0.00    +0.000 A 
ATOM     22  N   UNL     1      49.347   5.923  16.356  0.00  0.00    +0.000 NA
BRANCH  17  24
ATOM     23  N   UNL     1      52.021   5.907  18.505  0.00  0.00    +0.000 NA
ATOM     24  C   UNL     1      51.354   6.165  17.588  0.00  0.00    +0.000 C 
ENDBRANCH  17  24
ENDBRANCH  14  20
ENDBRANCH   1  14
TORSDOF 5
ENDMDL
MODEL 6
REMARK VINA RESULT:    -5.840      3.025      5.189
REMARK INTER + INTRA:          -7.584
REMARK INTER:                  -7.226
REMARK INTRA:                  -0.358
REMARK UNBOUND:                -0.037
REMARK  Name = 
REMARK  5 active torsions:
REMARK  status: ('A' for Active; 'I' for Inactive)
REMARK    1  A    between atoms: C_2  and  C_3
REMARK    2  A    between atoms: C_6  and  C_7
REMARK    3  A    between atoms: C_7  and  N_8
REMARK    4  A    between atoms: N_8  and  C_9
REMARK    5  A    between atoms: C_12  and  C_13
REMARK                            x       y       z     vdW  Elec       q    Type
REMARK                         _______ _______ _______ _____ _____    ______ ____
ROOT
ATOM      1  N   UNL     1      46.342   7.464  13.187  0.00  0.00    +0.000 N 
ATOM      2  H   UNL     1      45.717   8.228  13.429  0.00  0.00    +0.000 HD
ENDROOT
BRANCH   1   3
ATOM      3  C   UNL     1      45.714   6.362  12.592  0.00  0.00    +0.000 A 
ATOM      4  C   UNL     1      45.303   6.300  11.263  0.00  0.00    +0.000 A 
ATOM      5  C   UNL     1      44.711   5.134  10.757  0.00  0.00    +0.000 A 
ATOM      6  C   UNL     1      44.559   4.046  11.606  0.00  0.00    +0.000 A 
ATOM      7  N   UNL     1      44.962   4.044  12.904  0.00  0.00    +0.000 NA
ATOM      8  C   UNL     1      45.530   5.192  13.345  0.00  0.00    +0.000 A 
BRANCH   6   9
ATOM      9  C   UNL     1      43.915   2.786  11.116  0.00  0.00    +0.000 C 
ATOM     10  N   UNL     1      44.493   2.233  10.005  0.00  0.00    +0.000 N 
ATOM     11  O   UNL     1      42.944   2.278  11.666  0.00  0.00    +0.000 OA
ATOM     12  H   UNL     1      45.296   2.689   9.584  0.00  0.00    +0.000 HD
ATOM     13  H   UNL     1      44.119   1.381   9.617  0.00  0.00    +0.000 HD
ENDBRANCH   6   9
ENDBRANCH   1   3
BRANCH   1  14
ATOM     14  C   UNL     1      47.783   7.714  13.301  0.00  0.00    +0.000 C 
ATOM     15  C   UNL     1      48.764   7.327  12.212  0.00  0.00    +0.000 C 
ATOM     16  C   UNL     1      48.324   8.748  12.314  0.00  0.00    +0.000 C 
BRANCH  14  20
ATOM     17  C   UNL     1      49.138   7.792  17.380  0.00  0.00    +0.000 A 
ATOM     18  C   UNL     1      48.654   8.971  16.832  0.00  0.00    +0.000 A 
ATOM     19  C   UNL     1      48.232   8.959  15.501  0.00  0.00    +0.000 A 
ATOM     20  C   UNL     1      48.294   7.787  14.735  0.00  0.00    +0.000 A 
ATOM     21  C   UNL     1      48.840   6.677  15.386  0.00  0.00    +0.000 A 
ATOM     22  N   UNL     1      49.251   6.642  16.677  0.00  0.00    +0.000 NA
BRANCH  17  24
ATOM     23  N   UNL     1      49.827   7.629  19.881  0.00  0.00    +0.000 NA
ATOM     24  C   UNL     1      49.522   7.727  18.763  0.00  0.00    +0.000 C 
ENDBRANCH  17  24
ENDBRANCH  14  20
ENDBRANCH   1  14
TORSDOF 5
ENDMDL
MODEL 7
REMARK VINA RESULT:    -5.582      4.662      8.643
REMARK INTER + INTRA:          -7.250
REMARK INTER:                  -6.733
REMARK INTRA:                  -0.517
REMARK UNBOUND:                -0.037
REMARK  Name = 
REMARK  5 active torsions:
REMARK  status: ('A' for Active; 'I' for Inactive)
REMARK    1  A    between atoms: C_2  and  C_3
REMARK    2  A    between atoms: C_6  and  C_7
REMARK    3  A    between atoms: C_7  and  N_8
REMARK    4  A    between atoms: N_8  and  C_9
REMARK    5  A    between atoms: C_12  and  C_13
REMARK                            x       y       z     vdW  Elec       q    Type
REMARK                         _______ _______ _______ _____ _____    ______ ____
ROOT
ATOM      1  N   UNL     1      48.727   6.520  14.585  0.00  0.00    +0.000 N 
ATOM      2  H   UNL     1      49.635   6.242  14.222  0.00  0.00    +0.000 HD
ENDROOT
BRANCH   1   3
ATOM      3  C   UNL     1      48.645   6.560  15.983  0.00  0.00    +0.000 A 
ATOM      4  C   UNL     1      48.768   7.710  16.757  0.00  0.00    +0.000 A 
ATOM      5  C   UNL     1      48.638   7.645  18.151  0.00  0.00    +0.000 A 
ATOM      6  C   UNL     1      48.371   6.414  18.735  0.00  0.00    +0.000 A 
ATOM      7  N   UNL     1      48.219   5.265  18.027  0.00  0.00    +0.000 NA
ATOM      8  C   UNL     1      48.352   5.379  16.684  0.00  0.00    +0.000 A 
BRANCH   6   9
ATOM      9  C   UNL     1      48.242   6.292  20.223  0.00  0.00    +0.000 C 
ATOM     10  N   UNL     1      47.097   5.682  20.657  0.00  0.00    +0.000 N 
ATOM     11  O   UNL     1      49.096   6.702  21.000  0.00  0.00    +0.000 OA
ATOM     12  H   UNL     1      46.418   5.357  19.976  0.00  0.00    +0.000 HD
ATOM     13  H   UNL     1      46.939   5.559  21.645  0.00  0.00    +0.000 HD
ENDBRANCH   6   9
ENDBRANCH   1   3
BRANCH   1  14
ATOM     14  C   UNL     1      47.744   7.023  13.621  0.00  0.00    +0.000 C 
ATOM     15  C   UNL     1      47.445   8.501  13.459  0.00  0.00    +0.000 C 
ATOM     16  C   UNL     1      48.344   7.834  12.472  0.00  0.00    +0.000 C 
BRANCH  14  20
ATOM     17  C   UNL     1      44.751   4.133  12.538  0.00  0.00    +0.000 A 
ATOM     18  C   UNL     1      44.440   5.477  12.394  0.00  0.00    +0.000 A 
ATOM     19  C   UNL     1      45.399   6.423  12.765  0.00  0.00    +0.000 A 
ATOM     20  C   UNL     1      46.645   6.027  13.268  0.00  0.00    +0.000 A 
ATOM     21  C   UNL     1      46.823   4.648  13.406  0.00  0.00    +0.000 A 
ATOM     22  N   UNL     1      45.925   3.697  13.050  0.00  0.00    +0.000 NA
BRANCH  17  24
ATOM     23  N   UNL     1      43.053   2.320  11.773  0.00  0.00    +0.000 NA
ATOM     24  C   UNL     1      43.831   3.115  12.111  0.00  0.00    +0.000 C 
ENDBRANCH  17  24
ENDBRANCH  14  20
ENDBRANCH   1  14
TORSDOF 5
ENDMDL
MODEL 8
REMARK VINA RESULT:    -5.483      5.818      8.971
REMARK INTER + INTRA:          -7.123
REMARK INTER:                  -6.554
REMARK INTRA:                  -0.569
REMARK UNBOUND:                -0.037
REMARK  Name = 
REMARK  5 active torsions:
REMARK  status: ('A' for Active; 'I' for Inactive)
REMARK    1  A    between atoms: C_2  and  C_3
REMARK    2  A    between atoms: C_6  and  C_7
REMARK    3  A    between atoms: C_7  and  N_8
REMARK    4  A    between atoms: N_8  and  C_9
REMARK    5  A    between atoms: C_12  and  C_13
REMARK                            x       y       z     vdW  Elec       q    Type
REMARK                         _______ _______ _______ _____ _____    ______ ____
ROOT
ATOM      1  N   UNL     1      50.371   5.084  17.721  0.00  0.00    +0.000 N 
ATOM      2  H   UNL     1      50.990   5.869  17.904  0.00  0.00    +0.000 HD
ENDROOT
BRANCH   1   3
ATOM      3  C   UNL     1      50.999   3.831  17.730  0.00  0.00    +0.000 A 
ATOM      4  C   UNL     1      50.399   2.635  17.346  0.00  0.00    +0.000 A 
ATOM      5  C   UNL     1      51.128   1.438  17.362  0.00  0.00    +0.000 A 
ATOM      6  C   UNL     1      52.459   1.478  17.755  0.00  0.00    +0.000 A 
ATOM      7  N   UNL     1      53.100   2.619  18.118  0.00  0.00    +0.000 NA
ATOM      8  C   UNL     1      52.355   3.750  18.084  0.00  0.00    +0.000 A 
BRANCH   6   9
ATOM      9  C   UNL     1      53.272   0.221  17.806  0.00  0.00    +0.000 C 
ATOM     10  N   UNL     1      53.826  -0.160  16.614  0.00  0.00    +0.000 N 
ATOM     11  O   UNL     1      53.439  -0.421  18.836  0.00  0.00    +0.000 OA
ATOM     12  H   UNL     1      53.660   0.404  15.786  0.00  0.00    +0.000 HD
ATOM     13  H   UNL     1      54.390  -0.994  16.567  0.00  0.00    +0.000 HD
ENDBRANCH   6   9
ENDBRANCH   1   3
BRANCH   1  14
ATOM     14  C   UNL     1      48.931   5.358  17.689  0.00  0.00    +0.000 C 
ATOM     15  C   UNL     1      48.017   5.049  18.859  0.00  0.00    +0.000 C 
ATOM     16  C   UNL     1      48.474   6.454  18.652  0.00  0.00    +0.000 C 
BRANCH  14  20
ATOM     17  C   UNL     1      47.192   5.537  13.761  0.00  0.00    +0.000 A 
ATOM     18  C   UNL     1      46.786   4.515  14.607  0.00  0.00    +0.000 A 
ATOM     19  C   UNL     1      47.362   4.437  15.877  0.00  0.00    +0.000 A 
ATOM     20  C   UNL     1      48.326   5.367  16.289  0.00  0.00    +0.000 A 
ATOM     21  C   UNL     1      48.682   6.321  15.334  0.00  0.00    +0.000 A 
ATOM     22  N   UNL     1      48.142   6.439  14.096  0.00  0.00    +0.000 NA
BRANCH  17  24
ATOM     23  N   UNL     1      46.056   5.832  11.442  0.00  0.00    +0.000 NA
ATOM     24  C   UNL     1      46.586   5.708  12.470  0.00  0.00    +0.000 C 
ENDBRANCH  17  24
ENDBRANCH  14  20
ENDBRANCH   1  14
TORSDOF 5
ENDMDL
