MODEL 1
REMARK VINA RESULT:    -7.429      0.000      0.000
REMARK INTER + INTRA:         -10.518
REMARK INTER:                  -9.601
REMARK INTRA:                  -0.917
REMARK UNBOUND:                -0.917
REMARK  Name = 
REMARK  6 active torsions:
REMARK  status: ('A' for Active; 'I' for Inactive)
REMARK    1  A    between atoms: C_1  and  C_2
REMARK    2  A    between atoms: N_9  and  C_10
REMARK    3  A    between atoms: C_10  and  C_11
REMARK    4  A    between atoms: C_14  and  C_15
REMARK    5  A    between atoms: C_15  and  N_16
REMARK    6  A    between atoms: C_17  and  C_19
REMARK                            x       y       z     vdW  Elec       q    Type
REMARK                         _______ _______ _______ _____ _____    ______ ____
ROOT
ATOM      1  C   UNL     1      49.463   4.799  17.539  0.00  0.00    +0.000 A 
ATOM      2  C   UNL     1      50.282   5.873  17.171  0.00  0.00    +0.000 A 
ATOM      3  C   UNL     1      49.906   6.737  16.136  0.00  0.00    +0.000 A 
ATOM      4  C   UNL     1      48.693   6.556  15.458  0.00  0.00    +0.000 A 
ATOM      5  C   UNL     1      47.885   5.466  15.808  0.00  0.00    +0.000 A 
ATOM      6  C   UNL     1      48.262   4.601  16.841  0.00  0.00    +0.000 A 
ENDROOT
BRANCH   1   7
ATOM      7  C   UNL     1      49.873   3.864  18.647  0.00  0.00    +0.000 C 
BRANCH   7  16
ATOM      8  C   UNL     1      54.185   3.952  17.519  0.00  0.00    +0.000 C 
ATOM      9  C   UNL     1      54.008   2.486  17.704  0.00  0.00    +0.000 A 
ATOM     10  C   UNL     1      54.991   1.512  17.767  0.00  0.00    +0.000 A 
ATOM     11  C   UNL     1      54.361   0.252  17.793  0.00  0.00    +0.000 A 
ATOM     12  C   UNL     1      53.009   0.480  17.714  0.00  0.00    +0.000 A 
ATOM     13  N   UNL     1      52.768   1.846  17.694  0.00  0.00    +0.000 N 
ATOM     14  C   UNL     1      51.476   2.401  17.587  0.00  0.00    +0.000 C 
ATOM     15  O   UNL     1      50.666   1.909  16.814  0.00  0.00    +0.000 OA
ATOM     16  N   UNL     1      51.235   3.389  18.519  0.00  0.00    +0.000 N 
ATOM     17  H   UNL     1      51.832   3.423  19.338  0.00  0.00    +0.000 HD
ENDBRANCH   7  16
ENDBRANCH   1   7
BRANCH   4  18
ATOM     18  C   UNL     1      48.268   7.503  14.365  0.00  0.00    +0.000 C 
BRANCH  18  19
ATOM     19  N   UNL     1      46.975   7.164  13.829  0.00  0.00    +0.000 N 
ATOM     20  C   UNL     1      46.845   6.715  12.539  0.00  0.00    +0.000 C 
ATOM     21  O   UNL     1      47.787   6.724  11.750  0.00  0.00    +0.000 OA
ATOM     22  H   UNL     1      46.232   6.984  14.498  0.00  0.00    +0.000 HD
BRANCH  20  23
ATOM     23  C   UNL     1      45.517   6.238  12.132  0.00  0.00    +0.000 A 
ATOM     24  C   UNL     1      44.617   7.119  11.546  0.00  0.00    +0.000 A 
ATOM     25  S   UNL     1      43.150   6.387  11.076  0.00  0.00    +0.000 S 
ATOM     26  C   UNL     1      43.690   4.855  11.585  0.00  0.00    +0.000 A 
ATOM     27  N   UNL     1      42.932   3.745  11.378  0.00  0.00    +0.000 NA
ATOM     28  C   UNL     1      43.477   2.647  11.787  0.00  0.00    +0.000 A 
ATOM     29  N   UNL     1      44.692   2.564  12.415  0.00  0.00    +0.000 N 
ATOM     30  C   UNL     1      45.469   3.668  12.686  0.00  0.00    +0.000 A 
ATOM     31  O   UNL     1      46.517   3.565  13.328  0.00  0.00    +0.000 OA
ATOM     32  C   UNL     1      44.937   4.917  12.182  0.00  0.00    +0.000 A 
ATOM     33  H   UNL     1      45.040   1.679  12.754  0.00  0.00    +0.000 HD
ENDBRANCH  20  23
ENDBRANCH  18  19
ENDBRANCH   4  18
TORSDOF 5
ENDMDL
MODEL 2
REMARK VINA RESULT:    -7.414      2.122      3.249
REMARK INTER + INTRA:         -10.498
REMARK INTER:                  -9.723
REMARK INTRA:                  -0.775
REMARK UNBOUND:                -0.917
REMARK  Name = 
REMARK  6 active torsions:
REMARK  status: ('A' for Active; 'I' for Inactive)
REMARK    1  A    between atoms: C_1  and  C_2
REMARK    2  A    between atoms: N_9  and  C_10
REMARK    3  A    between atoms: C_10  and  C_11
REMARK    4  A    between atoms: C_14  and  C_15
REMARK    5  A    between atoms: C_15  and  N_16
REMARK    6  A    between atoms: C_17  and  C_19
REMARK                            x       y       z     vdW  Elec       q    Type
REMARK                         _______ _______ _______ _____ _____    ______ ____
ROOT
ATOM      1  C   UNL     1      51.427   3.226  17.759  0.00  0.00    +0.000 A 
ATOM      2  C   UNL     1      50.672   4.395  17.915  0.00  0.00    +0.000 A 
ATOM      3  C   UNL     1      49.316   4.422  17.570  0.00  0.00    +0.000 A 
ATOM      4  C   UNL     1      48.680   3.275  17.078  0.00  0.00    +0.000 A 
ATOM      5  C   UNL     1      49.439   2.112  16.897  0.00  0.00    +0.000 A 
ATOM      6  C   UNL     1      50.796   2.085  17.240  0.00  0.00    +0.000 A 
ENDROOT
BRANCH   1   7
ATOM      7  C   UNL     1      52.889   3.199  18.122  0.00  0.00    +0.000 C 
BRANCH   7  16
ATOM      8  C   UNL     1      55.157  -0.272  19.758  0.00  0.00    +0.000 C 
ATOM      9  C   UNL     1      55.087  -0.674  18.327  0.00  0.00    +0.000 A 
ATOM     10  C   UNL     1      55.405  -1.905  17.773  0.00  0.00    +0.000 A 
ATOM     11  C   UNL     1      55.338  -1.785  16.371  0.00  0.00    +0.000 A 
ATOM     12  C   UNL     1      55.013  -0.480  16.096  0.00  0.00    +0.000 A 
ATOM     13  N   UNL     1      54.819   0.212  17.283  0.00  0.00    +0.000 N 
ATOM     14  C   UNL     1      54.503   1.585  17.335  0.00  0.00    +0.000 C 
ATOM     15  O   UNL     1      55.067   2.366  16.583  0.00  0.00    +0.000 OA
ATOM     16  N   UNL     1      53.441   1.861  18.171  0.00  0.00    +0.000 N 
ATOM     17  H   UNL     1      52.822   1.098  18.418  0.00  0.00    +0.000 HD
ENDBRANCH   7  16
ENDBRANCH   1   7
BRANCH   4  18
ATOM     18  C   UNL     1      47.211   3.291  16.736  0.00  0.00    +0.000 C 
BRANCH  18  19
ATOM     19  N   UNL     1      46.878   4.371  15.843  0.00  0.00    +0.000 N 
ATOM     20  C   UNL     1      46.833   4.173  14.486  0.00  0.00    +0.000 C 
ATOM     21  O   UNL     1      47.212   3.124  13.970  0.00  0.00    +0.000 OA
ATOM     22  H   UNL     1      46.402   5.172  16.247  0.00  0.00    +0.000 HD
BRANCH  20  23
ATOM     23  C   UNL     1      46.326   5.282  13.668  0.00  0.00    +0.000 A 
ATOM     24  C   UNL     1      47.129   6.392  13.438  0.00  0.00    +0.000 A 
ATOM     25  S   UNL     1      46.412   7.556  12.418  0.00  0.00    +0.000 S 
ATOM     26  C   UNL     1      45.028   6.589  12.200  0.00  0.00    +0.000 A 
ATOM     27  N   UNL     1      44.040   6.969  11.345  0.00  0.00    +0.000 NA
ATOM     28  C   UNL     1      43.065   6.126  11.254  0.00  0.00    +0.000 A 
ATOM     29  N   UNL     1      42.971   4.959  11.967  0.00  0.00    +0.000 N 
ATOM     30  C   UNL     1      43.925   4.561  12.876  0.00  0.00    +0.000 A 
ATOM     31  O   UNL     1      43.766   3.548  13.561  0.00  0.00    +0.000 OA
ATOM     32  C   UNL     1      45.076   5.435  12.962  0.00  0.00    +0.000 A 
ATOM     33  H   UNL     1      42.157   4.367  11.886  0.00  0.00    +0.000 HD
ENDBRANCH  20  23
ENDBRANCH  18  19
ENDBRANCH   4  18
TORSDOF 5
ENDMDL
MODEL 3
REMARK VINA RESULT:    -7.387      3.825      9.118
REMARK INTER + INTRA:         -10.463
REMARK INTER:                  -9.665
REMARK INTRA:                  -0.798
REMARK UNBOUND:                -0.917
REMARK  Name = 
REMARK  6 active torsions:
REMARK  status: ('A' for Active; 'I' for Inactive)
REMARK    1  A    between atoms: C_1  and  C_2
REMARK    2  A    between atoms: N_9  and  C_10
REMARK    3  A    between atoms: C_10  and  C_11
REMARK    4  A    between atoms: C_14  and  C_15
REMARK    5  A    between atoms: C_15  and  N_16
REMARK    6  A    between atoms: C_17  and  C_19
REMARK                            x       y       z     vdW  Elec       q    Type
REMARK                         _______ _______ _______ _____ _____    ______ ____
ROOT
ATOM      1  C   UNL     1      45.817   5.310  11.583  0.00  0.00    +0.000 A 
ATOM      2  C   UNL     1      46.761   6.071  12.283  0.00  0.00    +0.000 A 
ATOM      3  C   UNL     1      47.041   5.803  13.627  0.00  0.00    +0.000 A 
ATOM      4  C   UNL     1      46.396   4.754  14.297  0.00  0.00    +0.000 A 
ATOM      5  C   UNL     1      45.432   4.009  13.605  0.00  0.00    +0.000 A 
ATOM      6  C   UNL     1      45.151   4.279  12.261  0.00  0.00    +0.000 A 
ENDROOT
BRANCH   1   7
ATOM      7  C   UNL     1      45.510   5.606  10.138  0.00  0.00    +0.000 C 
BRANCH   7  16
ATOM      8  C   UNL     1      47.002   3.962   6.272  0.00  0.00    +0.000 C 
ATOM      9  C   UNL     1      46.799   2.691   7.020  0.00  0.00    +0.000 A 
ATOM     10  C   UNL     1      47.227   1.420   6.669  0.00  0.00    +0.000 A 
ATOM     11  C   UNL     1      46.680   0.504   7.587  0.00  0.00    +0.000 A 
ATOM     12  C   UNL     1      45.904   1.226   8.460  0.00  0.00    +0.000 A 
ATOM     13  N   UNL     1      45.991   2.576   8.152  0.00  0.00    +0.000 N 
ATOM     14  C   UNL     1      45.284   3.576   8.850  0.00  0.00    +0.000 C 
ATOM     15  O   UNL     1      44.120   3.382   9.172  0.00  0.00    +0.000 OA
ATOM     16  N   UNL     1      46.080   4.639   9.223  0.00  0.00    +0.000 N 
ATOM     17  H   UNL     1      47.083   4.494   9.244  0.00  0.00    +0.000 HD
ENDBRANCH   7  16
ENDBRANCH   1   7
BRANCH   4  18
ATOM     18  C   UNL     1      46.717   4.440  15.736  0.00  0.00    +0.000 C 
BRANCH  18  19
ATOM     19  N   UNL     1      48.137   4.347  15.963  0.00  0.00    +0.000 N 
ATOM     20  C   UNL     1      48.695   4.818  17.125  0.00  0.00    +0.000 C 
ATOM     21  O   UNL     1      48.044   5.461  17.944  0.00  0.00    +0.000 OA
ATOM     22  H   UNL     1      48.651   3.678  15.396  0.00  0.00    +0.000 HD
BRANCH  20  23
ATOM     23  C   UNL     1      50.119   4.533  17.341  0.00  0.00    +0.000 A 
ATOM     24  C   UNL     1      50.986   5.565  17.678  0.00  0.00    +0.000 A 
ATOM     25  S   UNL     1      52.588   5.051  17.955  0.00  0.00    +0.000 S 
ATOM     26  C   UNL     1      52.167   3.422  17.693  0.00  0.00    +0.000 A 
ATOM     27  N   UNL     1      53.079   2.430  17.871  0.00  0.00    +0.000 NA
ATOM     28  C   UNL     1      52.616   1.241  17.668  0.00  0.00    +0.000 A 
ATOM     29  N   UNL     1      51.335   0.959  17.268  0.00  0.00    +0.000 N 
ATOM     30  C   UNL     1      50.395   1.937  17.032  0.00  0.00    +0.000 A 
ATOM     31  O   UNL     1      49.279   1.651  16.592  0.00  0.00    +0.000 OA
ATOM     32  C   UNL     1      50.843   3.284  17.316  0.00  0.00    +0.000 A 
ATOM     33  H   UNL     1      51.049   0.010  17.079  0.00  0.00    +0.000 HD
ENDBRANCH  20  23
ENDBRANCH  18  19
ENDBRANCH   4  18
TORSDOF 5
ENDMDL
MODEL 4
REMARK VINA RESULT:    -7.247      3.869      8.688
REMARK INTER + INTRA:         -10.282
REMARK INTER:                  -9.368
REMARK INTRA:                  -0.914
REMARK UNBOUND:                -0.917
REMARK  Name = 
REMARK  6 active torsions:
REMARK  status: ('A' for Active; 'I' for Inactive)
REMARK    1  A    between atoms: C_1  and  C_2
REMARK    2  A    between atoms: N_9  and  C_10
REMARK    3  A    between atoms: C_10  and  C_11
REMARK    4  A    between atoms: C_14  and  C_15
REMARK    5  A    between atoms: C_15  and  N_16
REMARK    6  A    between atoms: C_17  and  C_19
REMARK                            x       y       z     vdW  Elec       q    Type
REMARK                         _______ _______ _______ _____ _____    ______ ____
ROOT
ATOM      1  C   UNL     1      45.302   5.778  11.417  0.00  0.00    +0.000 A 
ATOM      2  C   UNL     1      46.402   5.363  12.178  0.00  0.00    +0.000 A 
ATOM      3  C   UNL     1      47.100   6.272  12.982  0.00  0.00    +0.000 A 
ATOM      4  C   UNL     1      46.701   7.613  13.057  0.00  0.00    +0.000 A 
ATOM      5  C   UNL     1      45.618   8.036  12.276  0.00  0.00    +0.000 A 
ATOM      6  C   UNL     1      44.921   7.127  11.471  0.00  0.00    +0.000 A 
ENDROOT
BRANCH   1   7
ATOM      7  C   UNL     1      44.558   4.802  10.545  0.00  0.00    +0.000 C 
BRANCH   7  16
ATOM      8  C   UNL     1      46.749   4.123   6.722  0.00  0.00    +0.000 C 
ATOM      9  C   UNL     1      46.747   2.734   7.256  0.00  0.00    +0.000 A 
ATOM     10  C   UNL     1      47.470   1.645   6.795  0.00  0.00    +0.000 A 
ATOM     11  C   UNL     1      47.040   0.503   7.500  0.00  0.00    +0.000 A 
ATOM     12  C   UNL     1      46.045   0.911   8.353  0.00  0.00    +0.000 A 
ATOM     13  N   UNL     1      45.873   2.283   8.246  0.00  0.00    +0.000 N 
ATOM     14  C   UNL     1      44.901   3.000   8.974  0.00  0.00    +0.000 C 
ATOM     15  O   UNL     1      43.779   2.534   9.110  0.00  0.00    +0.000 OA
ATOM     16  N   UNL     1      45.410   4.124   9.590  0.00  0.00    +0.000 N 
ATOM     17  H   UNL     1      46.414   4.177   9.724  0.00  0.00    +0.000 HD
ENDBRANCH   7  16
ENDBRANCH   1   7
BRANCH   4  18
ATOM     18  C   UNL     1      47.430   8.588  13.947  0.00  0.00    +0.000 C 
BRANCH  18  19
ATOM     19  N   UNL     1      47.876   7.972  15.171  0.00  0.00    +0.000 N 
ATOM     20  C   UNL     1      49.212   7.903  15.475  0.00  0.00    +0.000 C 
ATOM     21  O   UNL     1      50.080   8.223  14.667  0.00  0.00    +0.000 OA
ATOM     22  H   UNL     1      47.188   7.867  15.910  0.00  0.00    +0.000 HD
BRANCH  20  23
ATOM     23  C   UNL     1      49.563   7.408  16.813  0.00  0.00    +0.000 A 
ATOM     24  C   UNL     1      50.254   8.231  17.693  0.00  0.00    +0.000 A 
ATOM     25  S   UNL     1      50.524   7.525  19.222  0.00  0.00    +0.000 S 
ATOM     26  C   UNL     1      49.675   6.117  18.780  0.00  0.00    +0.000 A 
ATOM     27  N   UNL     1      49.451   5.126  19.684  0.00  0.00    +0.000 NA
ATOM     28  C   UNL     1      48.768   4.131  19.223  0.00  0.00    +0.000 A 
ATOM     29  N   UNL     1      48.320   4.022  17.931  0.00  0.00    +0.000 N 
ATOM     30  C   UNL     1      48.566   4.981  16.973  0.00  0.00    +0.000 A 
ATOM     31  O   UNL     1      48.222   4.809  15.802  0.00  0.00    +0.000 OA
ATOM     32  C   UNL     1      49.266   6.151  17.459  0.00  0.00    +0.000 A 
ATOM     33  H   UNL     1      47.833   3.195  17.620  0.00  0.00    +0.000 HD
ENDBRANCH  20  23
ENDBRANCH  18  19
ENDBRANCH   4  18
TORSDOF 5
ENDMDL
MODEL 5
REMARK VINA RESULT:    -7.149      5.682      6.836
REMARK INTER + INTRA:         -10.156
REMARK INTER:                  -9.263
REMARK INTRA:                  -0.893
REMARK UNBOUND:                -0.917
REMARK  Name = 
REMARK  6 active torsions:
REMARK  status: ('A' for Active; 'I' for Inactive)
REMARK    1  A    between atoms: C_1  and  C_2
REMARK    2  A    between atoms: N_9  and  C_10
REMARK    3  A    between atoms: C_10  and  C_11
REMARK    4  A    between atoms: C_14  and  C_15
REMARK    5  A    between atoms: C_15  and  N_16
REMARK    6  A    between atoms: C_17  and  C_19
REMARK                            x       y       z     vdW  Elec       q    Type
REMARK                         _______ _______ _______ _____ _____    ______ ____
ROOT
ATOM      1  C   UNL     1      50.201   8.892  11.561  0.00  0.00    +0.000 A 
ATOM      2  C   UNL     1      49.740   7.605  11.864  0.00  0.00    +0.000 A 
ATOM      3  C   UNL     1      48.429   7.402  12.310  0.00  0.00    +0.000 A 
ATOM      4  C   UNL     1      47.544   8.480  12.445  0.00  0.00    +0.000 A 
ATOM      5  C   UNL     1      48.012   9.771  12.168  0.00  0.00    +0.000 A 
ATOM      6  C   UNL     1      49.323   9.974  11.724  0.00  0.00    +0.000 A 
ENDROOT
BRANCH   1   7
ATOM      7  C   UNL     1      51.615   9.112  11.091  0.00  0.00    +0.000 C 
BRANCH   7  16
ATOM      8  C   UNL     1      54.540   5.828  10.356  0.00  0.00    +0.000 C 
ATOM      9  C   UNL     1      53.844   5.839   9.040  0.00  0.00    +0.000 A 
ATOM     10  C   UNL     1      53.930   4.900   8.025  0.00  0.00    +0.000 A 
ATOM     11  C   UNL     1      53.226   5.393   6.909  0.00  0.00    +0.000 A 
ATOM     12  C   UNL     1      52.750   6.634   7.253  0.00  0.00    +0.000 A 
ATOM     13  N   UNL     1      53.088   6.913   8.570  0.00  0.00    +0.000 N 
ATOM     14  C   UNL     1      52.765   8.128   9.209  0.00  0.00    +0.000 C 
ATOM     15  O   UNL     1      52.887   9.183   8.604  0.00  0.00    +0.000 OA
ATOM     16  N   UNL     1      52.191   7.947  10.450  0.00  0.00    +0.000 N 
ATOM     17  H   UNL     1      51.789   7.040  10.658  0.00  0.00    +0.000 HD
ENDBRANCH   7  16
ENDBRANCH   1   7
BRANCH   4  18
ATOM     18  C   UNL     1      46.121   8.261  12.894  0.00  0.00    +0.000 C 
BRANCH  18  19
ATOM     19  N   UNL     1      45.689   6.904  12.677  0.00  0.00    +0.000 N 
ATOM     20  C   UNL     1      44.710   6.617  11.759  0.00  0.00    +0.000 C 
ATOM     21  O   UNL     1      44.065   7.500  11.200  0.00  0.00    +0.000 OA
ATOM     22  H   UNL     1      46.315   6.167  12.988  0.00  0.00    +0.000 HD
BRANCH  20  23
ATOM     23  C   UNL     1      44.451   5.198  11.487  0.00  0.00    +0.000 A 
ATOM     24  C   UNL     1      43.708   4.446  12.388  0.00  0.00    +0.000 A 
ATOM     25  S   UNL     1      43.447   2.837  11.887  0.00  0.00    +0.000 S 
ATOM     26  C   UNL     1      44.267   3.105  10.419  0.00  0.00    +0.000 A 
ATOM     27  N   UNL     1      44.328   2.135   9.468  0.00  0.00    +0.000 NA
ATOM     28  C   UNL     1      44.954   2.485   8.393  0.00  0.00    +0.000 A 
ATOM     29  N   UNL     1      45.556   3.702   8.200  0.00  0.00    +0.000 N 
ATOM     30  C   UNL     1      45.557   4.694   9.155  0.00  0.00    +0.000 A 
ATOM     31  O   UNL     1      46.181   5.743   8.979  0.00  0.00    +0.000 OA
ATOM     32  C   UNL     1      44.805   4.378  10.351  0.00  0.00    +0.000 A 
ATOM     33  H   UNL     1      46.072   3.895   7.355  0.00  0.00    +0.000 HD
ENDBRANCH  20  23
ENDBRANCH  18  19
ENDBRANCH   4  18
TORSDOF 5
ENDMDL
MODEL 6
REMARK VINA RESULT:    -7.031      4.397      9.142
REMARK INTER + INTRA:         -10.003
REMARK INTER:                  -9.041
REMARK INTRA:                  -0.962
REMARK UNBOUND:                -0.917
REMARK  Name = 
REMARK  6 active torsions:
REMARK  status: ('A' for Active; 'I' for Inactive)
REMARK    1  A    between atoms: C_1  and  C_2
REMARK    2  A    between atoms: N_9  and  C_10
REMARK    3  A    between atoms: C_10  and  C_11
REMARK    4  A    between atoms: C_14  and  C_15
REMARK    5  A    between atoms: C_15  and  N_16
REMARK    6  A    between atoms: C_17  and  C_19
REMARK                            x       y       z     vdW  Elec       q    Type
REMARK                         _______ _______ _______ _____ _____    ______ ____
ROOT
ATOM      1  C   UNL     1      44.710   4.461  10.972  0.00  0.00    +0.000 A 
ATOM      2  C   UNL     1      44.979   5.702  11.560  0.00  0.00    +0.000 A 
ATOM      3  C   UNL     1      45.620   5.782  12.801  0.00  0.00    +0.000 A 
ATOM      4  C   UNL     1      46.022   4.620  13.474  0.00  0.00    +0.000 A 
ATOM      5  C   UNL     1      45.729   3.377  12.900  0.00  0.00    +0.000 A 
ATOM      6  C   UNL     1      45.087   3.297  11.659  0.00  0.00    +0.000 A 
ENDROOT
BRANCH   1   7
ATOM      7  C   UNL     1      44.011   4.376   9.640  0.00  0.00    +0.000 C 
BRANCH   7  16
ATOM      8  C   UNL     1      46.498   0.990   8.147  0.00  0.00    +0.000 C 
ATOM      9  C   UNL     1      46.624   1.919   6.990  0.00  0.00    +0.000 A 
ATOM     10  C   UNL     1      47.140   1.646   5.734  0.00  0.00    +0.000 A 
ATOM     11  C   UNL     1      47.203   2.855   5.013  0.00  0.00    +0.000 A 
ATOM     12  C   UNL     1      46.755   3.844   5.853  0.00  0.00    +0.000 A 
ATOM     13  N   UNL     1      46.360   3.287   7.060  0.00  0.00    +0.000 N 
ATOM     14  C   UNL     1      45.878   4.051   8.143  0.00  0.00    +0.000 C 
ATOM     15  O   UNL     1      46.419   5.109   8.427  0.00  0.00    +0.000 OA
ATOM     16  N   UNL     1      44.711   3.548   8.680  0.00  0.00    +0.000 N 
ATOM     17  H   UNL     1      44.166   2.910   8.111  0.00  0.00    +0.000 HD
ENDBRANCH   7  16
ENDBRANCH   1   7
BRANCH   4  18
ATOM     18  C   UNL     1      46.742   4.702  14.797  0.00  0.00    +0.000 C 
BRANCH  18  19
ATOM     19  N   UNL     1      47.490   5.926  14.929  0.00  0.00    +0.000 N 
ATOM     20  C   UNL     1      48.624   5.977  15.700  0.00  0.00    +0.000 C 
ATOM     21  O   UNL     1      48.964   5.039  16.416  0.00  0.00    +0.000 OA
ATOM     22  H   UNL     1      47.331   6.641  14.225  0.00  0.00    +0.000 HD
BRANCH  20  23
ATOM     23  C   UNL     1      49.409   7.216  15.645  0.00  0.00    +0.000 A 
ATOM     24  C   UNL     1      49.773   7.855  16.823  0.00  0.00    +0.000 A 
ATOM     25  S   UNL     1      50.736   9.241  16.581  0.00  0.00    +0.000 S 
ATOM     26  C   UNL     1      50.751   9.002  14.896  0.00  0.00    +0.000 A 
ATOM     27  N   UNL     1      51.490   9.805  14.084  0.00  0.00    +0.000 NA
ATOM     28  C   UNL     1      51.433   9.491  12.832  0.00  0.00    +0.000 A 
ATOM     29  N   UNL     1      50.675   8.472  12.316  0.00  0.00    +0.000 N 
ATOM     30  C   UNL     1      49.877   7.666  13.097  0.00  0.00    +0.000 A 
ATOM     31  O   UNL     1      49.144   6.815  12.588  0.00  0.00    +0.000 OA
ATOM     32  C   UNL     1      49.962   7.930  14.518  0.00  0.00    +0.000 A 
ATOM     33  H   UNL     1      50.636   8.309  11.321  0.00  0.00    +0.000 HD
ENDBRANCH  20  23
ENDBRANCH  18  19
ENDBRANCH   4  18
TORSDOF 5
ENDMDL
MODEL 7
REMARK VINA RESULT:    -6.719      5.794      8.741
REMARK INTER + INTRA:          -9.600
REMARK INTER:                  -8.450
REMARK INTRA:                  -1.150
REMARK UNBOUND:                -0.917
REMARK  Name = 
REMARK  6 active torsions:
REMARK  status: ('A' for Active; 'I' for Inactive)
REMARK    1  A    between atoms: C_1  and  C_2
REMARK    2  A    between atoms: N_9  and  C_10
REMARK    3  A    between atoms: C_10  and  C_11
REMARK    4  A    between atoms: C_14  and  C_15
REMARK    5  A    between atoms: C_15  and  N_16
REMARK    6  A    between atoms: C_17  and  C_19
REMARK                            x       y       z     vdW  Elec       q    Type
REMARK                         _______ _______ _______ _____ _____    ______ ____
ROOT
ATOM      1  C   UNL     1      45.190   5.011  11.785  0.00  0.00    +0.000 A 
ATOM      2  C   UNL     1      45.932   5.090  12.969  0.00  0.00    +0.000 A 
ATOM      3  C   UNL     1      46.313   6.330  13.494  0.00  0.00    +0.000 A 
ATOM      4  C   UNL     1      45.944   7.521  12.854  0.00  0.00    +0.000 A 
ATOM      5  C   UNL     1      45.225   7.443  11.655  0.00  0.00    +0.000 A 
ATOM      6  C   UNL     1      44.845   6.203  11.129  0.00  0.00    +0.000 A 
ENDROOT
BRANCH   1   7
ATOM      7  C   UNL     1      44.789   3.676  11.216  0.00  0.00    +0.000 C 
BRANCH   7  16
ATOM      8  C   UNL     1      46.681   4.024   7.194  0.00  0.00    +0.000 C 
ATOM      9  C   UNL     1      46.759   2.549   7.378  0.00  0.00    +0.000 A 
ATOM     10  C   UNL     1      47.471   1.635   6.618  0.00  0.00    +0.000 A 
ATOM     11  C   UNL     1      47.131   0.340   7.057  0.00  0.00    +0.000 A 
ATOM     12  C   UNL     1      46.197   0.488   8.052  0.00  0.00    +0.000 A 
ATOM     13  N   UNL     1      45.980   1.837   8.290  0.00  0.00    +0.000 N 
ATOM     14  C   UNL     1      45.052   2.315   9.238  0.00  0.00    +0.000 C 
ATOM     15  O   UNL     1      43.957   1.780   9.338  0.00  0.00    +0.000 OA
ATOM     16  N   UNL     1      45.579   3.283  10.067  0.00  0.00    +0.000 N 
ATOM     17  H   UNL     1      46.588   3.348  10.137  0.00  0.00    +0.000 HD
ENDBRANCH   7  16
ENDBRANCH   1   7
BRANCH   4  18
ATOM     18  C   UNL     1      46.324   8.861  13.433  0.00  0.00    +0.000 C 
BRANCH  18  19
ATOM     19  N   UNL     1      47.686   9.215  13.122  0.00  0.00    +0.000 N 
ATOM     20  C   UNL     1      48.685   9.042  14.045  0.00  0.00    +0.000 C 
ATOM     21  O   UNL     1      48.447   8.722  15.207  0.00  0.00    +0.000 OA
ATOM     22  H   UNL     1      47.924   9.309  12.138  0.00  0.00    +0.000 HD
BRANCH  20  23
ATOM     23  C   UNL     1      50.061   9.274  13.587  0.00  0.00    +0.000 A 
ATOM     24  C   UNL     1      50.882  10.149  14.287  0.00  0.00    +0.000 A 
ATOM     25  S   UNL     1      52.464  10.253  13.659  0.00  0.00    +0.000 S 
ATOM     26  C   UNL     1      52.124   9.088  12.465  0.00  0.00    +0.000 A 
ATOM     27  N   UNL     1      53.100   8.639  11.631  0.00  0.00    +0.000 NA
ATOM     28  C   UNL     1      52.709   7.734  10.796  0.00  0.00    +0.000 A 
ATOM     29  N   UNL     1      51.425   7.264  10.696  0.00  0.00    +0.000 N 
ATOM     30  C   UNL     1      50.399   7.725  11.490  0.00  0.00    +0.000 A 
ATOM     31  O   UNL     1      49.240   7.341  11.315  0.00  0.00    +0.000 OA
ATOM     32  C   UNL     1      50.799   8.689  12.493  0.00  0.00    +0.000 A 
ATOM     33  H   UNL     1      51.174   6.591   9.988  0.00  0.00    +0.000 HD
ENDBRANCH  20  23
ENDBRANCH  18  19
ENDBRANCH   4  18
TORSDOF 5
ENDMDL
MODEL 8
REMARK VINA RESULT:    -6.473      3.979      9.450
REMARK INTER + INTRA:          -9.282
REMARK INTER:                  -8.635
REMARK INTRA:                  -0.647
REMARK UNBOUND:                -0.917
REMARK  Name = 
REMARK  6 active torsions:
REMARK  status: ('A' for Active; 'I' for Inactive)
REMARK    1  A    between atoms: C_1  and  C_2
REMARK    2  A    between atoms: N_9  and  C_10
REMARK    3  A    between atoms: C_10  and  C_11
REMARK    4  A    between atoms: C_14  and  C_15
REMARK    5  A    between atoms: C_15  and  N_16
REMARK    6  A    between atoms: C_17  and  C_19
REMARK                            x       y       z     vdW  Elec       q    Type
REMARK                         _______ _______ _______ _____ _____    ______ ____
ROOT
ATOM      1  C   UNL     1      44.792   4.489  11.003  0.00  0.00    +0.000 A 
ATOM      2  C   UNL     1      45.069   3.288  11.667  0.00  0.00    +0.000 A 
ATOM      3  C   UNL     1      45.712   3.291  12.911  0.00  0.00    +0.000 A 
ATOM      4  C   UNL     1      46.074   4.497  13.526  0.00  0.00    +0.000 A 
ATOM      5  C   UNL     1      45.820   5.698  12.850  0.00  0.00    +0.000 A 
ATOM      6  C   UNL     1      45.180   5.694  11.606  0.00  0.00    +0.000 A 
ENDROOT
BRANCH   1   7
ATOM      7  C   UNL     1      44.109   4.484   9.660  0.00  0.00    +0.000 C 
BRANCH   7  16
ATOM      8  C   UNL     1      46.447   1.005   8.140  0.00  0.00    +0.000 C 
ATOM      9  C   UNL     1      46.581   1.921   6.975  0.00  0.00    +0.000 A 
ATOM     10  C   UNL     1      47.062   1.623   5.710  0.00  0.00    +0.000 A 
ATOM     11  C   UNL     1      47.152   2.824   4.980  0.00  0.00    +0.000 A 
ATOM     12  C   UNL     1      46.755   3.834   5.822  0.00  0.00    +0.000 A 
ATOM     13  N   UNL     1      46.366   3.298   7.040  0.00  0.00    +0.000 N 
ATOM     14  C   UNL     1      45.933   4.085   8.128  0.00  0.00    +0.000 C 
ATOM     15  O   UNL     1      46.516   5.126   8.393  0.00  0.00    +0.000 OA
ATOM     16  N   UNL     1      44.761   3.626   8.691  0.00  0.00    +0.000 N 
ATOM     17  H   UNL     1      44.182   3.003   8.139  0.00  0.00    +0.000 HD
ENDBRANCH   7  16
ENDBRANCH   1   7
BRANCH   4  18
ATOM     18  C   UNL     1      46.736   4.507  14.881  0.00  0.00    +0.000 C 
BRANCH  18  19
ATOM     19  N   UNL     1      47.658   5.605  15.022  0.00  0.00    +0.000 N 
ATOM     20  C   UNL     1      48.262   5.865  16.226  0.00  0.00    +0.000 C 
ATOM     21  O   UNL     1      47.937   5.278  17.255  0.00  0.00    +0.000 OA
ATOM     22  H   UNL     1      48.064   5.978  14.168  0.00  0.00    +0.000 HD
BRANCH  20  23
ATOM     23  C   UNL     1      49.307   6.896  16.237  0.00  0.00    +0.000 A 
ATOM     24  C   UNL     1      48.990   8.204  15.892  0.00  0.00    +0.000 A 
ATOM     25  S   UNL     1      50.304   9.284  16.019  0.00  0.00    +0.000 S 
ATOM     26  C   UNL     1      51.328   8.053  16.597  0.00  0.00    +0.000 A 
ATOM     27  N   UNL     1      52.598   8.332  16.995  0.00  0.00    +0.000 NA
ATOM     28  C   UNL     1      53.252   7.311  17.440  0.00  0.00    +0.000 A 
ATOM     29  N   UNL     1      52.763   6.030  17.488  0.00  0.00    +0.000 N 
ATOM     30  C   UNL     1      51.500   5.697  17.052  0.00  0.00    +0.000 A 
ATOM     31  O   UNL     1      51.126   4.522  17.031  0.00  0.00    +0.000 OA
ATOM     32  C   UNL     1      50.700   6.820  16.611  0.00  0.00    +0.000 A 
ATOM     33  H   UNL     1      53.343   5.266  17.801  0.00  0.00    +0.000 HD
ENDBRANCH  20  23
ENDBRANCH  18  19
ENDBRANCH   4  18
TORSDOF 5
ENDMDL
MODEL 9
REMARK VINA RESULT:    -6.461      4.509      6.401
REMARK INTER + INTRA:          -9.266
REMARK INTER:                  -8.454
REMARK INTRA:                  -0.812
REMARK UNBOUND:                -0.917
REMARK  Name = 
REMARK  6 active torsions:
REMARK  status: ('A' for Active; 'I' for Inactive)
REMARK    1  A    between atoms: C_1  and  C_2
REMARK    2  A    between atoms: N_9  and  C_10
REMARK    3  A    between atoms: C_10  and  C_11
REMARK    4  A    between atoms: C_14  and  C_15
REMARK    5  A    between atoms: C_15  and  N_16
REMARK    6  A    between atoms: C_17  and  C_19
REMARK                            x       y       z     vdW  Elec       q    Type
REMARK                         _______ _______ _______ _____ _____    ______ ____
ROOT
ATOM      1  C   UNL     1      47.381   6.396  13.829  0.00  0.00    +0.000 A 
ATOM      2  C   UNL     1      46.640   6.857  12.734  0.00  0.00    +0.000 A 
ATOM      3  C   UNL     1      45.717   6.023  12.093  0.00  0.00    +0.000 A 
ATOM      4  C   UNL     1      45.501   4.714  12.545  0.00  0.00    +0.000 A 
ATOM      5  C   UNL     1      46.261   4.243  13.623  0.00  0.00    +0.000 A 
ATOM      6  C   UNL     1      47.186   5.077  14.263  0.00  0.00    +0.000 A 
ENDROOT
BRANCH   1   7
ATOM      7  C   UNL     1      48.382   7.292  14.512  0.00  0.00    +0.000 C 
BRANCH   7  16
ATOM      8  C   UNL     1      47.395   5.677  18.548  0.00  0.00    +0.000 C 
ATOM      9  C   UNL     1      48.506   6.598  18.915  0.00  0.00    +0.000 A 
ATOM     10  C   UNL     1      49.178   6.681  20.124  0.00  0.00    +0.000 A 
ATOM     11  C   UNL     1      50.041   7.792  20.071  0.00  0.00    +0.000 A 
ATOM     12  C   UNL     1      49.857   8.384  18.845  0.00  0.00    +0.000 A 
ATOM     13  N   UNL     1      48.944   7.647  18.105  0.00  0.00    +0.000 N 
ATOM     14  C   UNL     1      48.522   8.015  16.811  0.00  0.00    +0.000 C 
ATOM     15  O   UNL     1      48.282   9.188  16.562  0.00  0.00    +0.000 OA
ATOM     16  N   UNL     1      48.573   6.971  15.911  0.00  0.00    +0.000 N 
ATOM     17  H   UNL     1      49.154   6.174  16.143  0.00  0.00    +0.000 HD
ENDBRANCH   7  16
ENDBRANCH   1   7
BRANCH   4  18
ATOM     18  C   UNL     1      44.484   3.823  11.879  0.00  0.00    +0.000 C 
BRANCH  18  19
ATOM     19  N   UNL     1      45.094   2.922  10.934  0.00  0.00    +0.000 N 
ATOM     20  C   UNL     1      44.830   3.027   9.592  0.00  0.00    +0.000 C 
ATOM     21  O   UNL     1      43.965   3.783   9.158  0.00  0.00    +0.000 OA
ATOM     22  H   UNL     1      45.923   2.423  11.244  0.00  0.00    +0.000 HD
BRANCH  20  23
ATOM     23  C   UNL     1      45.619   2.177   8.691  0.00  0.00    +0.000 A 
ATOM     24  C   UNL     1      45.525   0.795   8.789  0.00  0.00    +0.000 A 
ATOM     25  S   UNL     1      46.457  -0.038   7.628  0.00  0.00    +0.000 S 
ATOM     26  C   UNL     1      46.971   1.421   6.916  0.00  0.00    +0.000 A 
ATOM     27  N   UNL     1      47.734   1.416   5.790  0.00  0.00    +0.000 NA
ATOM     28  C   UNL     1      48.025   2.592   5.342  0.00  0.00    +0.000 A 
ATOM     29  N   UNL     1      47.654   3.770   5.937  0.00  0.00    +0.000 N 
ATOM     30  C   UNL     1      46.922   3.818   7.103  0.00  0.00    +0.000 A 
ATOM     31  O   UNL     1      46.679   4.894   7.655  0.00  0.00    +0.000 OA
ATOM     32  C   UNL     1      46.507   2.526   7.607  0.00  0.00    +0.000 A 
ATOM     33  H   UNL     1      47.956   4.657   5.563  0.00  0.00    +0.000 HD
ENDBRANCH  20  23
ENDBRANCH  18  19
ENDBRANCH   4  18
TORSDOF 5
ENDMDL
