MODEL 1
REMARK VINA RESULT:    -7.427      0.000      0.000
REMARK INTER + INTRA:         -11.564
REMARK INTER:                 -10.466
REMARK INTRA:                  -1.098
REMARK UNBOUND:                -1.098
REMARK  Name = 
REMARK  7 active torsions:
REMARK  status: ('A' for Active; 'I' for Inactive)
REMARK    1  A    between atoms: C_2  and  C_20
REMARK    2  A    between atoms: N_3  and  C_4
REMARK    3  A    between atoms: C_4  and  C_5
REMARK    4  A    between atoms: C_8  and  C_9
REMARK    5  A    between atoms: C_9  and  N_10
REMARK    6  A    between atoms: N_10  and  C_11
REMARK    7  A    between atoms: C_11  and  C_12
REMARK                            x       y       z     vdW  Elec       q    Type
REMARK                         _______ _______ _______ _____ _____    ______ ____
ROOT
ATOM      1  C   UNL     1      46.565   4.849  14.248  0.00  0.00    +0.000 A 
ATOM      2  C   UNL     1      45.564   4.315  13.431  0.00  0.00    +0.000 A 
ATOM      3  C   UNL     1      45.417   4.750  12.115  0.00  0.00    +0.000 A 
ATOM      4  C   UNL     1      46.245   5.756  11.593  0.00  0.00    +0.000 A 
ATOM      5  C   UNL     1      47.282   6.246  12.397  0.00  0.00    +0.000 A 
ATOM      6  C   UNL     1      47.446   5.794  13.710  0.00  0.00    +0.000 A 
ENDROOT
BRANCH   1   7
ATOM      7  C   UNL     1      46.718   4.355  15.661  0.00  0.00    +0.000 C 
BRANCH   7  10
ATOM      8  O   UNL     1      47.800   5.156  18.136  0.00  0.00    +0.000 OA
ATOM      9  C   UNL     1      48.540   4.659  17.293  0.00  0.00    +0.000 C 
ATOM     10  N   UNL     1      48.109   4.322  16.035  0.00  0.00    +0.000 N 
ATOM     11  H   UNL     1      48.699   3.736  15.456  0.00  0.00    +0.000 HD
BRANCH   9  12
ATOM     12  C   UNL     1      49.967   4.439  17.560  0.00  0.00    +0.000 A 
ATOM     13  C   UNL     1      50.757   5.495  17.993  0.00  0.00    +0.000 A 
ATOM     14  S   UNL     1      52.391   5.072  18.235  0.00  0.00    +0.000 S 
ATOM     15  C   UNL     1      52.090   3.450  17.820  0.00  0.00    +0.000 A 
ATOM     16  N   UNL     1      53.085   2.523  17.857  0.00  0.00    +0.000 NA
ATOM     17  C   UNL     1      52.708   1.322  17.569  0.00  0.00    +0.000 A 
ATOM     18  N   UNL     1      51.428   0.965  17.235  0.00  0.00    +0.000 N 
ATOM     19  C   UNL     1      50.412   1.880  17.102  0.00  0.00    +0.000 A 
ATOM     20  O   UNL     1      49.315   1.548  16.661  0.00  0.00    +0.000 OA
ATOM     21  C   UNL     1      50.769   3.238  17.471  0.00  0.00    +0.000 A 
ATOM     22  H   UNL     1      51.204   0.013  16.987  0.00  0.00    +0.000 HD
ENDBRANCH   9  12
ENDBRANCH   7  10
ENDBRANCH   1   7
BRANCH   4  23
ATOM     23  C   UNL     1      46.080   6.295  10.185  0.00  0.00    +0.000 C 
BRANCH  23  24
ATOM     24  N   UNL     1      45.431   5.401   9.223  0.00  0.00    +0.000 NA
ATOM     25  H   UNL     1      44.701   5.911   8.732  0.00  0.00    +0.000 HD
BRANCH  24  26
ATOM     26  C   UNL     1      46.359   4.788   8.266  0.00  0.00    +0.000 C 
BRANCH  26  27
ATOM     27  C   UNL     1      45.612   3.738   7.413  0.00  0.00    +0.000 C 
ATOM     28  C   UNL     1      44.709   2.819   8.253  0.00  0.00    +0.000 C 
ATOM     29  C   UNL     1      45.488   1.722   8.978  0.00  0.00    +0.000 C 
ATOM     30  N   UNL     1      46.306   0.939   8.050  0.00  0.00    +0.000 NA
ATOM     31  C   UNL     1      47.276   1.795   7.368  0.00  0.00    +0.000 C 
ATOM     32  C   UNL     1      46.587   2.899   6.568  0.00  0.00    +0.000 C 
ATOM     33  H   UNL     1      45.695   0.509   7.354  0.00  0.00    +0.000 HD
ENDBRANCH  26  27
ENDBRANCH  24  26
ENDBRANCH  23  24
ENDBRANCH   4  23
TORSDOF 7
ENDMDL
MODEL 2
REMARK VINA RESULT:    -7.381      2.374      3.000
REMARK INTER + INTRA:         -11.500
REMARK INTER:                 -10.315
REMARK INTRA:                  -1.184
REMARK UNBOUND:                -1.098
REMARK  Name = 
REMARK  7 active torsions:
REMARK  status: ('A' for Active; 'I' for Inactive)
REMARK    1  A    between atoms: C_2  and  C_20
REMARK    2  A    between atoms: N_3  and  C_4
REMARK    3  A    between atoms: C_4  and  C_5
REMARK    4  A    between atoms: C_8  and  C_9
REMARK    5  A    between atoms: C_9  and  N_10
REMARK    6  A    between atoms: N_10  and  C_11
REMARK    7  A    between atoms: C_11  and  C_12
REMARK                            x       y       z     vdW  Elec       q    Type
REMARK                         _______ _______ _______ _____ _____    ______ ____
ROOT
ATOM      1  C   UNL     1      46.643   6.473  12.447  0.00  0.00    +0.000 A 
ATOM      2  C   UNL     1      46.021   5.383  13.064  0.00  0.00    +0.000 A 
ATOM      3  C   UNL     1      45.197   4.529  12.330  0.00  0.00    +0.000 A 
ATOM      4  C   UNL     1      44.946   4.765  10.970  0.00  0.00    +0.000 A 
ATOM      5  C   UNL     1      45.616   5.824  10.344  0.00  0.00    +0.000 A 
ATOM      6  C   UNL     1      46.462   6.668  11.073  0.00  0.00    +0.000 A 
ENDROOT
BRANCH   1   7
ATOM      7  C   UNL     1      47.541   7.373  13.251  0.00  0.00    +0.000 C 
BRANCH   7  10
ATOM      8  O   UNL     1      50.065   7.036  14.456  0.00  0.00    +0.000 OA
ATOM      9  C   UNL     1      49.056   6.746  15.091  0.00  0.00    +0.000 C 
ATOM     10  N   UNL     1      47.798   6.801  14.548  0.00  0.00    +0.000 N 
ATOM     11  H   UNL     1      46.996   6.749  15.165  0.00  0.00    +0.000 HD
BRANCH   9  12
ATOM     12  C   UNL     1      49.134   6.263  16.476  0.00  0.00    +0.000 A 
ATOM     13  C   UNL     1      49.686   7.075  17.457  0.00  0.00    +0.000 A 
ATOM     14  S   UNL     1      49.717   6.354  19.002  0.00  0.00    +0.000 S 
ATOM     15  C   UNL     1      48.946   4.952  18.425  0.00  0.00    +0.000 A 
ATOM     16  N   UNL     1      48.638   3.927  19.265  0.00  0.00    +0.000 NA
ATOM     17  C   UNL     1      48.009   2.948  18.706  0.00  0.00    +0.000 A 
ATOM     18  N   UNL     1      47.671   2.895  17.379  0.00  0.00    +0.000 N 
ATOM     19  C   UNL     1      48.037   3.866  16.479  0.00  0.00    +0.000 A 
ATOM     20  O   UNL     1      47.845   3.717  15.275  0.00  0.00    +0.000 OA
ATOM     21  C   UNL     1      48.696   5.018  17.066  0.00  0.00    +0.000 A 
ATOM     22  H   UNL     1      47.208   2.084  16.995  0.00  0.00    +0.000 HD
ENDBRANCH   9  12
ENDBRANCH   7  10
ENDBRANCH   1   7
BRANCH   4  23
ATOM     23  C   UNL     1      44.012   3.893  10.153  0.00  0.00    +0.000 C 
BRANCH  23  24
ATOM     24  N   UNL     1      43.913   4.212   8.727  0.00  0.00    +0.000 NA
ATOM     25  H   UNL     1      44.331   5.123   8.557  0.00  0.00    +0.000 HD
BRANCH  24  26
ATOM     26  C   UNL     1      44.518   3.202   7.852  0.00  0.00    +0.000 C 
BRANCH  26  27
ATOM     27  C   UNL     1      46.032   3.097   8.142  0.00  0.00    +0.000 C 
ATOM     28  C   UNL     1      46.896   3.755   7.052  0.00  0.00    +0.000 C 
ATOM     29  C   UNL     1      47.042   2.885   5.804  0.00  0.00    +0.000 C 
ATOM     30  N   UNL     1      47.549   1.552   6.134  0.00  0.00    +0.000 NA
ATOM     31  C   UNL     1      46.639   0.864   7.049  0.00  0.00    +0.000 C 
ATOM     32  C   UNL     1      46.468   1.637   8.355  0.00  0.00    +0.000 C 
ATOM     33  H   UNL     1      48.462   1.647   6.582  0.00  0.00    +0.000 HD
ENDBRANCH  26  27
ENDBRANCH  24  26
ENDBRANCH  23  24
ENDBRANCH   4  23
TORSDOF 7
ENDMDL
MODEL 3
REMARK VINA RESULT:    -7.025      3.072      3.974
REMARK INTER + INTRA:         -10.998
REMARK INTER:                  -9.461
REMARK INTRA:                  -1.536
REMARK UNBOUND:                -1.098
REMARK  Name = 
REMARK  7 active torsions:
REMARK  status: ('A' for Active; 'I' for Inactive)
REMARK    1  A    between atoms: C_2  and  C_20
REMARK    2  A    between atoms: N_3  and  C_4
REMARK    3  A    between atoms: C_4  and  C_5
REMARK    4  A    between atoms: C_8  and  C_9
REMARK    5  A    between atoms: C_9  and  N_10
REMARK    6  A    between atoms: N_10  and  C_11
REMARK    7  A    between atoms: C_11  and  C_12
REMARK                            x       y       z     vdW  Elec       q    Type
REMARK                         _______ _______ _______ _____ _____    ______ ____
ROOT
ATOM      1  C   UNL     1      48.283   7.967  13.128  0.00  0.00    +0.000 A 
ATOM      2  C   UNL     1      48.022   7.069  12.089  0.00  0.00    +0.000 A 
ATOM      3  C   UNL     1      46.774   7.049  11.467  0.00  0.00    +0.000 A 
ATOM      4  C   UNL     1      45.744   7.901  11.892  0.00  0.00    +0.000 A 
ATOM      5  C   UNL     1      46.028   8.838  12.895  0.00  0.00    +0.000 A 
ATOM      6  C   UNL     1      47.287   8.876  13.504  0.00  0.00    +0.000 A 
ENDROOT
BRANCH   1   7
ATOM      7  C   UNL     1      49.640   7.985  13.776  0.00  0.00    +0.000 C 
BRANCH   7  10
ATOM      8  O   UNL     1      49.372   8.645  16.502  0.00  0.00    +0.000 OA
ATOM      9  C   UNL     1      49.464   7.465  16.179  0.00  0.00    +0.000 C 
ATOM     10  N   UNL     1      49.682   7.066  14.885  0.00  0.00    +0.000 N 
ATOM     11  H   UNL     1      49.548   6.091  14.644  0.00  0.00    +0.000 HD
BRANCH   9  12
ATOM     12  C   UNL     1      49.400   6.389  17.177  0.00  0.00    +0.000 A 
ATOM     13  C   UNL     1      50.093   6.520  18.373  0.00  0.00    +0.000 A 
ATOM     14  S   UNL     1      49.927   5.174  19.407  0.00  0.00    +0.000 S 
ATOM     15  C   UNL     1      48.882   4.392  18.316  0.00  0.00    +0.000 A 
ATOM     16  N   UNL     1      48.337   3.183  18.614  0.00  0.00    +0.000 NA
ATOM     17  C   UNL     1      47.522   2.728  17.721  0.00  0.00    +0.000 A 
ATOM     18  N   UNL     1      47.213   3.369  16.550  0.00  0.00    +0.000 N 
ATOM     19  C   UNL     1      47.805   4.548  16.169  0.00  0.00    +0.000 A 
ATOM     20  O   UNL     1      47.614   5.020  15.051  0.00  0.00    +0.000 OA
ATOM     21  C   UNL     1      48.686   5.132  17.164  0.00  0.00    +0.000 A 
ATOM     22  H   UNL     1      46.594   2.944  15.876  0.00  0.00    +0.000 HD
ENDBRANCH   9  12
ENDBRANCH   7  10
ENDBRANCH   1   7
BRANCH   4  23
ATOM     23  C   UNL     1      44.358   7.869  11.280  0.00  0.00    +0.000 C 
BRANCH  23  24
ATOM     24  N   UNL     1      43.431   6.877  11.830  0.00  0.00    +0.000 NA
ATOM     25  H   UNL     1      42.532   7.320  12.005  0.00  0.00    +0.000 HD
BRANCH  24  26
ATOM     26  C   UNL     1      43.261   5.692  10.982  0.00  0.00    +0.000 C 
BRANCH  26  27
ATOM     27  C   UNL     1      43.018   4.447  11.866  0.00  0.00    +0.000 C 
ATOM     28  C   UNL     1      43.742   4.527  13.221  0.00  0.00    +0.000 C 
ATOM     29  C   UNL     1      45.231   4.203  13.118  0.00  0.00    +0.000 C 
ATOM     30  N   UNL     1      45.458   2.902  12.484  0.00  0.00    +0.000 NA
ATOM     31  C   UNL     1      44.906   2.885  11.130  0.00  0.00    +0.000 C 
ATOM     32  C   UNL     1      43.402   3.150  11.133  0.00  0.00    +0.000 C 
ATOM     33  H   UNL     1      44.997   2.180  13.040  0.00  0.00    +0.000 HD
ENDBRANCH  26  27
ENDBRANCH  24  26
ENDBRANCH  23  24
ENDBRANCH   4  23
TORSDOF 7
ENDMDL
MODEL 4
REMARK VINA RESULT:    -7.015      2.496      3.365
REMARK INTER + INTRA:         -10.983
REMARK INTER:                  -9.981
REMARK INTRA:                  -1.002
REMARK UNBOUND:                -1.098
REMARK  Name = 
REMARK  7 active torsions:
REMARK  status: ('A' for Active; 'I' for Inactive)
REMARK    1  A    between atoms: C_2  and  C_20
REMARK    2  A    between atoms: N_3  and  C_4
REMARK    3  A    between atoms: C_4  and  C_5
REMARK    4  A    between atoms: C_8  and  C_9
REMARK    5  A    between atoms: C_9  and  N_10
REMARK    6  A    between atoms: N_10  and  C_11
REMARK    7  A    between atoms: C_11  and  C_12
REMARK                            x       y       z     vdW  Elec       q    Type
REMARK                         _______ _______ _______ _____ _____    ______ ____
ROOT
ATOM      1  C   UNL     1      47.070   6.205  13.103  0.00  0.00    +0.000 A 
ATOM      2  C   UNL     1      46.609   6.749  11.900  0.00  0.00    +0.000 A 
ATOM      3  C   UNL     1      45.432   6.280  11.316  0.00  0.00    +0.000 A 
ATOM      4  C   UNL     1      44.706   5.232  11.902  0.00  0.00    +0.000 A 
ATOM      5  C   UNL     1      45.141   4.731  13.136  0.00  0.00    +0.000 A 
ATOM      6  C   UNL     1      46.308   5.216  13.735  0.00  0.00    +0.000 A 
ENDROOT
BRANCH   1   7
ATOM      7  C   UNL     1      48.333   6.735  13.726  0.00  0.00    +0.000 C 
BRANCH   7  10
ATOM      8  O   UNL     1      49.970   8.091  15.575  0.00  0.00    +0.000 OA
ATOM      9  C   UNL     1      49.058   7.383  15.990  0.00  0.00    +0.000 C 
ATOM     10  N   UNL     1      48.272   6.625  15.161  0.00  0.00    +0.000 N 
ATOM     11  H   UNL     1      47.417   6.224  15.528  0.00  0.00    +0.000 HD
BRANCH   9  12
ATOM     12  C   UNL     1      48.779   7.257  17.427  0.00  0.00    +0.000 A 
ATOM     13  C   UNL     1      48.304   8.354  18.133  0.00  0.00    +0.000 A 
ATOM     14  S   UNL     1      48.052   8.041  19.790  0.00  0.00    +0.000 S 
ATOM     15  C   UNL     1      48.519   6.415  19.612  0.00  0.00    +0.000 A 
ATOM     16  N   UNL     1      48.496   5.561  20.670  0.00  0.00    +0.000 NA
ATOM     17  C   UNL     1      48.825   4.345  20.384  0.00  0.00    +0.000 A 
ATOM     18  N   UNL     1      49.187   3.909  19.136  0.00  0.00    +0.000 N 
ATOM     19  C   UNL     1      49.306   4.753  18.059  0.00  0.00    +0.000 A 
ATOM     20  O   UNL     1      49.772   4.357  16.994  0.00  0.00    +0.000 OA
ATOM     21  C   UNL     1      48.893   6.121  18.313  0.00  0.00    +0.000 A 
ATOM     22  H   UNL     1      49.466   2.951  18.985  0.00  0.00    +0.000 HD
ENDBRANCH   9  12
ENDBRANCH   7  10
ENDBRANCH   1   7
BRANCH   4  23
ATOM     23  C   UNL     1      43.454   4.658  11.269  0.00  0.00    +0.000 C 
BRANCH  23  24
ATOM     24  N   UNL     1      43.503   3.238  10.912  0.00  0.00    +0.000 NA
ATOM     25  H   UNL     1      42.705   3.013  10.323  0.00  0.00    +0.000 HD
BRANCH  24  26
ATOM     26  C   UNL     1      44.752   2.836  10.256  0.00  0.00    +0.000 C 
BRANCH  26  27
ATOM     27  C   UNL     1      44.475   2.474   8.779  0.00  0.00    +0.000 C 
ATOM     28  C   UNL     1      45.204   1.196   8.330  0.00  0.00    +0.000 C 
ATOM     29  C   UNL     1      46.683   1.433   8.027  0.00  0.00    +0.000 C 
ATOM     30  N   UNL     1      46.868   2.507   7.050  0.00  0.00    +0.000 NA
ATOM     31  C   UNL     1      46.313   3.763   7.552  0.00  0.00    +0.000 C 
ATOM     32  C   UNL     1      44.817   3.641   7.837  0.00  0.00    +0.000 C 
ATOM     33  H   UNL     1      46.388   2.253   6.186  0.00  0.00    +0.000 HD
ENDBRANCH  26  27
ENDBRANCH  24  26
ENDBRANCH  23  24
ENDBRANCH   4  23
TORSDOF 7
ENDMDL
MODEL 5
REMARK VINA RESULT:    -7.010      2.959      4.160
REMARK INTER + INTRA:         -10.977
REMARK INTER:                  -9.836
REMARK INTRA:                  -1.141
REMARK UNBOUND:                -1.098
REMARK  Name = 
REMARK  7 active torsions:
REMARK  status: ('A' for Active; 'I' for Inactive)
REMARK    1  A    between atoms: C_2  and  C_20
REMARK    2  A    between atoms: N_3  and  C_4
REMARK    3  A    between atoms: C_4  and  C_5
REMARK    4  A    between atoms: C_8  and  C_9
REMARK    5  A    between atoms: C_9  and  N_10
REMARK    6  A    between atoms: N_10  and  C_11
REMARK    7  A    between atoms: C_11  and  C_12
REMARK                            x       y       z     vdW  Elec       q    Type
REMARK                         _______ _______ _______ _____ _____    ______ ____
ROOT
ATOM      1  C   UNL     1      46.670   6.515  12.650  0.00  0.00    +0.000 A 
ATOM      2  C   UNL     1      46.685   6.633  11.257  0.00  0.00    +0.000 A 
ATOM      3  C   UNL     1      45.875   5.816  10.469  0.00  0.00    +0.000 A 
ATOM      4  C   UNL     1      45.057   4.836  11.052  0.00  0.00    +0.000 A 
ATOM      5  C   UNL     1      45.003   4.762  12.450  0.00  0.00    +0.000 A 
ATOM      6  C   UNL     1      45.797   5.596  13.243  0.00  0.00    +0.000 A 
ENDROOT
BRANCH   1   7
ATOM      7  C   UNL     1      47.539   7.417  13.485  0.00  0.00    +0.000 C 
BRANCH   7  10
ATOM      8  O   UNL     1      49.966   6.791  14.771  0.00  0.00    +0.000 OA
ATOM      9  C   UNL     1      48.914   6.680  15.393  0.00  0.00    +0.000 C 
ATOM     10  N   UNL     1      47.687   6.883  14.815  0.00  0.00    +0.000 N 
ATOM     11  H   UNL     1      46.874   6.978  15.412  0.00  0.00    +0.000 HD
BRANCH   9  12
ATOM     12  C   UNL     1      48.896   6.265  16.802  0.00  0.00    +0.000 A 
ATOM     13  C   UNL     1      49.333   4.994  17.149  0.00  0.00    +0.000 A 
ATOM     14  S   UNL     1      49.226   4.670  18.820  0.00  0.00    +0.000 S 
ATOM     15  C   UNL     1      48.642   6.234  19.144  0.00  0.00    +0.000 A 
ATOM     16  N   UNL     1      48.374   6.631  20.417  0.00  0.00    +0.000 NA
ATOM     17  C   UNL     1      47.987   7.857  20.525  0.00  0.00    +0.000 A 
ATOM     18  N   UNL     1      47.831   8.722  19.473  0.00  0.00    +0.000 N 
ATOM     19  C   UNL     1      48.008   8.340  18.165  0.00  0.00    +0.000 A 
ATOM     20  O   UNL     1      47.720   9.096  17.241  0.00  0.00    +0.000 OA
ATOM     21  C   UNL     1      48.500   6.985  17.991  0.00  0.00    +0.000 A 
ATOM     22  H   UNL     1      47.492   9.660  19.621  0.00  0.00    +0.000 HD
ENDBRANCH   9  12
ENDBRANCH   7  10
ENDBRANCH   1   7
BRANCH   4  23
ATOM     23  C   UNL     1      44.206   3.891  10.226  0.00  0.00    +0.000 C 
BRANCH  23  24
ATOM     24  N   UNL     1      44.017   4.255   8.820  0.00  0.00    +0.000 NA
ATOM     25  H   UNL     1      44.409   5.180   8.657  0.00  0.00    +0.000 HD
BRANCH  24  26
ATOM     26  C   UNL     1      44.586   3.286   7.876  0.00  0.00    +0.000 C 
BRANCH  26  27
ATOM     27  C   UNL     1      46.099   3.123   8.142  0.00  0.00    +0.000 C 
ATOM     28  C   UNL     1      46.971   3.814   7.079  0.00  0.00    +0.000 C 
ATOM     29  C   UNL     1      47.079   3.008   5.785  0.00  0.00    +0.000 C 
ATOM     30  N   UNL     1      47.550   1.645   6.037  0.00  0.00    +0.000 NA
ATOM     31  C   UNL     1      46.630   0.936   6.926  0.00  0.00    +0.000 C 
ATOM     32  C   UNL     1      46.494   1.642   8.273  0.00  0.00    +0.000 C 
ATOM     33  H   UNL     1      48.470   1.690   6.479  0.00  0.00    +0.000 HD
ENDBRANCH  26  27
ENDBRANCH  24  26
ENDBRANCH  23  24
ENDBRANCH   4  23
TORSDOF 7
ENDMDL
MODEL 6
REMARK VINA RESULT:    -6.807      3.809      8.476
REMARK INTER + INTRA:         -10.691
REMARK INTER:                  -9.107
REMARK INTRA:                  -1.584
REMARK UNBOUND:                -1.098
REMARK  Name = 
REMARK  7 active torsions:
REMARK  status: ('A' for Active; 'I' for Inactive)
REMARK    1  A    between atoms: C_2  and  C_20
REMARK    2  A    between atoms: N_3  and  C_4
REMARK    3  A    between atoms: C_4  and  C_5
REMARK    4  A    between atoms: C_8  and  C_9
REMARK    5  A    between atoms: C_9  and  N_10
REMARK    6  A    between atoms: N_10  and  C_11
REMARK    7  A    between atoms: C_11  and  C_12
REMARK                            x       y       z     vdW  Elec       q    Type
REMARK                         _______ _______ _______ _____ _____    ______ ____
ROOT
ATOM      1  C   UNL     1      48.654   8.031  13.478  0.00  0.00    +0.000 A 
ATOM      2  C   UNL     1      47.903   8.651  14.482  0.00  0.00    +0.000 A 
ATOM      3  C   UNL     1      48.269   8.523  15.821  0.00  0.00    +0.000 A 
ATOM      4  C   UNL     1      49.375   7.744  16.194  0.00  0.00    +0.000 A 
ATOM      5  C   UNL     1      50.157   7.173  15.182  0.00  0.00    +0.000 A 
ATOM      6  C   UNL     1      49.805   7.319  13.836  0.00  0.00    +0.000 A 
ENDROOT
BRANCH   1   7
ATOM      7  C   UNL     1      48.253   8.193  12.038  0.00  0.00    +0.000 C 
BRANCH   7  10
ATOM      8  O   UNL     1      45.455   7.975  11.787  0.00  0.00    +0.000 OA
ATOM      9  C   UNL     1      46.163   7.043  11.418  0.00  0.00    +0.000 C 
ATOM     10  N   UNL     1      47.525   7.036  11.584  0.00  0.00    +0.000 N 
ATOM     11  H   UNL     1      48.075   6.346  11.087  0.00  0.00    +0.000 HD
BRANCH   9  12
ATOM     12  C   UNL     1      45.587   5.834  10.816  0.00  0.00    +0.000 A 
ATOM     13  C   UNL     1      45.811   5.561   9.474  0.00  0.00    +0.000 A 
ATOM     14  S   UNL     1      45.054   4.131   8.933  0.00  0.00    +0.000 S 
ATOM     15  C   UNL     1      44.444   3.799  10.486  0.00  0.00    +0.000 A 
ATOM     16  N   UNL     1      43.717   2.675  10.726  0.00  0.00    +0.000 NA
ATOM     17  C   UNL     1      43.361   2.522  11.957  0.00  0.00    +0.000 A 
ATOM     18  N   UNL     1      43.654   3.398  12.969  0.00  0.00    +0.000 N 
ATOM     19  C   UNL     1      44.311   4.586  12.757  0.00  0.00    +0.000 A 
ATOM     20  O   UNL     1      44.430   5.413  13.657  0.00  0.00    +0.000 OA
ATOM     21  C   UNL     1      44.785   4.781  11.399  0.00  0.00    +0.000 A 
ATOM     22  H   UNL     1      43.317   3.237  13.906  0.00  0.00    +0.000 HD
ENDBRANCH   9  12
ENDBRANCH   7  10
ENDBRANCH   1   7
BRANCH   4  23
ATOM     23  C   UNL     1      49.770   7.535  17.643  0.00  0.00    +0.000 C 
BRANCH  23  24
ATOM     24  N   UNL     1      48.951   6.591  18.406  0.00  0.00    +0.000 NA
ATOM     25  H   UNL     1      47.984   6.660  18.097  0.00  0.00    +0.000 HD
BRANCH  24  26
ATOM     26  C   UNL     1      49.416   5.202  18.323  0.00  0.00    +0.000 C 
BRANCH  26  27
ATOM     27  C   UNL     1      48.203   4.247  18.255  0.00  0.00    +0.000 C 
ATOM     28  C   UNL     1      48.610   2.779  18.041  0.00  0.00    +0.000 C 
ATOM     29  C   UNL     1      48.975   2.471  16.589  0.00  0.00    +0.000 C 
ATOM     30  N   UNL     1      47.900   2.851  15.670  0.00  0.00    +0.000 NA
ATOM     31  C   UNL     1      47.625   4.284  15.763  0.00  0.00    +0.000 C 
ATOM     32  C   UNL     1      47.199   4.684  17.174  0.00  0.00    +0.000 C 
ATOM     33  H   UNL     1      47.056   2.334  15.918  0.00  0.00    +0.000 HD
ENDBRANCH  26  27
ENDBRANCH  24  26
ENDBRANCH  23  24
ENDBRANCH   4  23
TORSDOF 7
ENDMDL
MODEL 7
REMARK VINA RESULT:    -6.403      5.685      8.488
REMARK INTER + INTRA:         -10.121
REMARK INTER:                  -8.958
REMARK INTRA:                  -1.163
REMARK UNBOUND:                -1.098
REMARK  Name = 
REMARK  7 active torsions:
REMARK  status: ('A' for Active; 'I' for Inactive)
REMARK    1  A    between atoms: C_2  and  C_20
REMARK    2  A    between atoms: N_3  and  C_4
REMARK    3  A    between atoms: C_4  and  C_5
REMARK    4  A    between atoms: C_8  and  C_9
REMARK    5  A    between atoms: C_9  and  N_10
REMARK    6  A    between atoms: N_10  and  C_11
REMARK    7  A    between atoms: C_11  and  C_12
REMARK                            x       y       z     vdW  Elec       q    Type
REMARK                         _______ _______ _______ _____ _____    ______ ____
ROOT
ATOM      1  C   UNL     1      47.189   8.445  12.008  0.00  0.00    +0.000 A 
ATOM      2  C   UNL     1      48.074   7.373  11.861  0.00  0.00    +0.000 A 
ATOM      3  C   UNL     1      49.450   7.592  11.813  0.00  0.00    +0.000 A 
ATOM      4  C   UNL     1      49.974   8.892  11.873  0.00  0.00    +0.000 A 
ATOM      5  C   UNL     1      49.087   9.957  12.077  0.00  0.00    +0.000 A 
ATOM      6  C   UNL     1      47.708   9.737  12.151  0.00  0.00    +0.000 A 
ENDROOT
BRANCH   1   7
ATOM      7  C   UNL     1      45.708   8.187  12.075  0.00  0.00    +0.000 C 
BRANCH   7  10
ATOM      8  O   UNL     1      43.225   7.075  11.343  0.00  0.00    +0.000 OA
ATOM      9  C   UNL     1      44.206   6.344  11.426  0.00  0.00    +0.000 C 
ATOM     10  N   UNL     1      45.429   6.791  11.858  0.00  0.00    +0.000 N 
ATOM     11  H   UNL     1      46.243   6.204  11.716  0.00  0.00    +0.000 HD
BRANCH   9  12
ATOM     12  C   UNL     1      44.123   4.910  11.117  0.00  0.00    +0.000 A 
ATOM     13  C   UNL     1      43.335   4.082  11.906  0.00  0.00    +0.000 A 
ATOM     14  S   UNL     1      43.367   2.447  11.422  0.00  0.00    +0.000 S 
ATOM     15  C   UNL     1      44.392   2.797  10.110  0.00  0.00    +0.000 A 
ATOM     16  N   UNL     1      44.786   1.819   9.250  0.00  0.00    +0.000 NA
ATOM     17  C   UNL     1      45.520   2.231   8.271  0.00  0.00    +0.000 A 
ATOM     18  N   UNL     1      45.908   3.532   8.081  0.00  0.00    +0.000 N 
ATOM     19  C   UNL     1      45.605   4.535   8.970  0.00  0.00    +0.000 A 
ATOM     20  O   UNL     1      46.089   5.657   8.846  0.00  0.00    +0.000 OA
ATOM     21  C   UNL     1      44.733   4.137  10.059  0.00  0.00    +0.000 A 
ATOM     22  H   UNL     1      46.511   3.785   7.313  0.00  0.00    +0.000 HD
ENDBRANCH   9  12
ENDBRANCH   7  10
ENDBRANCH   1   7
BRANCH   4  23
ATOM     23  C   UNL     1      51.460   9.175  11.767  0.00  0.00    +0.000 C 
BRANCH  23  24
ATOM     24  N   UNL     1      52.352   8.038  12.004  0.00  0.00    +0.000 NA
ATOM     25  H   UNL     1      51.797   7.191  12.104  0.00  0.00    +0.000 HD
BRANCH  24  26
ATOM     26  C   UNL     1      53.373   7.859  10.965  0.00  0.00    +0.000 C 
BRANCH  26  27
ATOM     27  C   UNL     1      52.853   6.887   9.882  0.00  0.00    +0.000 C 
ATOM     28  C   UNL     1      53.639   5.565   9.839  0.00  0.00    +0.000 C 
ATOM     29  C   UNL     1      54.982   5.697   9.121  0.00  0.00    +0.000 C 
ATOM     30  N   UNL     1      54.821   6.250   7.775  0.00  0.00    +0.000 NA
ATOM     31  C   UNL     1      54.217   7.580   7.832  0.00  0.00    +0.000 C 
ATOM     32  C   UNL     1      52.840   7.543   8.490  0.00  0.00    +0.000 C 
ATOM     33  H   UNL     1      54.214   5.632   7.235  0.00  0.00    +0.000 HD
ENDBRANCH  26  27
ENDBRANCH  24  26
ENDBRANCH  23  24
ENDBRANCH   4  23
TORSDOF 7
ENDMDL
MODEL 8
REMARK VINA RESULT:    -6.310      3.880      8.475
REMARK INTER + INTRA:          -9.990
REMARK INTER:                  -8.366
REMARK INTRA:                  -1.624
REMARK UNBOUND:                -1.098
REMARK  Name = 
REMARK  7 active torsions:
REMARK  status: ('A' for Active; 'I' for Inactive)
REMARK    1  A    between atoms: C_2  and  C_20
REMARK    2  A    between atoms: N_3  and  C_4
REMARK    3  A    between atoms: C_4  and  C_5
REMARK    4  A    between atoms: C_8  and  C_9
REMARK    5  A    between atoms: C_9  and  N_10
REMARK    6  A    between atoms: N_10  and  C_11
REMARK    7  A    between atoms: C_11  and  C_12
REMARK                            x       y       z     vdW  Elec       q    Type
REMARK                         _______ _______ _______ _____ _____    ______ ____
ROOT
ATOM      1  C   UNL     1      49.502   8.504  15.121  0.00  0.00    +0.000 A 
ATOM      2  C   UNL     1      48.409   8.894  15.901  0.00  0.00    +0.000 A 
ATOM      3  C   UNL     1      48.446   8.762  17.289  0.00  0.00    +0.000 A 
ATOM      4  C   UNL     1      49.563   8.203  17.929  0.00  0.00    +0.000 A 
ATOM      5  C   UNL     1      50.677   7.867  17.148  0.00  0.00    +0.000 A 
ATOM      6  C   UNL     1      50.651   8.021  15.758  0.00  0.00    +0.000 A 
ENDROOT
BRANCH   1   7
ATOM      7  C   UNL     1      49.450   8.669  13.627  0.00  0.00    +0.000 C 
BRANCH   7  10
ATOM      8  O   UNL     1      48.888   5.995  12.943  0.00  0.00    +0.000 OA
ATOM      9  C   UNL     1      47.992   6.830  12.874  0.00  0.00    +0.000 C 
ATOM     10  N   UNL     1      48.205   8.165  13.107  0.00  0.00    +0.000 N 
ATOM     11  H   UNL     1      47.405   8.774  13.235  0.00  0.00    +0.000 HD
BRANCH   9  12
ATOM     12  C   UNL     1      46.627   6.460  12.478  0.00  0.00    +0.000 A 
ATOM     13  C   UNL     1      45.795   7.413  11.906  0.00  0.00    +0.000 A 
ATOM     14  S   UNL     1      44.241   6.822  11.526  0.00  0.00    +0.000 S 
ATOM     15  C   UNL     1      44.642   5.259  12.064  0.00  0.00    +0.000 A 
ATOM     16  N   UNL     1      43.746   4.240  11.983  0.00  0.00    +0.000 NA
ATOM     17  C   UNL     1      44.197   3.097  12.378  0.00  0.00    +0.000 A 
ATOM     18  N   UNL     1      45.462   2.882  12.860  0.00  0.00    +0.000 N 
ATOM     19  C   UNL     1      46.371   3.897  13.040  0.00  0.00    +0.000 A 
ATOM     20  O   UNL     1      47.441   3.694  13.608  0.00  0.00    +0.000 OA
ATOM     21  C   UNL     1      45.933   5.194  12.557  0.00  0.00    +0.000 A 
ATOM     22  H   UNL     1      45.744   1.970  13.185  0.00  0.00    +0.000 HD
ENDBRANCH   9  12
ENDBRANCH   7  10
ENDBRANCH   1   7
BRANCH   4  23
ATOM     23  C   UNL     1      49.617   7.991  19.429  0.00  0.00    +0.000 C 
BRANCH  23  24
ATOM     24  N   UNL     1      48.809   6.888  19.955  0.00  0.00    +0.000 NA
ATOM     25  H   UNL     1      47.858   6.972  19.602  0.00  0.00    +0.000 HD
BRANCH  24  26
ATOM     26  C   UNL     1      49.351   5.559  19.652  0.00  0.00    +0.000 C 
BRANCH  26  27
ATOM     27  C   UNL     1      48.214   4.625  19.182  0.00  0.00    +0.000 C 
ATOM     28  C   UNL     1      48.709   3.211  18.830  0.00  0.00    +0.000 C 
ATOM     29  C   UNL     1      49.377   3.142  17.457  0.00  0.00    +0.000 C 
ATOM     30  N   UNL     1      48.502   3.662  16.405  0.00  0.00    +0.000 NA
ATOM     31  C   UNL     1      48.162   5.062  16.662  0.00  0.00    +0.000 C 
ATOM     32  C   UNL     1      47.439   5.227  17.997  0.00  0.00    +0.000 C 
ATOM     33  H   UNL     1      47.644   3.110  16.386  0.00  0.00    +0.000 HD
ENDBRANCH  26  27
ENDBRANCH  24  26
ENDBRANCH  23  24
ENDBRANCH   4  23
TORSDOF 7
ENDMDL
MODEL 9
REMARK VINA RESULT:    -6.262      2.605      3.549
REMARK INTER + INTRA:          -9.923
REMARK INTER:                  -8.838
REMARK INTRA:                  -1.085
REMARK UNBOUND:                -1.098
REMARK  Name = 
REMARK  7 active torsions:
REMARK  status: ('A' for Active; 'I' for Inactive)
REMARK    1  A    between atoms: C_2  and  C_20
REMARK    2  A    between atoms: N_3  and  C_4
REMARK    3  A    between atoms: C_4  and  C_5
REMARK    4  A    between atoms: C_8  and  C_9
REMARK    5  A    between atoms: C_9  and  N_10
REMARK    6  A    between atoms: N_10  and  C_11
REMARK    7  A    between atoms: C_11  and  C_12
REMARK                            x       y       z     vdW  Elec       q    Type
REMARK                         _______ _______ _______ _____ _____    ______ ____
ROOT
ATOM      1  C   UNL     1      48.731   7.795  16.230  0.00  0.00    +0.000 A 
ATOM      2  C   UNL     1      48.687   6.559  15.578  0.00  0.00    +0.000 A 
ATOM      3  C   UNL     1      48.294   6.477  14.242  0.00  0.00    +0.000 A 
ATOM      4  C   UNL     1      47.901   7.625  13.536  0.00  0.00    +0.000 A 
ATOM      5  C   UNL     1      48.002   8.866  14.177  0.00  0.00    +0.000 A 
ATOM      6  C   UNL     1      48.418   8.953  15.510  0.00  0.00    +0.000 A 
ENDROOT
BRANCH   1   7
ATOM      7  C   UNL     1      49.173   7.865  17.667  0.00  0.00    +0.000 C 
BRANCH   7  10
ATOM      8  O   UNL     1      49.001   5.575  19.298  0.00  0.00    +0.000 OA
ATOM      9  C   UNL     1      50.031   5.782  18.666  0.00  0.00    +0.000 C 
ATOM     10  N   UNL     1      50.226   6.915  17.917  0.00  0.00    +0.000 N 
ATOM     11  H   UNL     1      50.999   6.941  17.262  0.00  0.00    +0.000 HD
BRANCH   9  12
ATOM     12  C   UNL     1      51.161   4.844  18.711  0.00  0.00    +0.000 A 
ATOM     13  C   UNL     1      52.307   5.182  19.419  0.00  0.00    +0.000 A 
ATOM     14  S   UNL     1      53.526   3.992  19.352  0.00  0.00    +0.000 S 
ATOM     15  C   UNL     1      52.546   2.960  18.419  0.00  0.00    +0.000 A 
ATOM     16  N   UNL     1      52.988   1.731  18.039  0.00  0.00    +0.000 NA
ATOM     17  C   UNL     1      52.125   1.033  17.380  0.00  0.00    +0.000 A 
ATOM     18  N   UNL     1      50.863   1.457  17.055  0.00  0.00    +0.000 N 
ATOM     19  C   UNL     1      50.406   2.720  17.343  0.00  0.00    +0.000 A 
ATOM     20  O   UNL     1      49.327   3.117  16.911  0.00  0.00    +0.000 OA
ATOM     21  C   UNL     1      51.317   3.527  18.135  0.00  0.00    +0.000 A 
ATOM     22  H   UNL     1      50.247   0.876  16.507  0.00  0.00    +0.000 HD
ENDBRANCH   9  12
ENDBRANCH   7  10
ENDBRANCH   1   7
BRANCH   4  23
ATOM     23  C   UNL     1      47.413   7.569  12.102  0.00  0.00    +0.000 C 
BRANCH  23  24
ATOM     24  N   UNL     1      46.012   7.188  11.910  0.00  0.00    +0.000 NA
ATOM     25  H   UNL     1      45.561   7.866  11.300  0.00  0.00    +0.000 HD
BRANCH  24  26
ATOM     26  C   UNL     1      45.833   5.830  11.385  0.00  0.00    +0.000 C 
BRANCH  26  27
ATOM     27  C   UNL     1      45.190   4.931  12.465  0.00  0.00    +0.000 C 
ATOM     28  C   UNL     1      45.178   3.443  12.075  0.00  0.00    +0.000 C 
ATOM     29  C   UNL     1      44.069   3.099  11.082  0.00  0.00    +0.000 C 
ATOM     30  N   UNL     1      42.755   3.516  11.576  0.00  0.00    +0.000 NA
ATOM     31  C   UNL     1      42.721   4.962  11.794  0.00  0.00    +0.000 C 
ATOM     32  C   UNL     1      43.767   5.400  12.817  0.00  0.00    +0.000 C 
ATOM     33  H   UNL     1      42.569   3.042  12.460  0.00  0.00    +0.000 HD
ENDBRANCH  26  27
ENDBRANCH  24  26
ENDBRANCH  23  24
ENDBRANCH   4  23
TORSDOF 7
ENDMDL
