MODEL 1
REMARK VINA RESULT:    -7.762      0.000      0.000
REMARK INTER + INTRA:         -11.575
REMARK INTER:                 -10.712
REMARK INTRA:                  -0.864
REMARK UNBOUND:                -0.864
REMARK  Name = 
REMARK  7 active torsions:
REMARK  status: ('A' for Active; 'I' for Inactive)
REMARK    1  A    between atoms: N_1  and  C_2
REMARK    2  A    between atoms: C_2  and  C_3
REMARK    3  A    between atoms: C_6  and  O_7
REMARK    4  A    between atoms: O_7  and  C_8
REMARK    5  A    between atoms: C_8  and  C_9
REMARK    6  A    between atoms: C_9  and  C_10
REMARK    7  A    between atoms: C_13  and  C_14
REMARK                            x       y       z     vdW  Elec       q    Type
REMARK                         _______ _______ _______ _____ _____    ______ ____
ROOT
ATOM      1  C   UNL     1      43.540   4.837  12.404  0.00  0.00    +0.000 C 
ENDROOT
BRANCH   1   2
ATOM      2  C   UNL     1      44.937   5.349  12.640  0.00  0.00    +0.000 A 
ATOM      3  C   UNL     1      45.779   4.719  13.562  0.00  0.00    +0.000 A 
ATOM      4  C   UNL     1      47.082   5.189  13.759  0.00  0.00    +0.000 A 
ATOM      5  C   UNL     1      47.560   6.298  13.045  0.00  0.00    +0.000 A 
ATOM      6  C   UNL     1      46.714   6.939  12.137  0.00  0.00    +0.000 A 
ATOM      7  C   UNL     1      45.417   6.465  11.950  0.00  0.00    +0.000 A 
ATOM      8  F   UNL     1      44.621   7.101  11.079  0.00  0.00    +0.000 F 
BRANCH   5   9
ATOM      9  C   UNL     1      48.964   6.732  13.300  0.00  0.00    +0.000 C 
ATOM     10  N   UNL     1      49.736   7.118  12.242  0.00  0.00    +0.000 N 
ATOM     11  O   UNL     1      49.432   6.745  14.433  0.00  0.00    +0.000 OA
ATOM     12  H   UNL     1      49.444   7.145  11.279  0.00  0.00    +0.000 HD
ATOM     13  H   UNL     1      50.681   7.411  12.456  0.00  0.00    +0.000 HD
ENDBRANCH   5   9
ENDBRANCH   1   2
BRANCH   1  14
ATOM     14  C   UNL     1      43.471   3.707  11.381  0.00  0.00    +0.000 C 
BRANCH  14  15
ATOM     15  O   UNL     1      43.665   4.211  10.053  0.00  0.00    +0.000 OA
BRANCH  15  19
ATOM     16  C   UNL     1      46.511   2.352   7.601  0.00  0.00    +0.000 A 
ATOM     17  C   UNL     1      45.763   1.575   8.495  0.00  0.00    +0.000 A 
ATOM     18  C   UNL     1      44.811   2.162   9.330  0.00  0.00    +0.000 A 
ATOM     19  C   UNL     1      44.590   3.539   9.294  0.00  0.00    +0.000 A 
ATOM     20  C   UNL     1      45.345   4.323   8.420  0.00  0.00    +0.000 A 
ATOM     21  C   UNL     1      46.300   3.735   7.578  0.00  0.00    +0.000 A 
BRANCH  16  22
ATOM     22  C   UNL     1      47.530   1.693   6.709  0.00  0.00    +0.000 C 
BRANCH  22  23
ATOM     23  N   UNL     1      48.638   2.595   6.408  0.00  0.00    +0.000 NA
ATOM     24  H   UNL     1      49.278   2.138   5.762  0.00  0.00    +0.000 HD
ATOM     25  H   UNL     1      49.162   2.766   7.265  0.00  0.00    +0.000 HD
ENDBRANCH  22  23
ENDBRANCH  16  22
ENDBRANCH  15  19
ENDBRANCH  14  15
ENDBRANCH   1  14
TORSDOF 7
ENDMDL
MODEL 2
REMARK VINA RESULT:    -7.644      1.811      5.921
REMARK INTER + INTRA:         -11.412
REMARK INTER:                 -10.487
REMARK INTRA:                  -0.925
REMARK UNBOUND:                -0.864
REMARK  Name = 
REMARK  7 active torsions:
REMARK  status: ('A' for Active; 'I' for Inactive)
REMARK    1  A    between atoms: N_1  and  C_2
REMARK    2  A    between atoms: C_2  and  C_3
REMARK    3  A    between atoms: C_6  and  O_7
REMARK    4  A    between atoms: O_7  and  C_8
REMARK    5  A    between atoms: C_8  and  C_9
REMARK    6  A    between atoms: C_9  and  C_10
REMARK    7  A    between atoms: C_13  and  C_14
REMARK                            x       y       z     vdW  Elec       q    Type
REMARK                         _______ _______ _______ _____ _____    ______ ____
ROOT
ATOM      1  C   UNL     1      43.510   3.678  10.743  0.00  0.00    +0.000 C 
ENDROOT
BRANCH   1   2
ATOM      2  C   UNL     1      44.529   3.330   9.690  0.00  0.00    +0.000 A 
ATOM      3  C   UNL     1      44.763   1.997   9.340  0.00  0.00    +0.000 A 
ATOM      4  C   UNL     1      45.697   1.684   8.347  0.00  0.00    +0.000 A 
ATOM      5  C   UNL     1      46.416   2.697   7.694  0.00  0.00    +0.000 A 
ATOM      6  C   UNL     1      46.197   4.027   8.056  0.00  0.00    +0.000 A 
ATOM      7  C   UNL     1      45.267   4.328   9.049  0.00  0.00    +0.000 A 
ATOM      8  F   UNL     1      45.079   5.613   9.384  0.00  0.00    +0.000 F 
BRANCH   5   9
ATOM      9  C   UNL     1      47.385   2.286   6.637  0.00  0.00    +0.000 C 
ATOM     10  N   UNL     1      47.581   3.112   5.568  0.00  0.00    +0.000 N 
ATOM     11  O   UNL     1      48.001   1.229   6.711  0.00  0.00    +0.000 OA
ATOM     12  H   UNL     1      47.128   3.998   5.417  0.00  0.00    +0.000 HD
ATOM     13  H   UNL     1      48.250   2.801   4.874  0.00  0.00    +0.000 HD
ENDBRANCH   5   9
ENDBRANCH   1   2
BRANCH   1  14
ATOM     14  C   UNL     1      43.695   2.907  12.047  0.00  0.00    +0.000 C 
BRANCH  14  15
ATOM     15  O   UNL     1      43.795   3.806  13.159  0.00  0.00    +0.000 OA
BRANCH  15  19
ATOM     16  C   UNL     1      47.048   6.445  13.040  0.00  0.00    +0.000 A 
ATOM     17  C   UNL     1      45.755   6.940  12.830  0.00  0.00    +0.000 A 
ATOM     18  C   UNL     1      44.649   6.089  12.857  0.00  0.00    +0.000 A 
ATOM     19  C   UNL     1      44.812   4.723  13.089  0.00  0.00    +0.000 A 
ATOM     20  C   UNL     1      46.100   4.218  13.279  0.00  0.00    +0.000 A 
ATOM     21  C   UNL     1      47.212   5.072  13.255  0.00  0.00    +0.000 A 
BRANCH  16  22
ATOM     22  C   UNL     1      48.224   7.386  13.008  0.00  0.00    +0.000 C 
BRANCH  22  23
ATOM     23  N   UNL     1      49.478   6.666  12.805  0.00  0.00    +0.000 NA
ATOM     24  H   UNL     1      50.247   7.218  13.179  0.00  0.00    +0.000 HD
ATOM     25  H   UNL     1      49.644   6.576  11.803  0.00  0.00    +0.000 HD
ENDBRANCH  22  23
ENDBRANCH  16  22
ENDBRANCH  15  19
ENDBRANCH  14  15
ENDBRANCH   1  14
TORSDOF 7
ENDMDL
MODEL 3
REMARK VINA RESULT:    -7.343      2.070      6.421
REMARK INTER + INTRA:         -10.997
REMARK INTER:                 -10.495
REMARK INTRA:                  -0.502
REMARK UNBOUND:                -0.864
REMARK  Name = 
REMARK  7 active torsions:
REMARK  status: ('A' for Active; 'I' for Inactive)
REMARK    1  A    between atoms: N_1  and  C_2
REMARK    2  A    between atoms: C_2  and  C_3
REMARK    3  A    between atoms: C_6  and  O_7
REMARK    4  A    between atoms: O_7  and  C_8
REMARK    5  A    between atoms: C_8  and  C_9
REMARK    6  A    between atoms: C_9  and  C_10
REMARK    7  A    between atoms: C_13  and  C_14
REMARK                            x       y       z     vdW  Elec       q    Type
REMARK                         _______ _______ _______ _____ _____    ______ ____
ROOT
ATOM      1  C   UNL     1      43.774   4.733  10.301  0.00  0.00    +0.000 C 
ENDROOT
BRANCH   1   2
ATOM      2  C   UNL     1      44.709   3.958   9.410  0.00  0.00    +0.000 A 
ATOM      3  C   UNL     1      45.591   4.625   8.554  0.00  0.00    +0.000 A 
ATOM      4  C   UNL     1      46.469   3.898   7.744  0.00  0.00    +0.000 A 
ATOM      5  C   UNL     1      46.475   2.494   7.772  0.00  0.00    +0.000 A 
ATOM      6  C   UNL     1      45.582   1.828   8.613  0.00  0.00    +0.000 A 
ATOM      7  C   UNL     1      44.708   2.561   9.413  0.00  0.00    +0.000 A 
ATOM      8  F   UNL     1      43.855   1.898  10.207  0.00  0.00    +0.000 F 
BRANCH   5   9
ATOM      9  C   UNL     1      47.449   1.790   6.890  0.00  0.00    +0.000 C 
ATOM     10  N   UNL     1      48.521   2.485   6.407  0.00  0.00    +0.000 N 
ATOM     11  O   UNL     1      47.305   0.609   6.593  0.00  0.00    +0.000 OA
ATOM     12  H   UNL     1      48.728   3.452   6.593  0.00  0.00    +0.000 HD
ATOM     13  H   UNL     1      49.162   1.971   5.816  0.00  0.00    +0.000 HD
ENDBRANCH   5   9
ENDBRANCH   1   2
BRANCH   1  14
ATOM     14  C   UNL     1      43.896   4.364  11.777  0.00  0.00    +0.000 C 
BRANCH  14  15
ATOM     15  O   UNL     1      43.829   5.535  12.601  0.00  0.00    +0.000 OA
BRANCH  15  19
ATOM     16  C   UNL     1      47.543   7.333  13.335  0.00  0.00    +0.000 A 
ATOM     17  C   UNL     1      46.491   8.111  12.835  0.00  0.00    +0.000 A 
ATOM     18  C   UNL     1      45.243   7.544  12.574  0.00  0.00    +0.000 A 
ATOM     19  C   UNL     1      45.020   6.186  12.801  0.00  0.00    +0.000 A 
ATOM     20  C   UNL     1      46.070   5.399  13.280  0.00  0.00    +0.000 A 
ATOM     21  C   UNL     1      47.324   5.968  13.547  0.00  0.00    +0.000 A 
BRANCH  16  22
ATOM     22  C   UNL     1      48.880   7.972  13.611  0.00  0.00    +0.000 C 
BRANCH  22  23
ATOM     23  N   UNL     1      49.875   6.977  14.000  0.00  0.00    +0.000 NA
ATOM     24  H   UNL     1      49.425   6.248  14.549  0.00  0.00    +0.000 HD
ATOM     25  H   UNL     1      50.560   7.422  14.611  0.00  0.00    +0.000 HD
ENDBRANCH  22  23
ENDBRANCH  16  22
ENDBRANCH  15  19
ENDBRANCH  14  15
ENDBRANCH   1  14
TORSDOF 7
ENDMDL
MODEL 4
REMARK VINA RESULT:    -7.325      1.398      2.018
REMARK INTER + INTRA:         -10.972
REMARK INTER:                 -10.114
REMARK INTRA:                  -0.858
REMARK UNBOUND:                -0.864
REMARK  Name = 
REMARK  7 active torsions:
REMARK  status: ('A' for Active; 'I' for Inactive)
REMARK    1  A    between atoms: N_1  and  C_2
REMARK    2  A    between atoms: C_2  and  C_3
REMARK    3  A    between atoms: C_6  and  O_7
REMARK    4  A    between atoms: O_7  and  C_8
REMARK    5  A    between atoms: C_8  and  C_9
REMARK    6  A    between atoms: C_9  and  C_10
REMARK    7  A    between atoms: C_13  and  C_14
REMARK                            x       y       z     vdW  Elec       q    Type
REMARK                         _______ _______ _______ _____ _____    ______ ____
ROOT
ATOM      1  C   UNL     1      44.305   4.600  12.184  0.00  0.00    +0.000 C 
ENDROOT
BRANCH   1   2
ATOM      2  C   UNL     1      45.588   5.379  12.304  0.00  0.00    +0.000 A 
ATOM      3  C   UNL     1      46.033   6.183  11.249  0.00  0.00    +0.000 A 
ATOM      4  C   UNL     1      47.215   6.919  11.376  0.00  0.00    +0.000 A 
ATOM      5  C   UNL     1      47.975   6.857  12.555  0.00  0.00    +0.000 A 
ATOM      6  C   UNL     1      47.542   6.040  13.601  0.00  0.00    +0.000 A 
ATOM      7  C   UNL     1      46.365   5.308  13.463  0.00  0.00    +0.000 A 
ATOM      8  F   UNL     1      45.973   4.526  14.479  0.00  0.00    +0.000 F 
BRANCH   5   9
ATOM      9  C   UNL     1      49.217   7.680  12.620  0.00  0.00    +0.000 C 
ATOM     10  N   UNL     1      50.207   7.309  13.485  0.00  0.00    +0.000 N 
ATOM     11  O   UNL     1      49.362   8.675  11.919  0.00  0.00    +0.000 OA
ATOM     12  H   UNL     1      50.185   6.511  14.098  0.00  0.00    +0.000 HD
ATOM     13  H   UNL     1      51.036   7.890  13.497  0.00  0.00    +0.000 HD
ENDBRANCH   5   9
ENDBRANCH   1   2
BRANCH   1  14
ATOM     14  C   UNL     1      43.665   4.691  10.802  0.00  0.00    +0.000 C 
BRANCH  14  15
ATOM     15  O   UNL     1      43.573   3.394  10.198  0.00  0.00    +0.000 OA
BRANCH  15  19
ATOM     16  C   UNL     1      46.497   2.344   7.384  0.00  0.00    +0.000 A 
ATOM     17  C   UNL     1      46.055   3.672   7.452  0.00  0.00    +0.000 A 
ATOM     18  C   UNL     1      45.079   4.056   8.373  0.00  0.00    +0.000 A 
ATOM     19  C   UNL     1      44.519   3.119   9.242  0.00  0.00    +0.000 A 
ATOM     20  C   UNL     1      44.938   1.789   9.167  0.00  0.00    +0.000 A 
ATOM     21  C   UNL     1      45.922   1.403   8.245  0.00  0.00    +0.000 A 
BRANCH  16  22
ATOM     22  C   UNL     1      47.554   1.958   6.383  0.00  0.00    +0.000 C 
BRANCH  22  23
ATOM     23  N   UNL     1      48.717   2.837   6.470  0.00  0.00    +0.000 NA
ATOM     24  H   UNL     1      49.026   2.890   7.437  0.00  0.00    +0.000 HD
ATOM     25  H   UNL     1      48.435   3.778   6.200  0.00  0.00    +0.000 HD
ENDBRANCH  22  23
ENDBRANCH  16  22
ENDBRANCH  15  19
ENDBRANCH  14  15
ENDBRANCH   1  14
TORSDOF 7
ENDMDL
MODEL 5
REMARK VINA RESULT:    -7.190      1.724      2.218
REMARK INTER + INTRA:         -10.786
REMARK INTER:                 -10.316
REMARK INTRA:                  -0.470
REMARK UNBOUND:                -0.864
REMARK  Name = 
REMARK  7 active torsions:
REMARK  status: ('A' for Active; 'I' for Inactive)
REMARK    1  A    between atoms: N_1  and  C_2
REMARK    2  A    between atoms: C_2  and  C_3
REMARK    3  A    between atoms: C_6  and  O_7
REMARK    4  A    between atoms: O_7  and  C_8
REMARK    5  A    between atoms: C_8  and  C_9
REMARK    6  A    between atoms: C_9  and  C_10
REMARK    7  A    between atoms: C_13  and  C_14
REMARK                            x       y       z     vdW  Elec       q    Type
REMARK                         _______ _______ _______ _____ _____    ______ ____
ROOT
ATOM      1  C   UNL     1      45.393   5.703  10.918  0.00  0.00    +0.000 C 
ENDROOT
BRANCH   1   2
ATOM      2  C   UNL     1      46.098   5.572  12.242  0.00  0.00    +0.000 A 
ATOM      3  C   UNL     1      45.787   4.522  13.113  0.00  0.00    +0.000 A 
ATOM      4  C   UNL     1      46.460   4.397  14.332  0.00  0.00    +0.000 A 
ATOM      5  C   UNL     1      47.449   5.322  14.704  0.00  0.00    +0.000 A 
ATOM      6  C   UNL     1      47.747   6.380  13.844  0.00  0.00    +0.000 A 
ATOM      7  C   UNL     1      47.068   6.499  12.633  0.00  0.00    +0.000 A 
ATOM      8  F   UNL     1      47.367   7.528  11.827  0.00  0.00    +0.000 F 
BRANCH   5   9
ATOM      9  C   UNL     1      48.132   5.115  16.013  0.00  0.00    +0.000 C 
ATOM     10  N   UNL     1      48.246   6.172  16.870  0.00  0.00    +0.000 N 
ATOM     11  O   UNL     1      48.590   4.022  16.329  0.00  0.00    +0.000 OA
ATOM     12  H   UNL     1      47.903   7.104  16.704  0.00  0.00    +0.000 HD
ATOM     13  H   UNL     1      48.711   5.991  17.750  0.00  0.00    +0.000 HD
ENDBRANCH   5   9
ENDBRANCH   1   2
BRANCH   1  14
ATOM     14  C   UNL     1      44.010   5.059  10.898  0.00  0.00    +0.000 C 
BRANCH  14  15
ATOM     15  O   UNL     1      43.660   4.644   9.572  0.00  0.00    +0.000 OA
BRANCH  15  19
ATOM     16  C   UNL     1      46.426   2.037   7.804  0.00  0.00    +0.000 A 
ATOM     17  C   UNL     1      46.422   3.388   7.433  0.00  0.00    +0.000 A 
ATOM     18  C   UNL     1      45.511   4.283   7.997  0.00  0.00    +0.000 A 
ATOM     19  C   UNL     1      44.581   3.846   8.940  0.00  0.00    +0.000 A 
ATOM     20  C   UNL     1      44.564   2.497   9.300  0.00  0.00    +0.000 A 
ATOM     21  C   UNL     1      45.481   1.597   8.737  0.00  0.00    +0.000 A 
BRANCH  16  22
ATOM     22  C   UNL     1      47.422   1.094   7.181  0.00  0.00    +0.000 C 
BRANCH  22  23
ATOM     23  N   UNL     1      48.366   1.806   6.324  0.00  0.00    +0.000 NA
ATOM     24  H   UNL     1      48.712   1.173   5.606  0.00  0.00    +0.000 HD
ATOM     25  H   UNL     1      49.172   2.081   6.884  0.00  0.00    +0.000 HD
ENDBRANCH  22  23
ENDBRANCH  16  22
ENDBRANCH  15  19
ENDBRANCH  14  15
ENDBRANCH   1  14
TORSDOF 7
ENDMDL
MODEL 6
REMARK VINA RESULT:    -7.018      1.981      2.583
REMARK INTER + INTRA:         -10.549
REMARK INTER:                 -10.372
REMARK INTRA:                  -0.176
REMARK UNBOUND:                -0.864
REMARK  Name = 
REMARK  7 active torsions:
REMARK  status: ('A' for Active; 'I' for Inactive)
REMARK    1  A    between atoms: N_1  and  C_2
REMARK    2  A    between atoms: C_2  and  C_3
REMARK    3  A    between atoms: C_6  and  O_7
REMARK    4  A    between atoms: O_7  and  C_8
REMARK    5  A    between atoms: C_8  and  C_9
REMARK    6  A    between atoms: C_9  and  C_10
REMARK    7  A    between atoms: C_13  and  C_14
REMARK                            x       y       z     vdW  Elec       q    Type
REMARK                         _______ _______ _______ _____ _____    ______ ____
ROOT
ATOM      1  C   UNL     1      45.608   5.400  10.833  0.00  0.00    +0.000 C 
ENDROOT
BRANCH   1   2
ATOM      2  C   UNL     1      46.241   5.292  12.195  0.00  0.00    +0.000 A 
ATOM      3  C   UNL     1      46.886   6.392  12.769  0.00  0.00    +0.000 A 
ATOM      4  C   UNL     1      47.453   6.288  14.043  0.00  0.00    +0.000 A 
ATOM      5  C   UNL     1      47.392   5.083  14.759  0.00  0.00    +0.000 A 
ATOM      6  C   UNL     1      46.765   3.979  14.179  0.00  0.00    +0.000 A 
ATOM      7  C   UNL     1      46.206   4.091  12.908  0.00  0.00    +0.000 A 
ATOM      8  F   UNL     1      45.616   3.014  12.370  0.00  0.00    +0.000 F 
BRANCH   5   9
ATOM      9  C   UNL     1      48.009   5.053  16.117  0.00  0.00    +0.000 C 
ATOM     10  N   UNL     1      47.212   4.797  17.196  0.00  0.00    +0.000 N 
ATOM     11  O   UNL     1      49.207   5.256  16.279  0.00  0.00    +0.000 OA
ATOM     12  H   UNL     1      46.222   4.617  17.167  0.00  0.00    +0.000 HD
ATOM     13  H   UNL     1      47.668   4.781  18.099  0.00  0.00    +0.000 HD
ENDBRANCH   5   9
ENDBRANCH   1   2
BRANCH   1  14
ATOM     14  C   UNL     1      44.097   5.189  10.846  0.00  0.00    +0.000 C 
BRANCH  14  15
ATOM     15  O   UNL     1      43.657   4.576   9.627  0.00  0.00    +0.000 OA
BRANCH  15  19
ATOM     16  C   UNL     1      46.505   2.141   7.750  0.00  0.00    +0.000 A 
ATOM     17  C   UNL     1      46.465   3.508   7.447  0.00  0.00    +0.000 A 
ATOM     18  C   UNL     1      45.527   4.347   8.050  0.00  0.00    +0.000 A 
ATOM     19  C   UNL     1      44.604   3.837   8.962  0.00  0.00    +0.000 A 
ATOM     20  C   UNL     1      44.623   2.472   9.254  0.00  0.00    +0.000 A 
ATOM     21  C   UNL     1      45.568   1.627   8.652  0.00  0.00    +0.000 A 
BRANCH  16  22
ATOM     22  C   UNL     1      47.531   1.258   7.087  0.00  0.00    +0.000 C 
BRANCH  22  23
ATOM     23  N   UNL     1      48.233   1.966   6.020  0.00  0.00    +0.000 NA
ATOM     24  H   UNL     1      47.557   2.460   5.443  0.00  0.00    +0.000 HD
ATOM     25  H   UNL     1      48.687   1.280   5.417  0.00  0.00    +0.000 HD
ENDBRANCH  22  23
ENDBRANCH  16  22
ENDBRANCH  15  19
ENDBRANCH  14  15
ENDBRANCH   1  14
TORSDOF 7
ENDMDL
MODEL 7
REMARK VINA RESULT:    -5.929      3.782      5.161
REMARK INTER + INTRA:          -9.046
REMARK INTER:                  -8.137
REMARK INTRA:                  -0.909
REMARK UNBOUND:                -0.864
REMARK  Name = 
REMARK  7 active torsions:
REMARK  status: ('A' for Active; 'I' for Inactive)
REMARK    1  A    between atoms: N_1  and  C_2
REMARK    2  A    between atoms: C_2  and  C_3
REMARK    3  A    between atoms: C_6  and  O_7
REMARK    4  A    between atoms: O_7  and  C_8
REMARK    5  A    between atoms: C_8  and  C_9
REMARK    6  A    between atoms: C_9  and  C_10
REMARK    7  A    between atoms: C_13  and  C_14
REMARK                            x       y       z     vdW  Elec       q    Type
REMARK                         _______ _______ _______ _____ _____    ______ ____
ROOT
ATOM      1  C   UNL     1      48.152   7.405  13.190  0.00  0.00    +0.000 C 
ENDROOT
BRANCH   1   2
ATOM      2  C   UNL     1      48.018   6.398  14.301  0.00  0.00    +0.000 A 
ATOM      3  C   UNL     1      47.238   5.250  14.130  0.00  0.00    +0.000 A 
ATOM      4  C   UNL     1      47.135   4.309  15.160  0.00  0.00    +0.000 A 
ATOM      5  C   UNL     1      47.803   4.505  16.379  0.00  0.00    +0.000 A 
ATOM      6  C   UNL     1      48.567   5.660  16.558  0.00  0.00    +0.000 A 
ATOM      7  C   UNL     1      48.660   6.593  15.527  0.00  0.00    +0.000 A 
ATOM      8  F   UNL     1      49.394   7.697  15.725  0.00  0.00    +0.000 F 
BRANCH   5   9
ATOM      9  C   UNL     1      47.655   3.453  17.425  0.00  0.00    +0.000 C 
ATOM     10  N   UNL     1      48.695   3.226  18.281  0.00  0.00    +0.000 N 
ATOM     11  O   UNL     1      46.627   2.792  17.527  0.00  0.00    +0.000 OA
ATOM     12  H   UNL     1      49.575   3.714  18.281  0.00  0.00    +0.000 HD
ATOM     13  H   UNL     1      48.555   2.507  18.980  0.00  0.00    +0.000 HD
ENDBRANCH   5   9
ENDBRANCH   1   2
BRANCH   1  14
ATOM     14  C   UNL     1      46.911   8.272  13.001  0.00  0.00    +0.000 C 
BRANCH  14  15
ATOM     15  O   UNL     1      46.268   7.976  11.755  0.00  0.00    +0.000 OA
BRANCH  15  19
ATOM     16  C   UNL     1      44.065   4.422  11.471  0.00  0.00    +0.000 A 
ATOM     17  C   UNL     1      43.794   5.316  12.515  0.00  0.00    +0.000 A 
ATOM     18  C   UNL     1      44.511   6.506  12.643  0.00  0.00    +0.000 A 
ATOM     19  C   UNL     1      45.520   6.826  11.734  0.00  0.00    +0.000 A 
ATOM     20  C   UNL     1      45.810   5.931  10.702  0.00  0.00    +0.000 A 
ATOM     21  C   UNL     1      45.087   4.737  10.569  0.00  0.00    +0.000 A 
BRANCH  16  22
ATOM     22  C   UNL     1      43.272   3.146  11.354  0.00  0.00    +0.000 C 
BRANCH  22  23
ATOM     23  N   UNL     1      43.557   2.239  12.462  0.00  0.00    +0.000 NA
ATOM     24  H   UNL     1      44.301   2.631  13.035  0.00  0.00    +0.000 HD
ATOM     25  H   UNL     1      43.912   1.362  12.083  0.00  0.00    +0.000 HD
ENDBRANCH  22  23
ENDBRANCH  16  22
ENDBRANCH  15  19
ENDBRANCH  14  15
ENDBRANCH   1  14
TORSDOF 7
ENDMDL
MODEL 8
REMARK VINA RESULT:    -5.794      4.762      6.776
REMARK INTER + INTRA:          -8.860
REMARK INTER:                  -8.162
REMARK INTRA:                  -0.698
REMARK UNBOUND:                -0.864
REMARK  Name = 
REMARK  7 active torsions:
REMARK  status: ('A' for Active; 'I' for Inactive)
REMARK    1  A    between atoms: N_1  and  C_2
REMARK    2  A    between atoms: C_2  and  C_3
REMARK    3  A    between atoms: C_6  and  O_7
REMARK    4  A    between atoms: O_7  and  C_8
REMARK    5  A    between atoms: C_8  and  C_9
REMARK    6  A    between atoms: C_9  and  C_10
REMARK    7  A    between atoms: C_13  and  C_14
REMARK                            x       y       z     vdW  Elec       q    Type
REMARK                         _______ _______ _______ _____ _____    ______ ____
ROOT
ATOM      1  C   UNL     1      48.091   5.582  16.849  0.00  0.00    +0.000 C 
ENDROOT
BRANCH   1   2
ATOM      2  C   UNL     1      49.120   4.501  17.048  0.00  0.00    +0.000 A 
ATOM      3  C   UNL     1      50.443   4.827  17.361  0.00  0.00    +0.000 A 
ATOM      4  C   UNL     1      51.387   3.816  17.564  0.00  0.00    +0.000 A 
ATOM      5  C   UNL     1      51.026   2.464  17.450  0.00  0.00    +0.000 A 
ATOM      6  C   UNL     1      49.710   2.138  17.118  0.00  0.00    +0.000 A 
ATOM      7  C   UNL     1      48.778   3.153  16.915  0.00  0.00    +0.000 A 
ATOM      8  F   UNL     1      47.521   2.814  16.590  0.00  0.00    +0.000 F 
BRANCH   5   9
ATOM      9  C   UNL     1      52.086   1.443  17.693  0.00  0.00    +0.000 C 
ATOM     10  N   UNL     1      51.713   0.192  18.094  0.00  0.00    +0.000 N 
ATOM     11  O   UNL     1      53.274   1.706  17.543  0.00  0.00    +0.000 OA
ATOM     12  H   UNL     1      50.769  -0.122  18.243  0.00  0.00    +0.000 HD
ATOM     13  H   UNL     1      52.460  -0.475  18.244  0.00  0.00    +0.000 HD
ENDBRANCH   5   9
ENDBRANCH   1   2
BRANCH   1  14
ATOM     14  C   UNL     1      48.272   6.364  15.551  0.00  0.00    +0.000 C 
BRANCH  14  15
ATOM     15  O   UNL     1      48.244   5.484  14.419  0.00  0.00    +0.000 OA
BRANCH  15  19
ATOM     16  C   UNL     1      44.793   5.512  12.040  0.00  0.00    +0.000 A 
ATOM     17  C   UNL     1      45.621   6.642  12.062  0.00  0.00    +0.000 A 
ATOM     18  C   UNL     1      46.775   6.669  12.846  0.00  0.00    +0.000 A 
ATOM     19  C   UNL     1      47.123   5.570  13.632  0.00  0.00    +0.000 A 
ATOM     20  C   UNL     1      46.292   4.448  13.632  0.00  0.00    +0.000 A 
ATOM     21  C   UNL     1      45.135   4.417  12.841  0.00  0.00    +0.000 A 
BRANCH  16  22
ATOM     22  C   UNL     1      43.555   5.509  11.181  0.00  0.00    +0.000 C 
BRANCH  22  23
ATOM     23  N   UNL     1      42.499   6.331  11.766  0.00  0.00    +0.000 NA
ATOM     24  H   UNL     1      42.506   6.217  12.776  0.00  0.00    +0.000 HD
ATOM     25  H   UNL     1      41.598   5.985  11.438  0.00  0.00    +0.000 HD
ENDBRANCH  22  23
ENDBRANCH  16  22
ENDBRANCH  15  19
ENDBRANCH  14  15
ENDBRANCH   1  14
TORSDOF 7
ENDMDL
MODEL 9
REMARK VINA RESULT:    -5.791      2.357      6.271
REMARK INTER + INTRA:          -8.855
REMARK INTER:                  -7.988
REMARK INTRA:                  -0.867
REMARK UNBOUND:                -0.864
REMARK  Name = 
REMARK  7 active torsions:
REMARK  status: ('A' for Active; 'I' for Inactive)
REMARK    1  A    between atoms: N_1  and  C_2
REMARK    2  A    between atoms: C_2  and  C_3
REMARK    3  A    between atoms: C_6  and  O_7
REMARK    4  A    between atoms: O_7  and  C_8
REMARK    5  A    between atoms: C_8  and  C_9
REMARK    6  A    between atoms: C_9  and  C_10
REMARK    7  A    between atoms: C_13  and  C_14
REMARK                            x       y       z     vdW  Elec       q    Type
REMARK                         _______ _______ _______ _____ _____    ______ ____
ROOT
ATOM      1  C   UNL     1      43.912   5.784  11.828  0.00  0.00    +0.000 C 
ENDROOT
BRANCH   1   2
ATOM      2  C   UNL     1      44.488   5.000  10.678  0.00  0.00    +0.000 A 
ATOM      3  C   UNL     1      45.436   5.578   9.827  0.00  0.00    +0.000 A 
ATOM      4  C   UNL     1      45.980   4.836   8.774  0.00  0.00    +0.000 A 
ATOM      5  C   UNL     1      45.582   3.509   8.550  0.00  0.00    +0.000 A 
ATOM      6  C   UNL     1      44.622   2.938   9.387  0.00  0.00    +0.000 A 
ATOM      7  C   UNL     1      44.083   3.686  10.432  0.00  0.00    +0.000 A 
ATOM      8  F   UNL     1      43.158   3.117  11.218  0.00  0.00    +0.000 F 
BRANCH   5   9
ATOM      9  C   UNL     1      46.217   2.779   7.416  0.00  0.00    +0.000 C 
ATOM     10  N   UNL     1      46.753   1.544   7.646  0.00  0.00    +0.000 N 
ATOM     11  O   UNL     1      46.267   3.265   6.291  0.00  0.00    +0.000 OA
ATOM     12  H   UNL     1      46.760   1.061   8.529  0.00  0.00    +0.000 HD
ATOM     13  H   UNL     1      47.170   1.078   6.850  0.00  0.00    +0.000 HD
ENDBRANCH   5   9
ENDBRANCH   1   2
BRANCH   1  14
ATOM     14  C   UNL     1      44.917   6.052  12.944  0.00  0.00    +0.000 C 
BRANCH  14  15
ATOM     15  O   UNL     1      45.326   7.426  12.941  0.00  0.00    +0.000 OA
BRANCH  15  19
ATOM     16  C   UNL     1      49.274   8.320  11.853  0.00  0.00    +0.000 A 
ATOM     17  C   UNL     1      48.954   7.022  12.272  0.00  0.00    +0.000 A 
ATOM     18  C   UNL     1      47.651   6.691  12.647  0.00  0.00    +0.000 A 
ATOM     19  C   UNL     1      46.640   7.651  12.617  0.00  0.00    +0.000 A 
ATOM     20  C   UNL     1      46.954   8.953  12.220  0.00  0.00    +0.000 A 
ATOM     21  C   UNL     1      48.262   9.286  11.839  0.00  0.00    +0.000 A 
BRANCH  16  22
ATOM     22  C   UNL     1      50.688   8.649  11.451  0.00  0.00    +0.000 C 
BRANCH  22  23
ATOM     23  N   UNL     1      51.139   9.896  12.064  0.00  0.00    +0.000 NA
ATOM     24  H   UNL     1      50.358  10.544  12.122  0.00  0.00    +0.000 HD
ATOM     25  H   UNL     1      51.832  10.327  11.453  0.00  0.00    +0.000 HD
ENDBRANCH  22  23
ENDBRANCH  16  22
ENDBRANCH  15  19
ENDBRANCH  14  15
ENDBRANCH   1  14
TORSDOF 7
ENDMDL
