MODEL 1
REMARK VINA RESULT:    -7.940      0.000      0.000
REMARK INTER + INTRA:          -9.837
REMARK INTER:                  -9.565
REMARK INTRA:                  -0.272
REMARK UNBOUND:                -0.272
REMARK  Name = 
REMARK  4 active torsions:
REMARK  status: ('A' for Active; 'I' for Inactive)
REMARK    1  A    between atoms: N_1  and  C_2
REMARK    2  A    between atoms: C_2  and  C_3
REMARK    3  A    between atoms: C_6  and  C_7
REMARK    4  A    between atoms: C_7  and  N_8
REMARK                            x       y       z     vdW  Elec       q    Type
REMARK                         _______ _______ _______ _____ _____    ______ ____
ROOT
ATOM      1  C   UNL     1      46.628   2.752   6.836  0.00  0.00    +0.000 A 
ATOM      2  C   UNL     1      46.419   1.579   7.572  0.00  0.00    +0.000 A 
ATOM      3  C   UNL     1      45.610   1.579   8.705  0.00  0.00    +0.000 A 
ATOM      4  C   UNL     1      44.991   2.763   9.143  0.00  0.00    +0.000 A 
ATOM      5  C   UNL     1      45.216   3.940   8.422  0.00  0.00    +0.000 A 
ATOM      6  C   UNL     1      46.017   3.937   7.279  0.00  0.00    +0.000 A 
ENDROOT
BRANCH   1   7
ATOM      7  C   UNL     1      47.502   2.751   5.608  0.00  0.00    +0.000 C 
BRANCH   7   8
ATOM      8  N   UNL     1      48.566   1.757   5.699  0.00  0.00    +0.000 NA
ATOM      9  H   UNL     1      49.465   2.234   5.710  0.00  0.00    +0.000 HD
ATOM     10  H   UNL     1      48.553   1.185   4.855  0.00  0.00    +0.000 HD
ENDBRANCH   7   8
ENDBRANCH   1   7
BRANCH   4  11
ATOM     11  C   UNL     1      44.042   2.746  10.309  0.00  0.00    +0.000 C 
BRANCH  11  12
ATOM     12  N   UNL     1      44.061   3.929  11.158  0.00  0.00    +0.000 N 
ATOM     13  C   UNL     1      43.437   5.117  10.893  0.00  0.00    +0.000 A 
ATOM     14  N   UNL     1      44.012   6.121  11.517  0.00  0.00    +0.000 NA
ATOM     15  C   UNL     1      45.027   5.558  12.248  0.00  0.00    +0.000 A 
ATOM     16  C   UNL     1      46.018   6.173  13.027  0.00  0.00    +0.000 A 
ATOM     17  C   UNL     1      46.955   5.368  13.689  0.00  0.00    +0.000 A 
ATOM     18  C   UNL     1      46.883   3.977  13.607  0.00  0.00    +0.000 A 
ATOM     19  C   UNL     1      45.914   3.345  12.818  0.00  0.00    +0.000 A 
ATOM     20  C   UNL     1      45.021   4.171  12.122  0.00  0.00    +0.000 A 
ENDBRANCH  11  12
ENDBRANCH   4  11
TORSDOF 4
ENDMDL
MODEL 2
REMARK VINA RESULT:    -7.048      1.995      5.796
REMARK INTER + INTRA:          -8.762
REMARK INTER:                  -8.308
REMARK INTRA:                  -0.454
REMARK UNBOUND:                -0.272
REMARK  Name = 
REMARK  4 active torsions:
REMARK  status: ('A' for Active; 'I' for Inactive)
REMARK    1  A    between atoms: N_1  and  C_2
REMARK    2  A    between atoms: C_2  and  C_3
REMARK    3  A    between atoms: C_6  and  C_7
REMARK    4  A    between atoms: C_7  and  N_8
REMARK                            x       y       z     vdW  Elec       q    Type
REMARK                         _______ _______ _______ _____ _____    ______ ____
ROOT
ATOM      1  C   UNL     1      46.717   5.577  12.734  0.00  0.00    +0.000 A 
ATOM      2  C   UNL     1      45.912   4.435  12.827  0.00  0.00    +0.000 A 
ATOM      3  C   UNL     1      45.079   4.058  11.776  0.00  0.00    +0.000 A 
ATOM      4  C   UNL     1      45.019   4.826  10.600  0.00  0.00    +0.000 A 
ATOM      5  C   UNL     1      45.805   5.980  10.515  0.00  0.00    +0.000 A 
ATOM      6  C   UNL     1      46.650   6.349  11.563  0.00  0.00    +0.000 A 
ENDROOT
BRANCH   1   7
ATOM      7  C   UNL     1      47.620   5.982  13.872  0.00  0.00    +0.000 C 
BRANCH   7   8
ATOM      8  N   UNL     1      48.981   6.243  13.419  0.00  0.00    +0.000 NA
ATOM      9  H   UNL     1      49.577   6.395  14.230  0.00  0.00    +0.000 HD
ATOM     10  H   UNL     1      48.989   7.113  12.889  0.00  0.00    +0.000 HD
ENDBRANCH   7   8
ENDBRANCH   1   7
BRANCH   4  11
ATOM     11  C   UNL     1      44.194   4.371   9.428  0.00  0.00    +0.000 C 
BRANCH  11  12
ATOM     12  N   UNL     1      44.602   3.116   8.814  0.00  0.00    +0.000 N 
ATOM     13  C   UNL     1      44.291   1.863   9.267  0.00  0.00    +0.000 A 
ATOM     14  N   UNL     1      45.165   0.968   8.866  0.00  0.00    +0.000 NA
ATOM     15  C   UNL     1      46.059   1.659   8.088  0.00  0.00    +0.000 A 
ATOM     16  C   UNL     1      47.245   1.220   7.480  0.00  0.00    +0.000 A 
ATOM     17  C   UNL     1      47.993   2.131   6.722  0.00  0.00    +0.000 A 
ATOM     18  C   UNL     1      47.550   3.441   6.543  0.00  0.00    +0.000 A 
ATOM     19  C   UNL     1      46.380   3.904   7.157  0.00  0.00    +0.000 A 
ATOM     20  C   UNL     1      45.676   2.992   7.955  0.00  0.00    +0.000 A 
ENDBRANCH  11  12
ENDBRANCH   4  11
TORSDOF 4
ENDMDL
MODEL 3
REMARK VINA RESULT:    -6.751      2.188      5.715
REMARK INTER + INTRA:          -8.404
REMARK INTER:                  -7.888
REMARK INTRA:                  -0.517
REMARK UNBOUND:                -0.272
REMARK  Name = 
REMARK  4 active torsions:
REMARK  status: ('A' for Active; 'I' for Inactive)
REMARK    1  A    between atoms: N_1  and  C_2
REMARK    2  A    between atoms: C_2  and  C_3
REMARK    3  A    between atoms: C_6  and  C_7
REMARK    4  A    between atoms: C_7  and  N_8
REMARK                            x       y       z     vdW  Elec       q    Type
REMARK                         _______ _______ _______ _____ _____    ______ ____
ROOT
ATOM      1  C   UNL     1      47.745   6.842  13.132  0.00  0.00    +0.000 A 
ATOM      2  C   UNL     1      47.178   7.674  12.158  0.00  0.00    +0.000 A 
ATOM      3  C   UNL     1      45.939   7.378  11.596  0.00  0.00    +0.000 A 
ATOM      4  C   UNL     1      45.232   6.228  11.988  0.00  0.00    +0.000 A 
ATOM      5  C   UNL     1      45.806   5.384  12.943  0.00  0.00    +0.000 A 
ATOM      6  C   UNL     1      47.043   5.687  13.516  0.00  0.00    +0.000 A 
ENDROOT
BRANCH   1   7
ATOM      7  C   UNL     1      49.086   7.165  13.741  0.00  0.00    +0.000 C 
BRANCH   7   8
ATOM      8  N   UNL     1      50.161   7.094  12.759  0.00  0.00    +0.000 NA
ATOM      9  H   UNL     1      50.579   8.017  12.659  0.00  0.00    +0.000 HD
ATOM     10  H   UNL     1      49.762   6.858  11.852  0.00  0.00    +0.000 HD
ENDBRANCH   7   8
ENDBRANCH   1   7
BRANCH   4  11
ATOM     11  C   UNL     1      43.853   5.956  11.453  0.00  0.00    +0.000 C 
BRANCH  11  12
ATOM     12  N   UNL     1      43.648   4.638  10.870  0.00  0.00    +0.000 N 
ATOM     13  C   UNL     1      43.047   3.574  11.486  0.00  0.00    +0.000 A 
ATOM     14  N   UNL     1      43.439   2.429  10.973  0.00  0.00    +0.000 NA
ATOM     15  C   UNL     1      44.299   2.763   9.958  0.00  0.00    +0.000 A 
ATOM     16  C   UNL     1      45.080   1.936   9.137  0.00  0.00    +0.000 A 
ATOM     17  C   UNL     1      45.887   2.526   8.155  0.00  0.00    +0.000 A 
ATOM     18  C   UNL     1      45.888   3.909   7.971  0.00  0.00    +0.000 A 
ATOM     19  C   UNL     1      45.131   4.753   8.793  0.00  0.00    +0.000 A 
ATOM     20  C   UNL     1      44.373   4.145   9.804  0.00  0.00    +0.000 A 
ENDBRANCH  11  12
ENDBRANCH   4  11
TORSDOF 4
ENDMDL
MODEL 4
REMARK VINA RESULT:    -5.949      1.575      2.477
REMARK INTER + INTRA:          -7.439
REMARK INTER:                  -7.125
REMARK INTRA:                  -0.313
REMARK UNBOUND:                -0.272
REMARK  Name = 
REMARK  4 active torsions:
REMARK  status: ('A' for Active; 'I' for Inactive)
REMARK    1  A    between atoms: N_1  and  C_2
REMARK    2  A    between atoms: C_2  and  C_3
REMARK    3  A    between atoms: C_6  and  C_7
REMARK    4  A    between atoms: C_7  and  N_8
REMARK                            x       y       z     vdW  Elec       q    Type
REMARK                         _______ _______ _______ _____ _____    ______ ____
ROOT
ATOM      1  C   UNL     1      45.881   2.933   7.655  0.00  0.00    +0.000 A 
ATOM      2  C   UNL     1      45.910   4.271   8.066  0.00  0.00    +0.000 A 
ATOM      3  C   UNL     1      45.456   4.644   9.328  0.00  0.00    +0.000 A 
ATOM      4  C   UNL     1      44.944   3.682  10.217  0.00  0.00    +0.000 A 
ATOM      5  C   UNL     1      44.892   2.348   9.800  0.00  0.00    +0.000 A 
ATOM      6  C   UNL     1      45.361   1.973   8.539  0.00  0.00    +0.000 A 
ENDROOT
BRANCH   1   7
ATOM      7  C   UNL     1      46.376   2.531   6.289  0.00  0.00    +0.000 C 
BRANCH   7   8
ATOM      8  N   UNL     1      47.118   3.606   5.641  0.00  0.00    +0.000 NA
ATOM      9  H   UNL     1      46.825   4.496   6.037  0.00  0.00    +0.000 HD
ATOM     10  H   UNL     1      46.865   3.632   4.655  0.00  0.00    +0.000 HD
ENDBRANCH   7   8
ENDBRANCH   1   7
BRANCH   4  11
ATOM     11  C   UNL     1      44.541   4.065  11.614  0.00  0.00    +0.000 C 
BRANCH  11  12
ATOM     12  N   UNL     1      44.097   5.441  11.790  0.00  0.00    +0.000 N 
ATOM     13  C   UNL     1      42.946   5.983  11.284  0.00  0.00    +0.000 A 
ATOM     14  N   UNL     1      43.040   7.287  11.148  0.00  0.00    +0.000 NA
ATOM     15  C   UNL     1      44.287   7.611  11.619  0.00  0.00    +0.000 A 
ATOM     16  C   UNL     1      44.949   8.847  11.626  0.00  0.00    +0.000 A 
ATOM     17  C   UNL     1      46.236   8.923  12.175  0.00  0.00    +0.000 A 
ATOM     18  C   UNL     1      46.836   7.797  12.739  0.00  0.00    +0.000 A 
ATOM     19  C   UNL     1      46.201   6.549  12.724  0.00  0.00    +0.000 A 
ATOM     20  C   UNL     1      44.936   6.486  12.121  0.00  0.00    +0.000 A 
ENDBRANCH  11  12
ENDBRANCH   4  11
TORSDOF 4
ENDMDL
MODEL 5
REMARK VINA RESULT:    -5.675      2.503      3.886
REMARK INTER + INTRA:          -7.108
REMARK INTER:                  -6.685
REMARK INTRA:                  -0.423
REMARK UNBOUND:                -0.272
REMARK  Name = 
REMARK  4 active torsions:
REMARK  status: ('A' for Active; 'I' for Inactive)
REMARK    1  A    between atoms: N_1  and  C_2
REMARK    2  A    between atoms: C_2  and  C_3
REMARK    3  A    between atoms: C_6  and  C_7
REMARK    4  A    between atoms: C_7  and  N_8
REMARK                            x       y       z     vdW  Elec       q    Type
REMARK                         _______ _______ _______ _____ _____    ______ ____
ROOT
ATOM      1  C   UNL     1      45.096   3.819   9.055  0.00  0.00    +0.000 A 
ATOM      2  C   UNL     1      44.791   2.990  10.142  0.00  0.00    +0.000 A 
ATOM      3  C   UNL     1      44.893   3.456  11.450  0.00  0.00    +0.000 A 
ATOM      4  C   UNL     1      45.318   4.772  11.709  0.00  0.00    +0.000 A 
ATOM      5  C   UNL     1      45.645   5.593  10.625  0.00  0.00    +0.000 A 
ATOM      6  C   UNL     1      45.529   5.129   9.314  0.00  0.00    +0.000 A 
ENDROOT
BRANCH   1   7
ATOM      7  C   UNL     1      44.982   3.312   7.639  0.00  0.00    +0.000 C 
BRANCH   7   8
ATOM      8  N   UNL     1      46.289   3.044   7.050  0.00  0.00    +0.000 NA
ATOM      9  H   UNL     1      46.397   2.039   6.929  0.00  0.00    +0.000 HD
ATOM     10  H   UNL     1      47.010   3.334   7.707  0.00  0.00    +0.000 HD
ENDBRANCH   7   8
ENDBRANCH   1   7
BRANCH   4  11
ATOM     11  C   UNL     1      45.339   5.308  13.113  0.00  0.00    +0.000 C 
BRANCH  11  12
ATOM     12  N   UNL     1      46.622   5.240  13.798  0.00  0.00    +0.000 N 
ATOM     13  C   UNL     1      46.927   4.419  14.849  0.00  0.00    +0.000 A 
ATOM     14  N   UNL     1      47.913   4.900  15.574  0.00  0.00    +0.000 NA
ATOM     15  C   UNL     1      48.289   6.061  14.948  0.00  0.00    +0.000 A 
ATOM     16  C   UNL     1      49.229   7.026  15.338  0.00  0.00    +0.000 A 
ATOM     17  C   UNL     1      49.439   8.139  14.513  0.00  0.00    +0.000 A 
ATOM     18  C   UNL     1      48.753   8.269  13.305  0.00  0.00    +0.000 A 
ATOM     19  C   UNL     1      47.797   7.327  12.907  0.00  0.00    +0.000 A 
ATOM     20  C   UNL     1      47.563   6.250  13.774  0.00  0.00    +0.000 A 
ENDBRANCH  11  12
ENDBRANCH   4  11
TORSDOF 4
ENDMDL
MODEL 6
REMARK VINA RESULT:    -5.670      3.187      4.817
REMARK INTER + INTRA:          -7.102
REMARK INTER:                  -6.636
REMARK INTRA:                  -0.466
REMARK UNBOUND:                -0.272
REMARK  Name = 
REMARK  4 active torsions:
REMARK  status: ('A' for Active; 'I' for Inactive)
REMARK    1  A    between atoms: N_1  and  C_2
REMARK    2  A    between atoms: C_2  and  C_3
REMARK    3  A    between atoms: C_6  and  C_7
REMARK    4  A    between atoms: C_7  and  N_8
REMARK                            x       y       z     vdW  Elec       q    Type
REMARK                         _______ _______ _______ _____ _____    ______ ____
ROOT
ATOM      1  C   UNL     1      44.963   3.699   9.888  0.00  0.00    +0.000 A 
ATOM      2  C   UNL     1      44.915   3.370  11.248  0.00  0.00    +0.000 A 
ATOM      3  C   UNL     1      45.335   4.276  12.220  0.00  0.00    +0.000 A 
ATOM      4  C   UNL     1      45.829   5.540  11.853  0.00  0.00    +0.000 A 
ATOM      5  C   UNL     1      45.899   5.861  10.494  0.00  0.00    +0.000 A 
ATOM      6  C   UNL     1      45.465   4.959   9.521  0.00  0.00    +0.000 A 
ENDROOT
BRANCH   1   7
ATOM      7  C   UNL     1      44.504   2.719   8.838  0.00  0.00    +0.000 C 
BRANCH   7   8
ATOM      8  N   UNL     1      45.073   1.392   9.047  0.00  0.00    +0.000 NA
ATOM      9  H   UNL     1      46.025   1.380   8.688  0.00  0.00    +0.000 HD
ATOM     10  H   UNL     1      44.547   0.719   8.493  0.00  0.00    +0.000 HD
ENDBRANCH   7   8
ENDBRANCH   1   7
BRANCH   4  11
ATOM     11  C   UNL     1      46.194   6.554  12.902  0.00  0.00    +0.000 C 
BRANCH  11  12
ATOM     12  N   UNL     1      47.563   6.493  13.392  0.00  0.00    +0.000 N 
ATOM     13  C   UNL     1      47.955   6.045  14.625  0.00  0.00    +0.000 A 
ATOM     14  N   UNL     1      49.110   6.557  14.986  0.00  0.00    +0.000 NA
ATOM     15  C   UNL     1      49.505   7.340  13.931  0.00  0.00    +0.000 A 
ATOM     16  C   UNL     1      50.614   8.189  13.811  0.00  0.00    +0.000 A 
ATOM     17  C   UNL     1      50.804   8.889  12.612  0.00  0.00    +0.000 A 
ATOM     18  C   UNL     1      49.927   8.717  11.540  0.00  0.00    +0.000 A 
ATOM     19  C   UNL     1      48.803   7.889  11.647  0.00  0.00    +0.000 A 
ATOM     20  C   UNL     1      48.603   7.241  12.874  0.00  0.00    +0.000 A 
ENDBRANCH  11  12
ENDBRANCH   4  11
TORSDOF 4
ENDMDL
MODEL 7
REMARK VINA RESULT:    -5.495      2.762      6.285
REMARK INTER + INTRA:          -6.891
REMARK INTER:                  -6.411
REMARK INTRA:                  -0.479
REMARK UNBOUND:                -0.272
REMARK  Name = 
REMARK  4 active torsions:
REMARK  status: ('A' for Active; 'I' for Inactive)
REMARK    1  A    between atoms: N_1  and  C_2
REMARK    2  A    between atoms: C_2  and  C_3
REMARK    3  A    between atoms: C_6  and  C_7
REMARK    4  A    between atoms: C_7  and  N_8
REMARK                            x       y       z     vdW  Elec       q    Type
REMARK                         _______ _______ _______ _____ _____    ______ ____
ROOT
ATOM      1  C   UNL     1      48.670   7.936  13.665  0.00  0.00    +0.000 A 
ATOM      2  C   UNL     1      47.526   8.693  13.949  0.00  0.00    +0.000 A 
ATOM      3  C   UNL     1      46.342   8.494  13.243  0.00  0.00    +0.000 A 
ATOM      4  C   UNL     1      46.273   7.534  12.218  0.00  0.00    +0.000 A 
ATOM      5  C   UNL     1      47.420   6.794  11.918  0.00  0.00    +0.000 A 
ATOM      6  C   UNL     1      48.603   6.983  12.635  0.00  0.00    +0.000 A 
ENDROOT
BRANCH   1   7
ATOM      7  C   UNL     1      49.950   8.150  14.432  0.00  0.00    +0.000 C 
BRANCH   7   8
ATOM      8  N   UNL     1      50.451   6.909  15.013  0.00  0.00    +0.000 NA
ATOM      9  H   UNL     1      51.209   7.127  15.655  0.00  0.00    +0.000 HD
ATOM     10  H   UNL     1      50.854   6.340  14.271  0.00  0.00    +0.000 HD
ENDBRANCH   7   8
ENDBRANCH   1   7
BRANCH   4  11
ATOM     11  C   UNL     1      44.972   7.252  11.519  0.00  0.00    +0.000 C 
BRANCH  11  12
ATOM     12  N   UNL     1      44.429   5.914  11.706  0.00  0.00    +0.000 N 
ATOM     13  C   UNL     1      44.153   5.322  12.909  0.00  0.00    +0.000 A 
ATOM     14  N   UNL     1      44.172   4.010  12.823  0.00  0.00    +0.000 NA
ATOM     15  C   UNL     1      44.433   3.738  11.504  0.00  0.00    +0.000 A 
ATOM     16  C   UNL     1      44.655   2.507  10.871  0.00  0.00    +0.000 A 
ATOM     17  C   UNL     1      44.902   2.491   9.491  0.00  0.00    +0.000 A 
ATOM     18  C   UNL     1      44.891   3.674   8.752  0.00  0.00    +0.000 A 
ATOM     19  C   UNL     1      44.692   4.915   9.369  0.00  0.00    +0.000 A 
ATOM     20  C   UNL     1      44.501   4.912  10.758  0.00  0.00    +0.000 A 
ENDBRANCH  11  12
ENDBRANCH   4  11
TORSDOF 4
ENDMDL
MODEL 8
REMARK VINA RESULT:    -5.331      4.453      6.430
REMARK INTER + INTRA:          -6.693
REMARK INTER:                  -6.303
REMARK INTRA:                  -0.390
REMARK UNBOUND:                -0.272
REMARK  Name = 
REMARK  4 active torsions:
REMARK  status: ('A' for Active; 'I' for Inactive)
REMARK    1  A    between atoms: N_1  and  C_2
REMARK    2  A    between atoms: C_2  and  C_3
REMARK    3  A    between atoms: C_6  and  C_7
REMARK    4  A    between atoms: C_7  and  N_8
REMARK                            x       y       z     vdW  Elec       q    Type
REMARK                         _______ _______ _______ _____ _____    ______ ____
ROOT
ATOM      1  C   UNL     1      44.156   5.588  12.407  0.00  0.00    +0.000 A 
ATOM      2  C   UNL     1      44.832   4.427  12.804  0.00  0.00    +0.000 A 
ATOM      3  C   UNL     1      46.139   4.487  13.282  0.00  0.00    +0.000 A 
ATOM      4  C   UNL     1      46.814   5.717  13.365  0.00  0.00    +0.000 A 
ATOM      5  C   UNL     1      46.149   6.874  12.947  0.00  0.00    +0.000 A 
ATOM      6  C   UNL     1      44.834   6.815  12.482  0.00  0.00    +0.000 A 
ENDROOT
BRANCH   1   7
ATOM      7  C   UNL     1      42.740   5.521  11.893  0.00  0.00    +0.000 C 
BRANCH   7   8
ATOM      8  N   UNL     1      42.379   6.714  11.136  0.00  0.00    +0.000 NA
ATOM      9  H   UNL     1      41.371   6.730  11.003  0.00  0.00    +0.000 HD
ATOM     10  H   UNL     1      42.793   6.650  10.207  0.00  0.00    +0.000 HD
ENDBRANCH   7   8
ENDBRANCH   1   7
BRANCH   4  11
ATOM     11  C   UNL     1      48.190   5.797  13.967  0.00  0.00    +0.000 C 
BRANCH  11  12
ATOM     12  N   UNL     1      48.240   6.057  15.399  0.00  0.00    +0.000 N 
ATOM     13  C   UNL     1      48.801   7.154  15.995  0.00  0.00    +0.000 A 
ATOM     14  N   UNL     1      49.161   6.905  17.235  0.00  0.00    +0.000 NA
ATOM     15  C   UNL     1      48.784   5.606  17.467  0.00  0.00    +0.000 A 
ATOM     16  C   UNL     1      49.005   4.795  18.589  0.00  0.00    +0.000 A 
ATOM     17  C   UNL     1      48.510   3.484  18.586  0.00  0.00    +0.000 A 
ATOM     18  C   UNL     1      47.777   3.003  17.500  0.00  0.00    +0.000 A 
ATOM     19  C   UNL     1      47.563   3.790  16.362  0.00  0.00    +0.000 A 
ATOM     20  C   UNL     1      48.113   5.079  16.365  0.00  0.00    +0.000 A 
ENDBRANCH  11  12
ENDBRANCH   4  11
TORSDOF 4
ENDMDL
MODEL 9
REMARK VINA RESULT:    -5.293      3.401      5.368
REMARK INTER + INTRA:          -6.648
REMARK INTER:                  -6.359
REMARK INTRA:                  -0.288
REMARK UNBOUND:                -0.272
REMARK  Name = 
REMARK  4 active torsions:
REMARK  status: ('A' for Active; 'I' for Inactive)
REMARK    1  A    between atoms: N_1  and  C_2
REMARK    2  A    between atoms: C_2  and  C_3
REMARK    3  A    between atoms: C_6  and  C_7
REMARK    4  A    between atoms: C_7  and  N_8
REMARK                            x       y       z     vdW  Elec       q    Type
REMARK                         _______ _______ _______ _____ _____    ______ ____
ROOT
ATOM      1  C   UNL     1      44.891   4.015  10.707  0.00  0.00    +0.000 A 
ATOM      2  C   UNL     1      45.355   5.221  10.167  0.00  0.00    +0.000 A 
ATOM      3  C   UNL     1      46.050   6.137  10.952  0.00  0.00    +0.000 A 
ATOM      4  C   UNL     1      46.292   5.875  12.312  0.00  0.00    +0.000 A 
ATOM      5  C   UNL     1      45.809   4.682  12.859  0.00  0.00    +0.000 A 
ATOM      6  C   UNL     1      45.124   3.758  12.068  0.00  0.00    +0.000 A 
ENDROOT
BRANCH   1   7
ATOM      7  C   UNL     1      44.140   3.023   9.855  0.00  0.00    +0.000 C 
BRANCH   7   8
ATOM      8  N   UNL     1      44.987   1.910   9.442  0.00  0.00    +0.000 NA
ATOM      9  H   UNL     1      44.524   1.401   8.692  0.00  0.00    +0.000 HD
ATOM     10  H   UNL     1      45.076   1.259  10.221  0.00  0.00    +0.000 HD
ENDBRANCH   7   8
ENDBRANCH   1   7
BRANCH   4  11
ATOM     11  C   UNL     1      47.123   6.818  13.138  0.00  0.00    +0.000 C 
BRANCH  11  12
ATOM     12  N   UNL     1      46.829   8.234  12.972  0.00  0.00    +0.000 N 
ATOM     13  C   UNL     1      45.584   8.800  12.982  0.00  0.00    +0.000 A 
ATOM     14  N   UNL     1      45.560   9.939  12.325  0.00  0.00    +0.000 NA
ATOM     15  C   UNL     1      46.850  10.140  11.904  0.00  0.00    +0.000 A 
ATOM     16  C   UNL     1      47.378  11.148  11.084  0.00  0.00    +0.000 A 
ATOM     17  C   UNL     1      48.750  11.137  10.797  0.00  0.00    +0.000 A 
ATOM     18  C   UNL     1      49.584  10.163  11.346  0.00  0.00    +0.000 A 
ATOM     19  C   UNL     1      49.073   9.137  12.150  0.00  0.00    +0.000 A 
ATOM     20  C   UNL     1      47.690   9.136  12.380  0.00  0.00    +0.000 A 
ENDBRANCH  11  12
ENDBRANCH   4  11
TORSDOF 4
ENDMDL
