MODEL 1
REMARK VINA RESULT:    -7.331      0.000      0.000
REMARK INTER + INTRA:         -11.378
REMARK INTER:                 -10.331
REMARK INTRA:                  -1.047
REMARK UNBOUND:                -1.047
REMARK  Name = 
REMARK  10 active torsions:
REMARK  status: ('A' for Active; 'I' for Inactive)
REMARK    1  A    between atoms: C_1  and  O_2
REMARK    2  A    between atoms: O_2  and  C_3
REMARK    3  A    between atoms: C_5  and  N_6
REMARK    4  A    between atoms: N_6  and  C_7
REMARK    5  A    between atoms: C_7  and  C_8
REMARK    6  A    between atoms: C_8  and  C_9
REMARK    7  A    between atoms: C_8  and  C_10
REMARK    8  A    between atoms: C_8  and  C_11
REMARK    9  A    between atoms: C_15  and  C_16
REMARK   10  A    between atoms: C_24  and  C_25
REMARK                            x       y       z     vdW  Elec       q    Type
REMARK                         _______ _______ _______ _____ _____    ______ ____
ROOT
ATOM      1  C   UNL     1      45.575   6.341  13.166  0.00  0.00    +0.000 C 
ENDROOT
BRANCH   1   2
ATOM      2  C   UNL     1      45.267   6.345  11.624  0.00  0.00    +0.000 C 
ATOM      3  C   UNL     1      44.138   7.340  11.274  0.00  0.00    +0.000 C 
ATOM      4  C   UNL     1      46.560   6.903  10.961  0.00  0.00    +0.000 C 
BRANCH   2   5
ATOM      5  C   UNL     1      44.890   4.952  11.062  0.00  0.00    +0.000 A 
ATOM      6  C   UNL     1      43.782   4.228  11.531  0.00  0.00    +0.000 A 
ATOM      7  C   UNL     1      43.424   2.990  11.007  0.00  0.00    +0.000 A 
ATOM      8  C   UNL     1      44.157   2.448   9.963  0.00  0.00    +0.000 A 
ATOM      9  C   UNL     1      45.236   3.147   9.402  0.00  0.00    +0.000 A 
ATOM     10  C   UNL     1      45.594   4.383   9.982  0.00  0.00    +0.000 A 
BRANCH   9  11
ATOM     11  C   UNL     1      45.923   2.628   8.205  0.00  0.00    +0.000 A 
ATOM     12  C   UNL     1      46.200   3.476   7.121  0.00  0.00    +0.000 A 
ATOM     13  C   UNL     1      46.875   2.979   6.020  0.00  0.00    +0.000 A 
ATOM     14  N   UNL     1      47.303   1.707   5.919  0.00  0.00    +0.000 NA
ATOM     15  C   UNL     1      47.037   0.897   6.967  0.00  0.00    +0.000 A 
ATOM     16  C   UNL     1      46.358   1.302   8.105  0.00  0.00    +0.000 A 
ENDBRANCH   9  11
ENDBRANCH   2   5
ENDBRANCH   1   2
BRANCH   1  17
ATOM     17  N   UNL     1      46.330   5.170  13.632  0.00  0.00    +0.000 N 
ATOM     18  H   UNL     1      46.740   4.634  12.866  0.00  0.00    +0.000 HD
BRANCH  17  21
ATOM     19  C   UNL     1      48.937   6.343  15.999  0.00  0.00    +0.000 A 
ATOM     20  C   UNL     1      48.060   6.321  14.915  0.00  0.00    +0.000 A 
ATOM     21  C   UNL     1      47.202   5.246  14.715  0.00  0.00    +0.000 A 
ATOM     22  C   UNL     1      47.278   4.146  15.575  0.00  0.00    +0.000 A 
ATOM     23  C   UNL     1      48.142   4.150  16.680  0.00  0.00    +0.000 A 
ATOM     24  C   UNL     1      48.965   5.266  16.884  0.00  0.00    +0.000 A 
BRANCH  23  25
ATOM     25  C   UNL     1      48.192   2.986  17.638  0.00  0.00    +0.000 C 
ATOM     26  F   UNL     1      46.982   2.407  17.861  0.00  0.00    +0.000 F 
ATOM     27  F   UNL     1      49.005   1.985  17.194  0.00  0.00    +0.000 F 
ATOM     28  F   UNL     1      48.669   3.337  18.863  0.00  0.00    +0.000 F 
ENDBRANCH  23  25
BRANCH  19  30
ATOM     29  C   UNL     1      50.873   7.551  15.349  0.00  0.00    +0.000 C 
ATOM     30  O   UNL     1      49.810   7.361  16.278  0.00  0.00    +0.000 OA
ENDBRANCH  19  30
ENDBRANCH  17  21
ENDBRANCH   1  17
TORSDOF 7
ENDMDL
MODEL 2
REMARK VINA RESULT:    -7.132      4.356      8.493
REMARK INTER + INTRA:         -11.098
REMARK INTER:                  -9.723
REMARK INTRA:                  -1.375
REMARK UNBOUND:                -1.047
REMARK  Name = 
REMARK  10 active torsions:
REMARK  status: ('A' for Active; 'I' for Inactive)
REMARK    1  A    between atoms: C_1  and  O_2
REMARK    2  A    between atoms: O_2  and  C_3
REMARK    3  A    between atoms: C_5  and  N_6
REMARK    4  A    between atoms: N_6  and  C_7
REMARK    5  A    between atoms: C_7  and  C_8
REMARK    6  A    between atoms: C_8  and  C_9
REMARK    7  A    between atoms: C_8  and  C_10
REMARK    8  A    between atoms: C_8  and  C_11
REMARK    9  A    between atoms: C_15  and  C_16
REMARK   10  A    between atoms: C_24  and  C_25
REMARK                            x       y       z     vdW  Elec       q    Type
REMARK                         _______ _______ _______ _____ _____    ______ ____
ROOT
ATOM      1  C   UNL     1      45.361   7.021  11.645  0.00  0.00    +0.000 C 
ENDROOT
BRANCH   1   2
ATOM      2  C   UNL     1      46.688   7.176  12.474  0.00  0.00    +0.000 C 
ATOM      3  C   UNL     1      47.920   7.313  11.552  0.00  0.00    +0.000 C 
ATOM      4  C   UNL     1      46.541   8.541  13.209  0.00  0.00    +0.000 C 
BRANCH   2   5
ATOM      5  C   UNL     1      46.941   6.015  13.468  0.00  0.00    +0.000 A 
ATOM      6  C   UNL     1      46.569   4.691  13.186  0.00  0.00    +0.000 A 
ATOM      7  C   UNL     1      46.821   3.642  14.064  0.00  0.00    +0.000 A 
ATOM      8  C   UNL     1      47.489   3.886  15.253  0.00  0.00    +0.000 A 
ATOM      9  C   UNL     1      47.948   5.174  15.569  0.00  0.00    +0.000 A 
ATOM     10  C   UNL     1      47.643   6.221  14.672  0.00  0.00    +0.000 A 
BRANCH   9  11
ATOM     11  C   UNL     1      48.777   5.401  16.767  0.00  0.00    +0.000 A 
ATOM     12  C   UNL     1      49.187   6.699  17.112  0.00  0.00    +0.000 A 
ATOM     13  C   UNL     1      49.937   6.895  18.259  0.00  0.00    +0.000 A 
ATOM     14  N   UNL     1      50.302   5.902  19.091  0.00  0.00    +0.000 NA
ATOM     15  C   UNL     1      49.902   4.657  18.754  0.00  0.00    +0.000 A 
ATOM     16  C   UNL     1      49.159   4.362  17.622  0.00  0.00    +0.000 A 
ENDBRANCH   9  11
ENDBRANCH   2   5
ENDBRANCH   1   2
BRANCH   1  17
ATOM     17  N   UNL     1      45.559   6.556  10.265  0.00  0.00    +0.000 N 
ATOM     18  H   UNL     1      46.439   6.878   9.861  0.00  0.00    +0.000 HD
BRANCH  17  21
ATOM     19  C   UNL     1      44.183   3.109  10.201  0.00  0.00    +0.000 A 
ATOM     20  C   UNL     1      44.407   4.428  10.595  0.00  0.00    +0.000 A 
ATOM     21  C   UNL     1      45.286   5.243   9.891  0.00  0.00    +0.000 A 
ATOM     22  C   UNL     1      46.004   4.702   8.820  0.00  0.00    +0.000 A 
ATOM     23  C   UNL     1      45.788   3.383   8.396  0.00  0.00    +0.000 A 
ATOM     24  C   UNL     1      44.863   2.596   9.096  0.00  0.00    +0.000 A 
BRANCH  23  25
ATOM     25  C   UNL     1      46.525   2.812   7.211  0.00  0.00    +0.000 C 
ATOM     26  F   UNL     1      47.801   3.268   7.087  0.00  0.00    +0.000 F 
ATOM     27  F   UNL     1      46.623   1.452   7.268  0.00  0.00    +0.000 F 
ATOM     28  F   UNL     1      45.912   3.092   6.028  0.00  0.00    +0.000 F 
ENDBRANCH  23  25
BRANCH  19  30
ATOM     29  C   UNL     1      43.321   2.286  12.252  0.00  0.00    +0.000 C 
ATOM     30  O   UNL     1      43.332   2.239  10.828  0.00  0.00    +0.000 OA
ENDBRANCH  19  30
ENDBRANCH  17  21
ENDBRANCH   1  17
TORSDOF 7
ENDMDL
MODEL 3
REMARK VINA RESULT:    -7.073      1.932      3.436
REMARK INTER + INTRA:         -11.014
REMARK INTER:                  -9.701
REMARK INTRA:                  -1.313
REMARK UNBOUND:                -1.047
REMARK  Name = 
REMARK  10 active torsions:
REMARK  status: ('A' for Active; 'I' for Inactive)
REMARK    1  A    between atoms: C_1  and  O_2
REMARK    2  A    between atoms: O_2  and  C_3
REMARK    3  A    between atoms: C_5  and  N_6
REMARK    4  A    between atoms: N_6  and  C_7
REMARK    5  A    between atoms: C_7  and  C_8
REMARK    6  A    between atoms: C_8  and  C_9
REMARK    7  A    between atoms: C_8  and  C_10
REMARK    8  A    between atoms: C_8  and  C_11
REMARK    9  A    between atoms: C_15  and  C_16
REMARK   10  A    between atoms: C_24  and  C_25
REMARK                            x       y       z     vdW  Elec       q    Type
REMARK                         _______ _______ _______ _____ _____    ______ ____
ROOT
ATOM      1  C   UNL     1      48.833   8.404  14.130  0.00  0.00    +0.000 C 
ENDROOT
BRANCH   1   2
ATOM      2  C   UNL     1      48.619   8.196  12.586  0.00  0.00    +0.000 C 
ATOM      3  C   UNL     1      49.062   9.437  11.781  0.00  0.00    +0.000 C 
ATOM      4  C   UNL     1      49.602   7.052  12.198  0.00  0.00    +0.000 C 
BRANCH   2   5
ATOM      5  C   UNL     1      47.159   7.852  12.200  0.00  0.00    +0.000 A 
ATOM      6  C   UNL     1      46.104   8.764  12.367  0.00  0.00    +0.000 A 
ATOM      7  C   UNL     1      44.797   8.467  11.994  0.00  0.00    +0.000 A 
ATOM      8  C   UNL     1      44.510   7.246  11.407  0.00  0.00    +0.000 A 
ATOM      9  C   UNL     1      45.527   6.313  11.151  0.00  0.00    +0.000 A 
ATOM     10  C   UNL     1      46.835   6.631  11.575  0.00  0.00    +0.000 A 
BRANCH   9  11
ATOM     11  C   UNL     1      45.237   5.076  10.403  0.00  0.00    +0.000 A 
ATOM     12  C   UNL     1      44.511   4.036  11.004  0.00  0.00    +0.000 A 
ATOM     13  C   UNL     1      44.222   2.895  10.275  0.00  0.00    +0.000 A 
ATOM     14  N   UNL     1      44.590   2.716   8.993  0.00  0.00    +0.000 NA
ATOM     15  C   UNL     1      45.285   3.722   8.420  0.00  0.00    +0.000 A 
ATOM     16  C   UNL     1      45.631   4.894   9.073  0.00  0.00    +0.000 A 
ENDBRANCH   9  11
ENDBRANCH   2   5
ENDBRANCH   1   2
BRANCH   1  17
ATOM     17  N   UNL     1      48.141   7.421  14.976  0.00  0.00    +0.000 N 
ATOM     18  H   UNL     1      47.382   6.944  14.488  0.00  0.00    +0.000 HD
BRANCH  17  21
ATOM     19  C   UNL     1      50.847   5.813  16.944  0.00  0.00    +0.000 A 
ATOM     20  C   UNL     1      50.174   6.736  16.142  0.00  0.00    +0.000 A 
ATOM     21  C   UNL     1      48.843   6.540  15.795  0.00  0.00    +0.000 A 
ATOM     22  C   UNL     1      48.200   5.365  16.199  0.00  0.00    +0.000 A 
ATOM     23  C   UNL     1      48.851   4.429  17.015  0.00  0.00    +0.000 A 
ATOM     24  C   UNL     1      50.180   4.672  17.388  0.00  0.00    +0.000 A 
BRANCH  23  25
ATOM     25  C   UNL     1      48.146   3.184  17.492  0.00  0.00    +0.000 C 
ATOM     26  F   UNL     1      46.790   3.260  17.422  0.00  0.00    +0.000 F 
ATOM     27  F   UNL     1      48.492   2.082  16.767  0.00  0.00    +0.000 F 
ATOM     28  F   UNL     1      48.436   2.882  18.788  0.00  0.00    +0.000 F 
ENDBRANCH  23  25
BRANCH  19  30
ATOM     29  C   UNL     1      53.039   6.554  16.417  0.00  0.00    +0.000 C 
ATOM     30  O   UNL     1      52.152   5.928  17.341  0.00  0.00    +0.000 OA
ENDBRANCH  19  30
ENDBRANCH  17  21
ENDBRANCH   1  17
TORSDOF 7
ENDMDL
MODEL 4
REMARK VINA RESULT:    -7.064      2.326      4.039
REMARK INTER + INTRA:         -11.001
REMARK INTER:                  -9.633
REMARK INTRA:                  -1.368
REMARK UNBOUND:                -1.047
REMARK  Name = 
REMARK  10 active torsions:
REMARK  status: ('A' for Active; 'I' for Inactive)
REMARK    1  A    between atoms: C_1  and  O_2
REMARK    2  A    between atoms: O_2  and  C_3
REMARK    3  A    between atoms: C_5  and  N_6
REMARK    4  A    between atoms: N_6  and  C_7
REMARK    5  A    between atoms: C_7  and  C_8
REMARK    6  A    between atoms: C_8  and  C_9
REMARK    7  A    between atoms: C_8  and  C_10
REMARK    8  A    between atoms: C_8  and  C_11
REMARK    9  A    between atoms: C_15  and  C_16
REMARK   10  A    between atoms: C_24  and  C_25
REMARK                            x       y       z     vdW  Elec       q    Type
REMARK                         _______ _______ _______ _____ _____    ______ ____
ROOT
ATOM      1  C   UNL     1      49.638   7.380  13.867  0.00  0.00    +0.000 C 
ENDROOT
BRANCH   1   2
ATOM      2  C   UNL     1      49.078   8.182  12.636  0.00  0.00    +0.000 C 
ATOM      3  C   UNL     1      49.292   9.702  12.805  0.00  0.00    +0.000 C 
ATOM      4  C   UNL     1      49.973   7.747  11.438  0.00  0.00    +0.000 C 
BRANCH   2   5
ATOM      5  C   UNL     1      47.577   7.922  12.354  0.00  0.00    +0.000 A 
ATOM      6  C   UNL     1      46.585   8.876  12.632  0.00  0.00    +0.000 A 
ATOM      7  C   UNL     1      45.240   8.656  12.353  0.00  0.00    +0.000 A 
ATOM      8  C   UNL     1      44.848   7.472  11.750  0.00  0.00    +0.000 A 
ATOM      9  C   UNL     1      45.795   6.503  11.384  0.00  0.00    +0.000 A 
ATOM     10  C   UNL     1      47.146   6.742  11.715  0.00  0.00    +0.000 A 
BRANCH   9  11
ATOM     11  C   UNL     1      45.388   5.309  10.620  0.00  0.00    +0.000 A 
ATOM     12  C   UNL     1      44.671   4.276  11.245  0.00  0.00    +0.000 A 
ATOM     13  C   UNL     1      44.270   3.179  10.503  0.00  0.00    +0.000 A 
ATOM     14  N   UNL     1      44.517   3.036   9.188  0.00  0.00    +0.000 NA
ATOM     15  C   UNL     1      45.204   4.035   8.593  0.00  0.00    +0.000 A 
ATOM     16  C   UNL     1      45.656   5.165   9.255  0.00  0.00    +0.000 A 
ENDBRANCH   9  11
ENDBRANCH   2   5
ENDBRANCH   1   2
BRANCH   1  17
ATOM     17  N   UNL     1      49.280   7.947  15.175  0.00  0.00    +0.000 N 
ATOM     18  H   UNL     1      48.740   8.810  15.097  0.00  0.00    +0.000 HD
BRANCH  17  21
ATOM     19  C   UNL     1      48.173   6.778  18.520  0.00  0.00    +0.000 A 
ATOM     20  C   UNL     1      48.628   7.621  17.506  0.00  0.00    +0.000 A 
ATOM     21  C   UNL     1      48.802   7.148  16.211  0.00  0.00    +0.000 A 
ATOM     22  C   UNL     1      48.585   5.792  15.948  0.00  0.00    +0.000 A 
ATOM     23  C   UNL     1      48.115   4.927  16.947  0.00  0.00    +0.000 A 
ATOM     24  C   UNL     1      47.905   5.440  18.234  0.00  0.00    +0.000 A 
BRANCH  23  25
ATOM     25  C   UNL     1      47.833   3.475  16.655  0.00  0.00    +0.000 C 
ATOM     26  F   UNL     1      48.876   2.647  16.935  0.00  0.00    +0.000 F 
ATOM     27  F   UNL     1      46.778   2.996  17.374  0.00  0.00    +0.000 F 
ATOM     28  F   UNL     1      47.523   3.254  15.348  0.00  0.00    +0.000 F 
ENDBRANCH  23  25
BRANCH  19  30
ATOM     29  C   UNL     1      47.434   6.165  20.690  0.00  0.00    +0.000 C 
ATOM     30  O   UNL     1      47.966   7.159  19.819  0.00  0.00    +0.000 OA
ENDBRANCH  19  30
ENDBRANCH  17  21
ENDBRANCH   1  17
TORSDOF 7
ENDMDL
MODEL 5
REMARK VINA RESULT:    -6.920      4.031      8.139
REMARK INTER + INTRA:         -10.799
REMARK INTER:                  -9.164
REMARK INTRA:                  -1.635
REMARK UNBOUND:                -1.047
REMARK  Name = 
REMARK  10 active torsions:
REMARK  status: ('A' for Active; 'I' for Inactive)
REMARK    1  A    between atoms: C_1  and  O_2
REMARK    2  A    between atoms: O_2  and  C_3
REMARK    3  A    between atoms: C_5  and  N_6
REMARK    4  A    between atoms: N_6  and  C_7
REMARK    5  A    between atoms: C_7  and  C_8
REMARK    6  A    between atoms: C_8  and  C_9
REMARK    7  A    between atoms: C_8  and  C_10
REMARK    8  A    between atoms: C_8  and  C_11
REMARK    9  A    between atoms: C_15  and  C_16
REMARK   10  A    between atoms: C_24  and  C_25
REMARK                            x       y       z     vdW  Elec       q    Type
REMARK                         _______ _______ _______ _____ _____    ______ ____
ROOT
ATOM      1  C   UNL     1      47.560   8.280  13.035  0.00  0.00    +0.000 C 
ENDROOT
BRANCH   1   2
ATOM      2  C   UNL     1      49.076   8.553  12.720  0.00  0.00    +0.000 C 
ATOM      3  C   UNL     1      49.500   7.915  11.378  0.00  0.00    +0.000 C 
ATOM      4  C   UNL     1      49.170  10.094  12.519  0.00  0.00    +0.000 C 
BRANCH   2   5
ATOM      5  C   UNL     1      50.041   8.060  13.828  0.00  0.00    +0.000 A 
ATOM      6  C   UNL     1      51.381   8.474  13.895  0.00  0.00    +0.000 A 
ATOM      7  C   UNL     1      52.240   8.055  14.906  0.00  0.00    +0.000 A 
ATOM      8  C   UNL     1      51.769   7.224  15.909  0.00  0.00    +0.000 A 
ATOM      9  C   UNL     1      50.424   6.824  15.940  0.00  0.00    +0.000 A 
ATOM     10  C   UNL     1      49.589   7.238  14.880  0.00  0.00    +0.000 A 
BRANCH   9  11
ATOM     11  C   UNL     1      49.898   6.055  17.082  0.00  0.00    +0.000 A 
ATOM     12  C   UNL     1      48.740   6.480  17.752  0.00  0.00    +0.000 A 
ATOM     13  C   UNL     1      48.242   5.726  18.801  0.00  0.00    +0.000 A 
ATOM     14  N   UNL     1      48.802   4.579  19.227  0.00  0.00    +0.000 NA
ATOM     15  C   UNL     1      49.914   4.174  18.576  0.00  0.00    +0.000 A 
ATOM     16  C   UNL     1      50.491   4.868  17.523  0.00  0.00    +0.000 A 
ENDBRANCH   9  11
ENDBRANCH   2   5
ENDBRANCH   1   2
BRANCH   1  17
ATOM     17  N   UNL     1      46.869   7.460  12.030  0.00  0.00    +0.000 N 
ATOM     18  H   UNL     1      47.290   7.533  11.103  0.00  0.00    +0.000 HD
BRANCH  17  21
ATOM     19  C   UNL     1      46.713   4.034  13.450  0.00  0.00    +0.000 A 
ATOM     20  C   UNL     1      47.125   5.348  13.230  0.00  0.00    +0.000 A 
ATOM     21  C   UNL     1      46.475   6.152  12.301  0.00  0.00    +0.000 A 
ATOM     22  C   UNL     1      45.445   5.604  11.531  0.00  0.00    +0.000 A 
ATOM     23  C   UNL     1      45.004   4.290  11.742  0.00  0.00    +0.000 A 
ATOM     24  C   UNL     1      45.647   3.514  12.717  0.00  0.00    +0.000 A 
BRANCH  23  25
ATOM     25  C   UNL     1      43.861   3.711  10.947  0.00  0.00    +0.000 C 
ATOM     26  F   UNL     1      43.036   2.910  11.674  0.00  0.00    +0.000 F 
ATOM     27  F   UNL     1      43.061   4.677  10.410  0.00  0.00    +0.000 F 
ATOM     28  F   UNL     1      44.284   2.954   9.897  0.00  0.00    +0.000 F 
ENDBRANCH  23  25
BRANCH  19  30
ATOM     29  C   UNL     1      47.421   3.655  15.684  0.00  0.00    +0.000 C 
ATOM     30  O   UNL     1      47.288   3.175  14.349  0.00  0.00    +0.000 OA
ENDBRANCH  19  30
ENDBRANCH  17  21
ENDBRANCH   1  17
TORSDOF 7
ENDMDL
MODEL 6
REMARK VINA RESULT:    -6.902      4.469      9.010
REMARK INTER + INTRA:         -10.774
REMARK INTER:                  -9.785
REMARK INTRA:                  -0.989
REMARK UNBOUND:                -1.047
REMARK  Name = 
REMARK  10 active torsions:
REMARK  status: ('A' for Active; 'I' for Inactive)
REMARK    1  A    between atoms: C_1  and  O_2
REMARK    2  A    between atoms: O_2  and  C_3
REMARK    3  A    between atoms: C_5  and  N_6
REMARK    4  A    between atoms: N_6  and  C_7
REMARK    5  A    between atoms: C_7  and  C_8
REMARK    6  A    between atoms: C_8  and  C_9
REMARK    7  A    between atoms: C_8  and  C_10
REMARK    8  A    between atoms: C_8  and  C_11
REMARK    9  A    between atoms: C_15  and  C_16
REMARK   10  A    between atoms: C_24  and  C_25
REMARK                            x       y       z     vdW  Elec       q    Type
REMARK                         _______ _______ _______ _____ _____    ______ ____
ROOT
ATOM      1  C   UNL     1      47.612   5.044  15.530  0.00  0.00    +0.000 C 
ENDROOT
BRANCH   1   2
ATOM      2  C   UNL     1      48.077   4.374  16.875  0.00  0.00    +0.000 C 
ATOM      3  C   UNL     1      47.235   4.864  18.074  0.00  0.00    +0.000 C 
ATOM      4  C   UNL     1      47.748   2.862  16.700  0.00  0.00    +0.000 C 
BRANCH   2   5
ATOM      5  C   UNL     1      49.576   4.601  17.197  0.00  0.00    +0.000 A 
ATOM      6  C   UNL     1      50.118   5.884  17.377  0.00  0.00    +0.000 A 
ATOM      7  C   UNL     1      51.457   6.088  17.695  0.00  0.00    +0.000 A 
ATOM      8  C   UNL     1      52.295   5.000  17.876  0.00  0.00    +0.000 A 
ATOM      9  C   UNL     1      51.804   3.689  17.777  0.00  0.00    +0.000 A 
ATOM     10  C   UNL     1      50.450   3.518  17.417  0.00  0.00    +0.000 A 
BRANCH   9  11
ATOM     11  C   UNL     1      52.666   2.540  18.106  0.00  0.00    +0.000 A 
ATOM     12  C   UNL     1      53.807   2.713  18.905  0.00  0.00    +0.000 A 
ATOM     13  C   UNL     1      54.586   1.616  19.230  0.00  0.00    +0.000 A 
ATOM     14  N   UNL     1      54.311   0.361  18.830  0.00  0.00    +0.000 NA
ATOM     15  C   UNL     1      53.210   0.201  18.064  0.00  0.00    +0.000 A 
ATOM     16  C   UNL     1      52.378   1.240  17.679  0.00  0.00    +0.000 A 
ENDBRANCH   9  11
ENDBRANCH   2   5
ENDBRANCH   1   2
BRANCH   1  17
ATOM     17  N   UNL     1      46.785   4.181  14.677  0.00  0.00    +0.000 N 
ATOM     18  H   UNL     1      46.151   3.586  15.211  0.00  0.00    +0.000 HD
BRANCH  17  21
ATOM     19  C   UNL     1      45.338   6.467  12.135  0.00  0.00    +0.000 A 
ATOM     20  C   UNL     1      45.987   6.024  13.287  0.00  0.00    +0.000 A 
ATOM     21  C   UNL     1      46.166   4.667  13.528  0.00  0.00    +0.000 A 
ATOM     22  C   UNL     1      45.621   3.741  12.633  0.00  0.00    +0.000 A 
ATOM     23  C   UNL     1      44.975   4.160  11.461  0.00  0.00    +0.000 A 
ATOM     24  C   UNL     1      44.847   5.535  11.221  0.00  0.00    +0.000 A 
BRANCH  23  25
ATOM     25  C   UNL     1      44.428   3.164  10.470  0.00  0.00    +0.000 C 
ATOM     26  F   UNL     1      43.471   2.345  10.986  0.00  0.00    +0.000 F 
ATOM     27  F   UNL     1      43.854   3.768   9.390  0.00  0.00    +0.000 F 
ATOM     28  F   UNL     1      45.390   2.342   9.968  0.00  0.00    +0.000 F 
ENDBRANCH  23  25
BRANCH  19  30
ATOM     29  C   UNL     1      45.612   8.744  12.743  0.00  0.00    +0.000 C 
ATOM     30  O   UNL     1      45.124   7.781  11.813  0.00  0.00    +0.000 OA
ENDBRANCH  19  30
ENDBRANCH  17  21
ENDBRANCH   1  17
TORSDOF 7
ENDMDL
MODEL 7
REMARK VINA RESULT:    -6.718      3.945      7.910
REMARK INTER + INTRA:         -10.514
REMARK INTER:                  -8.839
REMARK INTRA:                  -1.675
REMARK UNBOUND:                -1.047
REMARK  Name = 
REMARK  10 active torsions:
REMARK  status: ('A' for Active; 'I' for Inactive)
REMARK    1  A    between atoms: C_1  and  O_2
REMARK    2  A    between atoms: O_2  and  C_3
REMARK    3  A    between atoms: C_5  and  N_6
REMARK    4  A    between atoms: N_6  and  C_7
REMARK    5  A    between atoms: C_7  and  C_8
REMARK    6  A    between atoms: C_8  and  C_9
REMARK    7  A    between atoms: C_8  and  C_10
REMARK    8  A    between atoms: C_8  and  C_11
REMARK    9  A    between atoms: C_15  and  C_16
REMARK   10  A    between atoms: C_24  and  C_25
REMARK                            x       y       z     vdW  Elec       q    Type
REMARK                         _______ _______ _______ _____ _____    ______ ____
ROOT
ATOM      1  C   UNL     1      47.079   4.087  16.205  0.00  0.00    +0.000 C 
ENDROOT
BRANCH   1   2
ATOM      2  C   UNL     1      48.387   3.893  17.055  0.00  0.00    +0.000 C 
ATOM      3  C   UNL     1      48.077   3.830  18.567  0.00  0.00    +0.000 C 
ATOM      4  C   UNL     1      48.913   2.481  16.660  0.00  0.00    +0.000 C 
BRANCH   2   5
ATOM      5  C   UNL     1      49.455   4.990  16.814  0.00  0.00    +0.000 A 
ATOM      6  C   UNL     1      50.763   4.887  17.315  0.00  0.00    +0.000 A 
ATOM      7  C   UNL     1      51.731   5.857  17.075  0.00  0.00    +0.000 A 
ATOM      8  C   UNL     1      51.423   6.957  16.292  0.00  0.00    +0.000 A 
ATOM      9  C   UNL     1      50.155   7.091  15.706  0.00  0.00    +0.000 A 
ATOM     10  C   UNL     1      49.185   6.107  15.999  0.00  0.00    +0.000 A 
BRANCH   9  11
ATOM     11  C   UNL     1      49.877   8.190  14.764  0.00  0.00    +0.000 A 
ATOM     12  C   UNL     1      50.072   8.011  13.385  0.00  0.00    +0.000 A 
ATOM     13  C   UNL     1      49.775   9.045  12.514  0.00  0.00    +0.000 A 
ATOM     14  N   UNL     1      49.291  10.237  12.908  0.00  0.00    +0.000 NA
ATOM     15  C   UNL     1      49.103  10.402  14.235  0.00  0.00    +0.000 A 
ATOM     16  C   UNL     1      49.382   9.430  15.183  0.00  0.00    +0.000 A 
ENDBRANCH   9  11
ENDBRANCH   2   5
ENDBRANCH   1   2
BRANCH   1  17
ATOM     17  N   UNL     1      47.139   3.506  14.857  0.00  0.00    +0.000 N 
ATOM     18  H   UNL     1      46.868   2.522  14.838  0.00  0.00    +0.000 HD
BRANCH  17  21
ATOM     19  C   UNL     1      46.368   6.175  12.395  0.00  0.00    +0.000 A 
ATOM     20  C   UNL     1      46.908   5.527  13.506  0.00  0.00    +0.000 A 
ATOM     21  C   UNL     1      46.643   4.185  13.747  0.00  0.00    +0.000 A 
ATOM     22  C   UNL     1      45.764   3.503  12.899  0.00  0.00    +0.000 A 
ATOM     23  C   UNL     1      45.218   4.128  11.768  0.00  0.00    +0.000 A 
ATOM     24  C   UNL     1      45.538   5.471  11.524  0.00  0.00    +0.000 A 
BRANCH  23  25
ATOM     25  C   UNL     1      44.308   3.382  10.825  0.00  0.00    +0.000 C 
ATOM     26  F   UNL     1      44.935   2.405  10.116  0.00  0.00    +0.000 F 
ATOM     27  F   UNL     1      43.281   2.765  11.476  0.00  0.00    +0.000 F 
ATOM     28  F   UNL     1      43.728   4.198   9.903  0.00  0.00    +0.000 F 
ENDBRANCH  23  25
BRANCH  19  30
ATOM     29  C   UNL     1      46.076   8.452  12.999  0.00  0.00    +0.000 C 
ATOM     30  O   UNL     1      46.581   7.490  12.076  0.00  0.00    +0.000 OA
ENDBRANCH  19  30
ENDBRANCH  17  21
ENDBRANCH   1  17
TORSDOF 7
ENDMDL
MODEL 8
REMARK VINA RESULT:    -6.638      4.038      7.973
REMARK INTER + INTRA:         -10.402
REMARK INTER:                  -8.861
REMARK INTRA:                  -1.541
REMARK UNBOUND:                -1.047
REMARK  Name = 
REMARK  10 active torsions:
REMARK  status: ('A' for Active; 'I' for Inactive)
REMARK    1  A    between atoms: C_1  and  O_2
REMARK    2  A    between atoms: O_2  and  C_3
REMARK    3  A    between atoms: C_5  and  N_6
REMARK    4  A    between atoms: N_6  and  C_7
REMARK    5  A    between atoms: C_7  and  C_8
REMARK    6  A    between atoms: C_8  and  C_9
REMARK    7  A    between atoms: C_8  and  C_10
REMARK    8  A    between atoms: C_8  and  C_11
REMARK    9  A    between atoms: C_15  and  C_16
REMARK   10  A    between atoms: C_24  and  C_25
REMARK                            x       y       z     vdW  Elec       q    Type
REMARK                         _______ _______ _______ _____ _____    ______ ____
ROOT
ATOM      1  C   UNL     1      48.630   7.641  11.479  0.00  0.00    +0.000 C 
ENDROOT
BRANCH   1   2
ATOM      2  C   UNL     1      49.332   8.792  12.289  0.00  0.00    +0.000 C 
ATOM      3  C   UNL     1      50.815   8.946  11.888  0.00  0.00    +0.000 C 
ATOM      4  C   UNL     1      48.618  10.097  11.827  0.00  0.00    +0.000 C 
BRANCH   2   5
ATOM      5  C   UNL     1      49.252   8.610  13.826  0.00  0.00    +0.000 A 
ATOM      6  C   UNL     1      48.305   9.284  14.613  0.00  0.00    +0.000 A 
ATOM      7  C   UNL     1      48.213   9.100  15.989  0.00  0.00    +0.000 A 
ATOM      8  C   UNL     1      49.056   8.199  16.620  0.00  0.00    +0.000 A 
ATOM      9  C   UNL     1      49.981   7.443  15.885  0.00  0.00    +0.000 A 
ATOM     10  C   UNL     1      50.073   7.681  14.496  0.00  0.00    +0.000 A 
BRANCH   9  11
ATOM     11  C   UNL     1      50.777   6.389  16.541  0.00  0.00    +0.000 A 
ATOM     12  C   UNL     1      52.180   6.417  16.480  0.00  0.00    +0.000 A 
ATOM     13  C   UNL     1      52.910   5.437  17.130  0.00  0.00    +0.000 A 
ATOM     14  N   UNL     1      52.353   4.440  17.842  0.00  0.00    +0.000 NA
ATOM     15  C   UNL     1      51.004   4.421  17.899  0.00  0.00    +0.000 A 
ATOM     16  C   UNL     1      50.190   5.351  17.272  0.00  0.00    +0.000 A 
ENDBRANCH   9  11
ENDBRANCH   2   5
ENDBRANCH   1   2
BRANCH   1  17
ATOM     17  N   UNL     1      47.207   7.460  11.792  0.00  0.00    +0.000 N 
ATOM     18  H   UNL     1      46.592   7.928  11.125  0.00  0.00    +0.000 HD
BRANCH  17  21
ATOM     19  C   UNL     1      46.681   4.225  13.536  0.00  0.00    +0.000 A 
ATOM     20  C   UNL     1      47.209   5.476  13.217  0.00  0.00    +0.000 A 
ATOM     21  C   UNL     1      46.693   6.219  12.162  0.00  0.00    +0.000 A 
ATOM     22  C   UNL     1      45.681   5.665  11.371  0.00  0.00    +0.000 A 
ATOM     23  C   UNL     1      45.126   4.415  11.679  0.00  0.00    +0.000 A 
ATOM     24  C   UNL     1      45.634   3.706  12.776  0.00  0.00    +0.000 A 
BRANCH  23  25
ATOM     25  C   UNL     1      44.002   3.835  10.857  0.00  0.00    +0.000 C 
ATOM     26  F   UNL     1      44.337   2.694  10.197  0.00  0.00    +0.000 F 
ATOM     27  F   UNL     1      42.915   3.516  11.618  0.00  0.00    +0.000 F 
ATOM     28  F   UNL     1      43.550   4.698   9.906  0.00  0.00    +0.000 F 
ENDBRANCH  23  25
BRANCH  19  30
ATOM     29  C   UNL     1      47.202   4.043  15.844  0.00  0.00    +0.000 C 
ATOM     30  O   UNL     1      47.120   3.429  14.560  0.00  0.00    +0.000 OA
ENDBRANCH  19  30
ENDBRANCH  17  21
ENDBRANCH   1  17
TORSDOF 7
ENDMDL
MODEL 9
REMARK VINA RESULT:    -6.632      4.020      8.329
REMARK INTER + INTRA:         -10.393
REMARK INTER:                  -8.279
REMARK INTRA:                  -2.113
REMARK UNBOUND:                -1.047
REMARK  Name = 
REMARK  10 active torsions:
REMARK  status: ('A' for Active; 'I' for Inactive)
REMARK    1  A    between atoms: C_1  and  O_2
REMARK    2  A    between atoms: O_2  and  C_3
REMARK    3  A    between atoms: C_5  and  N_6
REMARK    4  A    between atoms: N_6  and  C_7
REMARK    5  A    between atoms: C_7  and  C_8
REMARK    6  A    between atoms: C_8  and  C_9
REMARK    7  A    between atoms: C_8  and  C_10
REMARK    8  A    between atoms: C_8  and  C_11
REMARK    9  A    between atoms: C_15  and  C_16
REMARK   10  A    between atoms: C_24  and  C_25
REMARK                            x       y       z     vdW  Elec       q    Type
REMARK                         _______ _______ _______ _____ _____    ______ ____
ROOT
ATOM      1  C   UNL     1      47.309   3.783  16.285  0.00  0.00    +0.000 C 
ENDROOT
BRANCH   1   2
ATOM      2  C   UNL     1      48.608   3.518  17.131  0.00  0.00    +0.000 C 
ATOM      3  C   UNL     1      48.280   3.311  18.626  0.00  0.00    +0.000 C 
ATOM      4  C   UNL     1      49.150   2.154  16.611  0.00  0.00    +0.000 C 
BRANCH   2   5
ATOM      5  C   UNL     1      49.670   4.640  17.009  0.00  0.00    +0.000 A 
ATOM      6  C   UNL     1      51.003   4.458  17.412  0.00  0.00    +0.000 A 
ATOM      7  C   UNL     1      51.965   5.455  17.277  0.00  0.00    +0.000 A 
ATOM      8  C   UNL     1      51.623   6.665  16.698  0.00  0.00    +0.000 A 
ATOM      9  C   UNL     1      50.326   6.891  16.212  0.00  0.00    +0.000 A 
ATOM     10  C   UNL     1      49.366   5.873  16.398  0.00  0.00    +0.000 A 
BRANCH   9  11
ATOM     11  C   UNL     1      50.007   8.126  15.474  0.00  0.00    +0.000 A 
ATOM     12  C   UNL     1      50.402   8.277  14.135  0.00  0.00    +0.000 A 
ATOM     13  C   UNL     1      50.065   9.431  13.449  0.00  0.00    +0.000 A 
ATOM     14  N   UNL     1      49.357  10.440  13.989  0.00  0.00    +0.000 NA
ATOM     15  C   UNL     1      48.978  10.287  15.276  0.00  0.00    +0.000 A 
ATOM     16  C   UNL     1      49.278   9.174  16.046  0.00  0.00    +0.000 A 
ENDBRANCH   9  11
ENDBRANCH   2   5
ENDBRANCH   1   2
BRANCH   1  17
ATOM     17  N   UNL     1      47.365   3.272  14.909  0.00  0.00    +0.000 N 
ATOM     18  H   UNL     1      47.193   2.267  14.853  0.00  0.00    +0.000 HD
BRANCH  17  21
ATOM     19  C   UNL     1      45.385   4.014  11.858  0.00  0.00    +0.000 A 
ATOM     20  C   UNL     1      45.955   3.305  12.916  0.00  0.00    +0.000 A 
ATOM     21  C   UNL     1      46.755   3.945  13.854  0.00  0.00    +0.000 A 
ATOM     22  C   UNL     1      47.045   5.303  13.687  0.00  0.00    +0.000 A 
ATOM     23  C   UNL     1      46.474   6.041  12.640  0.00  0.00    +0.000 A 
ATOM     24  C   UNL     1      45.635   5.380  11.732  0.00  0.00    +0.000 A 
BRANCH  23  25
ATOM     25  C   UNL     1      46.746   7.516  12.484  0.00  0.00    +0.000 C 
ATOM     26  F   UNL     1      46.931   8.168  13.663  0.00  0.00    +0.000 F 
ATOM     27  F   UNL     1      47.866   7.762  11.746  0.00  0.00    +0.000 F 
ATOM     28  F   UNL     1      45.733   8.171  11.851  0.00  0.00    +0.000 F 
ENDBRANCH  23  25
BRANCH  19  30
ATOM     29  C   UNL     1      43.752   4.378  10.175  0.00  0.00    +0.000 C 
ATOM     30  O   UNL     1      44.580   3.468  10.894  0.00  0.00    +0.000 OA
ENDBRANCH  19  30
ENDBRANCH  17  21
ENDBRANCH   1  17
TORSDOF 7
ENDMDL
