MODEL 1
REMARK VINA RESULT:    -8.017      0.000      0.000
REMARK INTER + INTRA:         -10.571
REMARK INTER:                  -9.891
REMARK INTRA:                  -0.680
REMARK UNBOUND:                -0.680
REMARK  Name = 
REMARK  5 active torsions:
REMARK  status: ('A' for Active; 'I' for Inactive)
REMARK    1  A    between atoms: C_1  and  C_2
REMARK    2  A    between atoms: C_5  and  C_6
REMARK    3  A    between atoms: C_6  and  N_7
REMARK    4  A    between atoms: N_7  and  C_8
REMARK    5  A    between atoms: C_11  and  C_12
REMARK                            x       y       z     vdW  Elec       q    Type
REMARK                         _______ _______ _______ _____ _____    ______ ____
ROOT
ATOM      1  C   UNL     1      44.578   4.016   9.140  0.00  0.00    +0.000 A 
ATOM      2  C   UNL     1      45.545   4.522   8.263  0.00  0.00    +0.000 A 
ATOM      3  C   UNL     1      46.431   3.673   7.588  0.00  0.00    +0.000 A 
ATOM      4  C   UNL     1      46.397   2.294   7.808  0.00  0.00    +0.000 A 
ATOM      5  C   UNL     1      45.460   1.773   8.704  0.00  0.00    +0.000 A 
ATOM      6  C   UNL     1      44.575   2.632   9.373  0.00  0.00    +0.000 A 
ENDROOT
BRANCH   4   7
ATOM      7  C   UNL     1      47.362   1.441   7.066  0.00  0.00    +0.000 C 
ATOM      8  N   UNL     1      48.486   2.042   6.571  0.00  0.00    +0.000 N 
ATOM      9  O   UNL     1      47.150   0.252   6.863  0.00  0.00    +0.000 OA
ATOM     10  H   UNL     1      48.577   3.045   6.495  0.00  0.00    +0.000 HD
ATOM     11  H   UNL     1      49.066   1.471   5.970  0.00  0.00    +0.000 HD
ENDBRANCH   4   7
BRANCH   1  12
ATOM     12  N   UNL     1      43.721   4.833   9.891  0.00  0.00    +0.000 N 
ATOM     13  H   UNL     1      43.756   5.805   9.594  0.00  0.00    +0.000 HD
BRANCH  12  14
ATOM     14  C   UNL     1      43.749   4.717  11.347  0.00  0.00    +0.000 C 
BRANCH  14  19
ATOM     15  C   UNL     1      48.799   6.850  13.341  0.00  0.00    +0.000 C 
ATOM     16  C   UNL     1      47.491   6.303  12.851  0.00  0.00    +0.000 A 
ATOM     17  C   UNL     1      46.983   5.097  13.343  0.00  0.00    +0.000 A 
ATOM     18  C   UNL     1      45.765   4.596  12.872  0.00  0.00    +0.000 A 
ATOM     19  C   UNL     1      45.033   5.293  11.900  0.00  0.00    +0.000 A 
ATOM     20  C   UNL     1      45.543   6.504  11.412  0.00  0.00    +0.000 A 
ATOM     21  C   UNL     1      46.761   7.003  11.884  0.00  0.00    +0.000 A 
ENDBRANCH  14  19
ENDBRANCH  12  14
ENDBRANCH   1  12
TORSDOF 4
ENDMDL
MODEL 2
REMARK VINA RESULT:    -7.457      2.908      6.271
REMARK INTER + INTRA:          -9.880
REMARK INTER:                  -9.345
REMARK INTRA:                  -0.536
REMARK UNBOUND:                -0.680
REMARK  Name = 
REMARK  5 active torsions:
REMARK  status: ('A' for Active; 'I' for Inactive)
REMARK    1  A    between atoms: C_1  and  C_2
REMARK    2  A    between atoms: C_5  and  C_6
REMARK    3  A    between atoms: C_6  and  N_7
REMARK    4  A    between atoms: N_7  and  C_8
REMARK    5  A    between atoms: C_11  and  C_12
REMARK                            x       y       z     vdW  Elec       q    Type
REMARK                         _______ _______ _______ _____ _____    ______ ____
ROOT
ATOM      1  C   UNL     1      45.072   5.058  11.324  0.00  0.00    +0.000 A 
ATOM      2  C   UNL     1      45.316   4.424  12.549  0.00  0.00    +0.000 A 
ATOM      3  C   UNL     1      46.326   4.868  13.410  0.00  0.00    +0.000 A 
ATOM      4  C   UNL     1      47.149   5.938  13.046  0.00  0.00    +0.000 A 
ATOM      5  C   UNL     1      46.942   6.563  11.814  0.00  0.00    +0.000 A 
ATOM      6  C   UNL     1      45.925   6.112  10.959  0.00  0.00    +0.000 A 
ENDROOT
BRANCH   4   7
ATOM      7  C   UNL     1      48.206   6.365  13.999  0.00  0.00    +0.000 C 
ATOM      8  N   UNL     1      47.884   6.398  15.328  0.00  0.00    +0.000 N 
ATOM      9  O   UNL     1      49.315   6.716  13.617  0.00  0.00    +0.000 OA
ATOM     10  H   UNL     1      46.931   6.363  15.657  0.00  0.00    +0.000 HD
ATOM     11  H   UNL     1      48.578   6.804  15.943  0.00  0.00    +0.000 HD
ENDBRANCH   4   7
BRANCH   1  12
ATOM     12  N   UNL     1      44.123   4.603  10.399  0.00  0.00    +0.000 N 
ATOM     13  H   UNL     1      43.185   4.932  10.616  0.00  0.00    +0.000 HD
BRANCH  12  14
ATOM     14  C   UNL     1      44.123   3.187  10.042  0.00  0.00    +0.000 C 
BRANCH  14  19
ATOM     15  C   UNL     1      47.980   2.229   5.771  0.00  0.00    +0.000 C 
ATOM     16  C   UNL     1      46.971   2.481   6.852  0.00  0.00    +0.000 A 
ATOM     17  C   UNL     1      46.391   3.742   7.019  0.00  0.00    +0.000 A 
ATOM     18  C   UNL     1      45.456   3.963   8.035  0.00  0.00    +0.000 A 
ATOM     19  C   UNL     1      45.085   2.928   8.905  0.00  0.00    +0.000 A 
ATOM     20  C   UNL     1      45.666   1.664   8.732  0.00  0.00    +0.000 A 
ATOM     21  C   UNL     1      46.600   1.443   7.715  0.00  0.00    +0.000 A 
ENDBRANCH  14  19
ENDBRANCH  12  14
ENDBRANCH   1  12
TORSDOF 4
ENDMDL
MODEL 3
REMARK VINA RESULT:    -7.128      3.238      6.546
REMARK INTER + INTRA:          -9.475
REMARK INTER:                  -8.898
REMARK INTRA:                  -0.578
REMARK UNBOUND:                -0.680
REMARK  Name = 
REMARK  5 active torsions:
REMARK  status: ('A' for Active; 'I' for Inactive)
REMARK    1  A    between atoms: C_1  and  C_2
REMARK    2  A    between atoms: C_5  and  C_6
REMARK    3  A    between atoms: C_6  and  N_7
REMARK    4  A    between atoms: N_7  and  C_8
REMARK    5  A    between atoms: C_11  and  C_12
REMARK                            x       y       z     vdW  Elec       q    Type
REMARK                         _______ _______ _______ _____ _____    ______ ____
ROOT
ATOM      1  C   UNL     1      45.045   5.026  12.093  0.00  0.00    +0.000 A 
ATOM      2  C   UNL     1      46.218   5.038  12.858  0.00  0.00    +0.000 A 
ATOM      3  C   UNL     1      46.816   6.240  13.256  0.00  0.00    +0.000 A 
ATOM      4  C   UNL     1      46.273   7.466  12.862  0.00  0.00    +0.000 A 
ATOM      5  C   UNL     1      45.120   7.475  12.073  0.00  0.00    +0.000 A 
ATOM      6  C   UNL     1      44.528   6.265  11.681  0.00  0.00    +0.000 A 
ENDROOT
BRANCH   4   7
ATOM      7  C   UNL     1      46.950   8.710  13.313  0.00  0.00    +0.000 C 
ATOM      8  N   UNL     1      47.094   8.900  14.659  0.00  0.00    +0.000 N 
ATOM      9  O   UNL     1      47.333   9.560  12.519  0.00  0.00    +0.000 OA
ATOM     10  H   UNL     1      46.580   8.361  15.342  0.00  0.00    +0.000 HD
ATOM     11  H   UNL     1      47.448   9.804  14.945  0.00  0.00    +0.000 HD
ENDBRANCH   4   7
BRANCH   1  12
ATOM     12  N   UNL     1      44.455   3.850  11.611  0.00  0.00    +0.000 N 
ATOM     13  H   UNL     1      45.056   3.039  11.733  0.00  0.00    +0.000 HD
BRANCH  12  14
ATOM     14  C   UNL     1      43.847   3.871  10.283  0.00  0.00    +0.000 C 
BRANCH  14  19
ATOM     15  C   UNL     1      47.766   1.968   6.404  0.00  0.00    +0.000 C 
ATOM     16  C   UNL     1      46.745   2.466   7.383  0.00  0.00    +0.000 A 
ATOM     17  C   UNL     1      46.434   3.826   7.474  0.00  0.00    +0.000 A 
ATOM     18  C   UNL     1      45.484   4.277   8.395  0.00  0.00    +0.000 A 
ATOM     19  C   UNL     1      44.826   3.374   9.244  0.00  0.00    +0.000 A 
ATOM     20  C   UNL     1      45.137   2.011   9.147  0.00  0.00    +0.000 A 
ATOM     21  C   UNL     1      46.087   1.562   8.225  0.00  0.00    +0.000 A 
ENDBRANCH  14  19
ENDBRANCH  12  14
ENDBRANCH   1  12
TORSDOF 4
ENDMDL
MODEL 4
REMARK VINA RESULT:    -6.493      0.873      1.819
REMARK INTER + INTRA:          -8.691
REMARK INTER:                  -8.246
REMARK INTRA:                  -0.445
REMARK UNBOUND:                -0.680
REMARK  Name = 
REMARK  5 active torsions:
REMARK  status: ('A' for Active; 'I' for Inactive)
REMARK    1  A    between atoms: C_1  and  C_2
REMARK    2  A    between atoms: C_5  and  C_6
REMARK    3  A    between atoms: C_6  and  N_7
REMARK    4  A    between atoms: N_7  and  C_8
REMARK    5  A    between atoms: C_11  and  C_12
REMARK                            x       y       z     vdW  Elec       q    Type
REMARK                         _______ _______ _______ _____ _____    ______ ____
ROOT
ATOM      1  C   UNL     1      44.260   3.886   9.881  0.00  0.00    +0.000 A 
ATOM      2  C   UNL     1      44.333   2.497   9.725  0.00  0.00    +0.000 A 
ATOM      3  C   UNL     1      45.187   1.914   8.782  0.00  0.00    +0.000 A 
ATOM      4  C   UNL     1      45.965   2.713   7.940  0.00  0.00    +0.000 A 
ATOM      5  C   UNL     1      45.883   4.103   8.059  0.00  0.00    +0.000 A 
ATOM      6  C   UNL     1      45.024   4.677   9.009  0.00  0.00    +0.000 A 
ENDROOT
BRANCH   4   7
ATOM      7  C   UNL     1      46.853   2.040   6.957  0.00  0.00    +0.000 C 
ATOM      8  N   UNL     1      47.718   1.092   7.431  0.00  0.00    +0.000 N 
ATOM      9  O   UNL     1      46.850   2.343   5.771  0.00  0.00    +0.000 OA
ATOM     10  H   UNL     1      47.930   0.993   8.413  0.00  0.00    +0.000 HD
ATOM     11  H   UNL     1      48.392   0.735   6.767  0.00  0.00    +0.000 HD
ENDBRANCH   4   7
BRANCH   1  12
ATOM     12  N   UNL     1      43.366   4.515  10.759  0.00  0.00    +0.000 N 
ATOM     13  H   UNL     1      43.091   5.439  10.433  0.00  0.00    +0.000 HD
BRANCH  12  14
ATOM     14  C   UNL     1      43.680   4.521  12.185  0.00  0.00    +0.000 C 
BRANCH  14  19
ATOM     15  C   UNL     1      48.939   6.803  13.262  0.00  0.00    +0.000 C 
ATOM     16  C   UNL     1      47.592   6.217  12.961  0.00  0.00    +0.000 A 
ATOM     17  C   UNL     1      46.651   6.921  12.203  0.00  0.00    +0.000 A 
ATOM     18  C   UNL     1      45.397   6.364  11.935  0.00  0.00    +0.000 A 
ATOM     19  C   UNL     1      45.059   5.092  12.421  0.00  0.00    +0.000 A 
ATOM     20  C   UNL     1      46.006   4.388  13.177  0.00  0.00    +0.000 A 
ATOM     21  C   UNL     1      47.261   4.946  13.444  0.00  0.00    +0.000 A 
ENDBRANCH  14  19
ENDBRANCH  12  14
ENDBRANCH   1  12
TORSDOF 4
ENDMDL
MODEL 5
REMARK VINA RESULT:    -5.793      4.219      5.970
REMARK INTER + INTRA:          -7.828
REMARK INTER:                  -7.388
REMARK INTRA:                  -0.440
REMARK UNBOUND:                -0.680
REMARK  Name = 
REMARK  5 active torsions:
REMARK  status: ('A' for Active; 'I' for Inactive)
REMARK    1  A    between atoms: C_1  and  C_2
REMARK    2  A    between atoms: C_5  and  C_6
REMARK    3  A    between atoms: C_6  and  N_7
REMARK    4  A    between atoms: N_7  and  C_8
REMARK    5  A    between atoms: C_11  and  C_12
REMARK                            x       y       z     vdW  Elec       q    Type
REMARK                         _______ _______ _______ _____ _____    ______ ____
ROOT
ATOM      1  C   UNL     1      46.663   4.856  13.979  0.00  0.00    +0.000 A 
ATOM      2  C   UNL     1      46.441   3.528  13.596  0.00  0.00    +0.000 A 
ATOM      3  C   UNL     1      45.692   3.215  12.456  0.00  0.00    +0.000 A 
ATOM      4  C   UNL     1      45.110   4.228  11.690  0.00  0.00    +0.000 A 
ATOM      5  C   UNL     1      45.294   5.559  12.073  0.00  0.00    +0.000 A 
ATOM      6  C   UNL     1      46.048   5.862  13.217  0.00  0.00    +0.000 A 
ENDROOT
BRANCH   4   7
ATOM      7  C   UNL     1      44.324   3.837  10.491  0.00  0.00    +0.000 C 
ATOM      8  N   UNL     1      44.495   2.569  10.008  0.00  0.00    +0.000 N 
ATOM      9  O   UNL     1      43.579   4.625   9.922  0.00  0.00    +0.000 OA
ATOM     10  H   UNL     1      45.268   1.982  10.284  0.00  0.00    +0.000 HD
ATOM     11  H   UNL     1      44.042   2.364   9.126  0.00  0.00    +0.000 HD
ENDBRANCH   4   7
BRANCH   1  12
ATOM     12  N   UNL     1      47.343   5.214  15.152  0.00  0.00    +0.000 N 
ATOM     13  H   UNL     1      48.323   5.429  14.979  0.00  0.00    +0.000 HD
BRANCH  12  14
ATOM     14  C   UNL     1      47.179   4.374  16.334  0.00  0.00    +0.000 C 
BRANCH  14  19
ATOM     15  C   UNL     1      52.407   2.323  17.916  0.00  0.00    +0.000 C 
ATOM     16  C   UNL     1      51.052   2.836  17.526  0.00  0.00    +0.000 A 
ATOM     17  C   UNL     1      50.081   1.980  16.998  0.00  0.00    +0.000 A 
ATOM     18  C   UNL     1      48.824   2.473  16.633  0.00  0.00    +0.000 A 
ATOM     19  C   UNL     1      48.516   3.832  16.789  0.00  0.00    +0.000 A 
ATOM     20  C   UNL     1      49.490   4.687  17.322  0.00  0.00    +0.000 A 
ATOM     21  C   UNL     1      50.747   4.192  17.687  0.00  0.00    +0.000 A 
ENDBRANCH  14  19
ENDBRANCH  12  14
ENDBRANCH   1  12
TORSDOF 4
ENDMDL
MODEL 6
REMARK VINA RESULT:    -5.612      5.445      8.362
REMARK INTER + INTRA:          -7.604
REMARK INTER:                  -7.298
REMARK INTRA:                  -0.305
REMARK UNBOUND:                -0.680
REMARK  Name = 
REMARK  5 active torsions:
REMARK  status: ('A' for Active; 'I' for Inactive)
REMARK    1  A    between atoms: C_1  and  C_2
REMARK    2  A    between atoms: C_5  and  C_6
REMARK    3  A    between atoms: C_6  and  N_7
REMARK    4  A    between atoms: N_7  and  C_8
REMARK    5  A    between atoms: C_11  and  C_12
REMARK                            x       y       z     vdW  Elec       q    Type
REMARK                         _______ _______ _______ _____ _____    ______ ____
ROOT
ATOM      1  C   UNL     1      47.401   4.139  15.773  0.00  0.00    +0.000 A 
ATOM      2  C   UNL     1      47.457   3.089  16.698  0.00  0.00    +0.000 A 
ATOM      3  C   UNL     1      48.063   3.253  17.949  0.00  0.00    +0.000 A 
ATOM      4  C   UNL     1      48.665   4.466  18.292  0.00  0.00    +0.000 A 
ATOM      5  C   UNL     1      48.648   5.516  17.371  0.00  0.00    +0.000 A 
ATOM      6  C   UNL     1      48.036   5.342  16.119  0.00  0.00    +0.000 A 
ENDROOT
BRANCH   4   7
ATOM      7  C   UNL     1      49.294   4.583  19.634  0.00  0.00    +0.000 C 
ATOM      8  N   UNL     1      48.631   4.028  20.693  0.00  0.00    +0.000 N 
ATOM      9  O   UNL     1      50.346   5.187  19.803  0.00  0.00    +0.000 OA
ATOM     10  H   UNL     1      47.662   3.750  20.643  0.00  0.00    +0.000 HD
ATOM     11  H   UNL     1      49.016   4.223  21.609  0.00  0.00    +0.000 HD
ENDBRANCH   4   7
BRANCH   1  12
ATOM     12  N   UNL     1      46.872   3.998  14.483  0.00  0.00    +0.000 N 
ATOM     13  H   UNL     1      47.564   3.663  13.816  0.00  0.00    +0.000 HD
BRANCH  12  14
ATOM     14  C   UNL     1      46.087   5.098  13.930  0.00  0.00    +0.000 C 
BRANCH  14  19
ATOM     15  C   UNL     1      44.692   3.859   8.402  0.00  0.00    +0.000 C 
ATOM     16  C   UNL     1      45.034   4.196   9.823  0.00  0.00    +0.000 A 
ATOM     17  C   UNL     1      45.549   5.450  10.165  0.00  0.00    +0.000 A 
ATOM     18  C   UNL     1      45.868   5.748  11.493  0.00  0.00    +0.000 A 
ATOM     19  C   UNL     1      45.680   4.796  12.505  0.00  0.00    +0.000 A 
ATOM     20  C   UNL     1      45.160   3.541  12.160  0.00  0.00    +0.000 A 
ATOM     21  C   UNL     1      44.840   3.244  10.831  0.00  0.00    +0.000 A 
ENDBRANCH  14  19
ENDBRANCH  12  14
ENDBRANCH   1  12
TORSDOF 4
ENDMDL
MODEL 7
REMARK VINA RESULT:    -5.510      4.585      7.442
REMARK INTER + INTRA:          -7.478
REMARK INTER:                  -7.078
REMARK INTRA:                  -0.400
REMARK UNBOUND:                -0.680
REMARK  Name = 
REMARK  5 active torsions:
REMARK  status: ('A' for Active; 'I' for Inactive)
REMARK    1  A    between atoms: C_1  and  C_2
REMARK    2  A    between atoms: C_5  and  C_6
REMARK    3  A    between atoms: C_6  and  N_7
REMARK    4  A    between atoms: N_7  and  C_8
REMARK    5  A    between atoms: C_11  and  C_12
REMARK                            x       y       z     vdW  Elec       q    Type
REMARK                         _______ _______ _______ _____ _____    ______ ____
ROOT
ATOM      1  C   UNL     1      47.271   5.316  14.755  0.00  0.00    +0.000 A 
ATOM      2  C   UNL     1      47.062   3.984  15.133  0.00  0.00    +0.000 A 
ATOM      3  C   UNL     1      47.707   3.434  16.247  0.00  0.00    +0.000 A 
ATOM      4  C   UNL     1      48.612   4.197  16.991  0.00  0.00    +0.000 A 
ATOM      5  C   UNL     1      48.857   5.518  16.611  0.00  0.00    +0.000 A 
ATOM      6  C   UNL     1      48.204   6.061  15.493  0.00  0.00    +0.000 A 
ENDROOT
BRANCH   4   7
ATOM      7  C   UNL     1      49.268   3.561  18.163  0.00  0.00    +0.000 C 
ATOM      8  N   UNL     1      48.514   3.383  19.290  0.00  0.00    +0.000 N 
ATOM      9  O   UNL     1      50.450   3.241  18.146  0.00  0.00    +0.000 OA
ATOM     10  H   UNL     1      47.631   3.851  19.433  0.00  0.00    +0.000 HD
ATOM     11  H   UNL     1      49.012   3.060  20.110  0.00  0.00    +0.000 HD
ENDBRANCH   4   7
BRANCH   1  12
ATOM     12  N   UNL     1      46.706   5.886  13.606  0.00  0.00    +0.000 N 
ATOM     13  H   UNL     1      46.824   6.896  13.578  0.00  0.00    +0.000 HD
BRANCH  12  14
ATOM     14  C   UNL     1      45.350   5.495  13.232  0.00  0.00    +0.000 C 
BRANCH  14  19
ATOM     15  C   UNL     1      45.090   3.383   7.800  0.00  0.00    +0.000 C 
ATOM     16  C   UNL     1      45.173   3.909   9.202  0.00  0.00    +0.000 A 
ATOM     17  C   UNL     1      44.791   3.121  10.292  0.00  0.00    +0.000 A 
ATOM     18  C   UNL     1      44.869   3.626  11.594  0.00  0.00    +0.000 A 
ATOM     19  C   UNL     1      45.328   4.930  11.830  0.00  0.00    +0.000 A 
ATOM     20  C   UNL     1      45.713   5.716  10.735  0.00  0.00    +0.000 A 
ATOM     21  C   UNL     1      45.636   5.209   9.434  0.00  0.00    +0.000 A 
ENDBRANCH  14  19
ENDBRANCH  12  14
ENDBRANCH   1  12
TORSDOF 4
ENDMDL
MODEL 8
REMARK VINA RESULT:    -5.477      3.246      4.811
REMARK INTER + INTRA:          -7.438
REMARK INTER:                  -7.120
REMARK INTRA:                  -0.319
REMARK UNBOUND:                -0.680
REMARK  Name = 
REMARK  5 active torsions:
REMARK  status: ('A' for Active; 'I' for Inactive)
REMARK    1  A    between atoms: C_1  and  C_2
REMARK    2  A    between atoms: C_5  and  C_6
REMARK    3  A    between atoms: C_6  and  N_7
REMARK    4  A    between atoms: N_7  and  C_8
REMARK    5  A    between atoms: C_11  and  C_12
REMARK                            x       y       z     vdW  Elec       q    Type
REMARK                         _______ _______ _______ _____ _____    ______ ____
ROOT
ATOM      1  C   UNL     1      45.500   6.502  12.682  0.00  0.00    +0.000 A 
ATOM      2  C   UNL     1      45.841   5.252  13.214  0.00  0.00    +0.000 A 
ATOM      3  C   UNL     1      45.320   4.067  12.681  0.00  0.00    +0.000 A 
ATOM      4  C   UNL     1      44.409   4.107  11.622  0.00  0.00    +0.000 A 
ATOM      5  C   UNL     1      44.031   5.346  11.098  0.00  0.00    +0.000 A 
ATOM      6  C   UNL     1      44.561   6.528  11.639  0.00  0.00    +0.000 A 
ENDROOT
BRANCH   4   7
ATOM      7  C   UNL     1      43.887   2.818  11.097  0.00  0.00    +0.000 C 
ATOM      8  N   UNL     1      44.536   2.261  10.030  0.00  0.00    +0.000 N 
ATOM      9  O   UNL     1      42.889   2.286  11.567  0.00  0.00    +0.000 OA
ATOM     10  H   UNL     1      45.191   2.777   9.462  0.00  0.00    +0.000 HD
ATOM     11  H   UNL     1      44.094   1.449   9.616  0.00  0.00    +0.000 HD
ENDBRANCH   4   7
BRANCH   1  12
ATOM     12  N   UNL     1      45.938   7.716  13.230  0.00  0.00    +0.000 N 
ATOM     13  H   UNL     1      45.340   8.035  13.989  0.00  0.00    +0.000 HD
BRANCH  12  14
ATOM     14  C   UNL     1      46.277   8.806  12.321  0.00  0.00    +0.000 C 
BRANCH  14  19
ATOM     15  C   UNL     1      51.970   8.853  11.046  0.00  0.00    +0.000 C 
ATOM     16  C   UNL     1      50.511   8.830  11.396  0.00  0.00    +0.000 A 
ATOM     17  C   UNL     1      49.842   7.625  11.623  0.00  0.00    +0.000 A 
ATOM     18  C   UNL     1      48.480   7.619  11.943  0.00  0.00    +0.000 A 
ATOM     19  C   UNL     1      47.763   8.820  12.039  0.00  0.00    +0.000 A 
ATOM     20  C   UNL     1      48.438  10.027  11.815  0.00  0.00    +0.000 A 
ATOM     21  C   UNL     1      49.800  10.032  11.496  0.00  0.00    +0.000 A 
ENDBRANCH  14  19
ENDBRANCH  12  14
ENDBRANCH   1  12
TORSDOF 4
ENDMDL
MODEL 9
REMARK VINA RESULT:    -5.417      3.467      5.367
REMARK INTER + INTRA:          -7.364
REMARK INTER:                  -6.955
REMARK INTRA:                  -0.409
REMARK UNBOUND:                -0.680
REMARK  Name = 
REMARK  5 active torsions:
REMARK  status: ('A' for Active; 'I' for Inactive)
REMARK    1  A    between atoms: C_1  and  C_2
REMARK    2  A    between atoms: C_5  and  C_6
REMARK    3  A    between atoms: C_6  and  N_7
REMARK    4  A    between atoms: N_7  and  C_8
REMARK    5  A    between atoms: C_11  and  C_12
REMARK                            x       y       z     vdW  Elec       q    Type
REMARK                         _______ _______ _______ _____ _____    ______ ____
ROOT
ATOM      1  C   UNL     1      46.398   6.074  13.051  0.00  0.00    +0.000 A 
ATOM      2  C   UNL     1      45.691   4.902  13.345  0.00  0.00    +0.000 A 
ATOM      3  C   UNL     1      45.012   4.192  12.349  0.00  0.00    +0.000 A 
ATOM      4  C   UNL     1      44.990   4.663  11.033  0.00  0.00    +0.000 A 
ATOM      5  C   UNL     1      45.662   5.847  10.726  0.00  0.00    +0.000 A 
ATOM      6  C   UNL     1      46.343   6.551  11.732  0.00  0.00    +0.000 A 
ENDROOT
BRANCH   4   7
ATOM      7  C   UNL     1      44.251   3.869  10.017  0.00  0.00    +0.000 C 
ATOM      8  N   UNL     1      44.145   4.394   8.759  0.00  0.00    +0.000 N 
ATOM      9  O   UNL     1      43.717   2.802  10.294  0.00  0.00    +0.000 OA
ATOM     10  H   UNL     1      44.344   5.363   8.555  0.00  0.00    +0.000 HD
ATOM     11  H   UNL     1      43.539   3.895   8.119  0.00  0.00    +0.000 HD
ENDBRANCH   4   7
BRANCH   1  12
ATOM     12  N   UNL     1      47.030   6.856  14.028  0.00  0.00    +0.000 N 
ATOM     13  H   UNL     1      46.920   7.853  13.855  0.00  0.00    +0.000 HD
BRANCH  12  14
ATOM     14  C   UNL     1      48.402   6.526  14.403  0.00  0.00    +0.000 C 
BRANCH  14  19
ATOM     15  C   UNL     1      48.777   4.488  19.856  0.00  0.00    +0.000 C 
ATOM     16  C   UNL     1      48.656   5.012  18.456  0.00  0.00    +0.000 A 
ATOM     17  C   UNL     1      47.965   4.297  17.474  0.00  0.00    +0.000 A 
ATOM     18  C   UNL     1      47.865   4.796  16.171  0.00  0.00    +0.000 A 
ATOM     19  C   UNL     1      48.456   6.020  15.827  0.00  0.00    +0.000 A 
ATOM     20  C   UNL     1      49.145   6.737  16.815  0.00  0.00    +0.000 A 
ATOM     21  C   UNL     1      49.243   6.237  18.117  0.00  0.00    +0.000 A 
ENDBRANCH  14  19
ENDBRANCH  12  14
ENDBRANCH   1  12
TORSDOF 4
ENDMDL
