MODEL 1
REMARK VINA RESULT:    -7.659      0.000      0.000
REMARK INTER + INTRA:         -10.066
REMARK INTER:                  -9.449
REMARK INTRA:                  -0.617
REMARK UNBOUND:                -0.617
REMARK  Name = 
REMARK  5 active torsions:
REMARK  status: ('A' for Active; 'I' for Inactive)
REMARK    1  A    between atoms: C_1  and  O_2
REMARK    2  A    between atoms: O_2  and  C_3
REMARK    3  A    between atoms: C_8  and  C_9
REMARK    4  A    between atoms: C_9  and  N_10
REMARK    5  A    between atoms: C_15  and  C_16
REMARK                            x       y       z     vdW  Elec       q    Type
REMARK                         _______ _______ _______ _____ _____    ______ ____
ROOT
ATOM      1  N   UNL     1      44.597   4.657  10.911  0.00  0.00    +0.000 N 
ATOM      2  C   UNL     1      44.219   3.554  11.649  0.00  0.00    +0.000 A 
ATOM      3  C   UNL     1      44.049   2.513  10.767  0.00  0.00    +0.000 A 
ATOM      4  C   UNL     1      44.897   2.828   9.681  0.00  0.00    +0.000 A 
ATOM      5  C   UNL     1      45.619   2.063   8.750  0.00  0.00    +0.000 A 
ATOM      6  C   UNL     1      46.429   2.711   7.808  0.00  0.00    +0.000 A 
ATOM      7  C   UNL     1      46.345   4.102   7.669  0.00  0.00    +0.000 A 
ATOM      8  C   UNL     1      45.637   4.885   8.596  0.00  0.00    +0.000 A 
ATOM      9  C   UNL     1      45.040   4.219   9.670  0.00  0.00    +0.000 A 
ENDROOT
BRANCH   6  10
ATOM     10  C   UNL     1      47.429   1.873   7.073  0.00  0.00    +0.000 C 
ATOM     11  N   UNL     1      48.501   2.496   6.493  0.00  0.00    +0.000 N 
ATOM     12  O   UNL     1      47.341   0.656   7.033  0.00  0.00    +0.000 OA
ATOM     13  H   UNL     1      48.678   3.486   6.496  0.00  0.00    +0.000 HD
ATOM     14  H   UNL     1      49.198   1.892   6.073  0.00  0.00    +0.000 HD
ENDBRANCH   6  10
BRANCH   1  15
ATOM     15  C   UNL     1      44.915   5.954  11.510  0.00  0.00    +0.000 C 
BRANCH  15  21
ATOM     16  C   UNL     1      46.900   5.764  13.076  0.00  0.00    +0.000 A 
ATOM     17  C   UNL     1      48.184   6.164  13.478  0.00  0.00    +0.000 A 
ATOM     18  C   UNL     1      48.964   6.967  12.636  0.00  0.00    +0.000 A 
ATOM     19  C   UNL     1      48.470   7.366  11.407  0.00  0.00    +0.000 A 
ATOM     20  C   UNL     1      47.188   6.975  10.999  0.00  0.00    +0.000 A 
ATOM     21  C   UNL     1      46.381   6.182  11.834  0.00  0.00    +0.000 A 
BRANCH  16  23
ATOM     22  C   UNL     1      46.659   4.235  14.898  0.00  0.00    +0.000 C 
ATOM     23  O   UNL     1      46.077   4.984  13.846  0.00  0.00    +0.000 OA
ENDBRANCH  16  23
ENDBRANCH  15  21
ENDBRANCH   1  15
TORSDOF 4
ENDMDL
MODEL 2
REMARK VINA RESULT:    -7.521      1.314      2.016
REMARK INTER + INTRA:          -9.897
REMARK INTER:                  -9.557
REMARK INTRA:                  -0.340
REMARK UNBOUND:                -0.617
REMARK  Name = 
REMARK  5 active torsions:
REMARK  status: ('A' for Active; 'I' for Inactive)
REMARK    1  A    between atoms: C_1  and  O_2
REMARK    2  A    between atoms: O_2  and  C_3
REMARK    3  A    between atoms: C_8  and  C_9
REMARK    4  A    between atoms: C_9  and  N_10
REMARK    5  A    between atoms: C_15  and  C_16
REMARK                            x       y       z     vdW  Elec       q    Type
REMARK                         _______ _______ _______ _____ _____    ______ ____
ROOT
ATOM      1  N   UNL     1      44.050   4.299  10.749  0.00  0.00    +0.000 N 
ATOM      2  C   UNL     1      43.742   3.168  11.477  0.00  0.00    +0.000 A 
ATOM      3  C   UNL     1      43.755   2.105  10.605  0.00  0.00    +0.000 A 
ATOM      4  C   UNL     1      44.642   2.502   9.579  0.00  0.00    +0.000 A 
ATOM      5  C   UNL     1      45.512   1.813   8.717  0.00  0.00    +0.000 A 
ATOM      6  C   UNL     1      46.314   2.537   7.826  0.00  0.00    +0.000 A 
ATOM      7  C   UNL     1      46.087   3.909   7.656  0.00  0.00    +0.000 A 
ATOM      8  C   UNL     1      45.229   4.618   8.513  0.00  0.00    +0.000 A 
ATOM      9  C   UNL     1      44.631   3.900   9.552  0.00  0.00    +0.000 A 
ENDROOT
BRANCH   6  10
ATOM     10  C   UNL     1      47.453   1.808   7.182  0.00  0.00    +0.000 C 
ATOM     11  N   UNL     1      48.432   2.542   6.567  0.00  0.00    +0.000 N 
ATOM     12  O   UNL     1      47.555   0.594   7.246  0.00  0.00    +0.000 OA
ATOM     13  H   UNL     1      48.453   3.544   6.488  0.00  0.00    +0.000 HD
ATOM     14  H   UNL     1      49.225   2.022   6.212  0.00  0.00    +0.000 HD
ENDBRANCH   6  10
BRANCH   1  15
ATOM     15  C   UNL     1      44.177   5.629  11.345  0.00  0.00    +0.000 C 
BRANCH  15  21
ATOM     16  C   UNL     1      46.047   7.053  12.295  0.00  0.00    +0.000 A 
ATOM     17  C   UNL     1      47.273   7.173  12.970  0.00  0.00    +0.000 A 
ATOM     18  C   UNL     1      47.815   6.068  13.639  0.00  0.00    +0.000 A 
ATOM     19  C   UNL     1      47.144   4.859  13.637  0.00  0.00    +0.000 A 
ATOM     20  C   UNL     1      45.923   4.729  12.963  0.00  0.00    +0.000 A 
ATOM     21  C   UNL     1      45.366   5.819  12.271  0.00  0.00    +0.000 A 
BRANCH  16  23
ATOM     22  C   UNL     1      45.216   9.295  12.312  0.00  0.00    +0.000 C 
ATOM     23  O   UNL     1      45.457   8.086  11.614  0.00  0.00    +0.000 OA
ENDBRANCH  16  23
ENDBRANCH  15  21
ENDBRANCH   1  15
TORSDOF 4
ENDMDL
MODEL 3
REMARK VINA RESULT:    -6.983      2.108      5.966
REMARK INTER + INTRA:          -9.233
REMARK INTER:                  -8.837
REMARK INTRA:                  -0.395
REMARK UNBOUND:                -0.617
REMARK  Name = 
REMARK  5 active torsions:
REMARK  status: ('A' for Active; 'I' for Inactive)
REMARK    1  A    between atoms: C_1  and  O_2
REMARK    2  A    between atoms: O_2  and  C_3
REMARK    3  A    between atoms: C_8  and  C_9
REMARK    4  A    between atoms: C_9  and  N_10
REMARK    5  A    between atoms: C_15  and  C_16
REMARK                            x       y       z     vdW  Elec       q    Type
REMARK                         _______ _______ _______ _____ _____    ______ ____
ROOT
ATOM      1  N   UNL     1      44.091   3.411  10.988  0.00  0.00    +0.000 N 
ATOM      2  C   UNL     1      43.213   4.447  10.742  0.00  0.00    +0.000 A 
ATOM      3  C   UNL     1      43.200   5.244  11.863  0.00  0.00    +0.000 A 
ATOM      4  C   UNL     1      44.466   5.039  12.457  0.00  0.00    +0.000 A 
ATOM      5  C   UNL     1      45.322   5.836  13.234  0.00  0.00    +0.000 A 
ATOM      6  C   UNL     1      46.567   5.328  13.626  0.00  0.00    +0.000 A 
ATOM      7  C   UNL     1      46.852   3.972  13.423  0.00  0.00    +0.000 A 
ATOM      8  C   UNL     1      46.014   3.161  12.640  0.00  0.00    +0.000 A 
ATOM      9  C   UNL     1      44.899   3.770  12.058  0.00  0.00    +0.000 A 
ENDROOT
BRANCH   6  10
ATOM     10  C   UNL     1      47.573   6.308  14.147  0.00  0.00    +0.000 C 
ATOM     11  N   UNL     1      47.273   7.642  14.093  0.00  0.00    +0.000 N 
ATOM     12  O   UNL     1      48.615   5.943  14.666  0.00  0.00    +0.000 OA
ATOM     13  H   UNL     1      46.431   8.040  13.713  0.00  0.00    +0.000 HD
ATOM     14  H   UNL     1      47.940   8.270  14.525  0.00  0.00    +0.000 HD
ENDBRANCH   6  10
BRANCH   1  15
ATOM     15  C   UNL     1      44.407   2.376  10.003  0.00  0.00    +0.000 C 
BRANCH  15  21
ATOM     16  C   UNL     1      46.067   1.889   8.150  0.00  0.00    +0.000 A 
ATOM     17  C   UNL     1      47.030   2.322   7.224  0.00  0.00    +0.000 A 
ATOM     18  C   UNL     1      47.188   3.689   6.965  0.00  0.00    +0.000 A 
ATOM     19  C   UNL     1      46.394   4.615   7.618  0.00  0.00    +0.000 A 
ATOM     20  C   UNL     1      45.434   4.193   8.547  0.00  0.00    +0.000 A 
ATOM     21  C   UNL     1      45.268   2.826   8.836  0.00  0.00    +0.000 A 
BRANCH  16  23
ATOM     22  C   UNL     1      46.493  -0.412   7.661  0.00  0.00    +0.000 C 
ATOM     23  O   UNL     1      45.859   0.570   8.460  0.00  0.00    +0.000 OA
ENDBRANCH  16  23
ENDBRANCH  15  21
ENDBRANCH   1  15
TORSDOF 4
ENDMDL
MODEL 4
REMARK VINA RESULT:    -6.611      2.671      6.451
REMARK INTER + INTRA:          -8.774
REMARK INTER:                  -8.046
REMARK INTRA:                  -0.727
REMARK UNBOUND:                -0.617
REMARK  Name = 
REMARK  5 active torsions:
REMARK  status: ('A' for Active; 'I' for Inactive)
REMARK    1  A    between atoms: C_1  and  O_2
REMARK    2  A    between atoms: O_2  and  C_3
REMARK    3  A    between atoms: C_8  and  C_9
REMARK    4  A    between atoms: C_9  and  N_10
REMARK    5  A    between atoms: C_15  and  C_16
REMARK                            x       y       z     vdW  Elec       q    Type
REMARK                         _______ _______ _______ _____ _____    ______ ____
ROOT
ATOM      1  N   UNL     1      45.913   5.554  12.120  0.00  0.00    +0.000 N 
ATOM      2  C   UNL     1      45.663   4.829  13.267  0.00  0.00    +0.000 A 
ATOM      3  C   UNL     1      46.803   4.877  14.035  0.00  0.00    +0.000 A 
ATOM      4  C   UNL     1      47.435   6.082  13.653  0.00  0.00    +0.000 A 
ATOM      5  C   UNL     1      48.262   7.005  14.315  0.00  0.00    +0.000 A 
ATOM      6  C   UNL     1      48.685   8.157  13.640  0.00  0.00    +0.000 A 
ATOM      7  C   UNL     1      48.457   8.270  12.262  0.00  0.00    +0.000 A 
ATOM      8  C   UNL     1      47.625   7.363  11.585  0.00  0.00    +0.000 A 
ATOM      9  C   UNL     1      47.020   6.360  12.347  0.00  0.00    +0.000 A 
ENDROOT
BRANCH   6  10
ATOM     10  C   UNL     1      49.266   9.262  14.468  0.00  0.00    +0.000 C 
ATOM     11  N   UNL     1      48.439   9.940  15.322  0.00  0.00    +0.000 N 
ATOM     12  O   UNL     1      50.457   9.526  14.440  0.00  0.00    +0.000 OA
ATOM     13  H   UNL     1      47.453   9.778  15.438  0.00  0.00    +0.000 HD
ATOM     14  H   UNL     1      48.880  10.626  15.923  0.00  0.00    +0.000 HD
ENDBRANCH   6  10
BRANCH   1  15
ATOM     15  C   UNL     1      44.914   5.769  11.073  0.00  0.00    +0.000 C 
BRANCH  15  21
ATOM     16  C   UNL     1      44.248   3.635   9.877  0.00  0.00    +0.000 A 
ATOM     17  C   UNL     1      44.483   2.654   8.900  0.00  0.00    +0.000 A 
ATOM     18  C   UNL     1      45.457   2.866   7.915  0.00  0.00    +0.000 A 
ATOM     19  C   UNL     1      46.185   4.042   7.903  0.00  0.00    +0.000 A 
ATOM     20  C   UNL     1      45.960   5.024   8.876  0.00  0.00    +0.000 A 
ATOM     21  C   UNL     1      44.999   4.827   9.884  0.00  0.00    +0.000 A 
BRANCH  16  23
ATOM     22  C   UNL     1      43.419   2.375  11.733  0.00  0.00    +0.000 C 
ATOM     23  O   UNL     1      43.317   3.498  10.875  0.00  0.00    +0.000 OA
ENDBRANCH  16  23
ENDBRANCH  15  21
ENDBRANCH   1  15
TORSDOF 4
ENDMDL
MODEL 5
REMARK VINA RESULT:    -6.589      1.557      2.307
REMARK INTER + INTRA:          -8.747
REMARK INTER:                  -8.270
REMARK INTRA:                  -0.476
REMARK UNBOUND:                -0.617
REMARK  Name = 
REMARK  5 active torsions:
REMARK  status: ('A' for Active; 'I' for Inactive)
REMARK    1  A    between atoms: C_1  and  O_2
REMARK    2  A    between atoms: O_2  and  C_3
REMARK    3  A    between atoms: C_8  and  C_9
REMARK    4  A    between atoms: C_9  and  N_10
REMARK    5  A    between atoms: C_15  and  C_16
REMARK                            x       y       z     vdW  Elec       q    Type
REMARK                         _______ _______ _______ _____ _____    ______ ____
ROOT
ATOM      1  N   UNL     1      45.014   4.479  11.345  0.00  0.00    +0.000 N 
ATOM      2  C   UNL     1      44.359   3.339  11.766  0.00  0.00    +0.000 A 
ATOM      3  C   UNL     1      43.868   2.713  10.644  0.00  0.00    +0.000 A 
ATOM      4  C   UNL     1      44.735   3.121   9.605  0.00  0.00    +0.000 A 
ATOM      5  C   UNL     1      45.175   2.528   8.410  0.00  0.00    +0.000 A 
ATOM      6  C   UNL     1      46.105   3.203   7.610  0.00  0.00    +0.000 A 
ATOM      7  C   UNL     1      46.421   4.538   7.897  0.00  0.00    +0.000 A 
ATOM      8  C   UNL     1      45.998   5.145   9.092  0.00  0.00    +0.000 A 
ATOM      9  C   UNL     1      45.271   4.355   9.986  0.00  0.00    +0.000 A 
ENDROOT
BRANCH   6  10
ATOM     10  C   UNL     1      46.798   2.409   6.546  0.00  0.00    +0.000 C 
ATOM     11  N   UNL     1      47.153   3.043   5.386  0.00  0.00    +0.000 N 
ATOM     12  O   UNL     1      47.101   1.239   6.713  0.00  0.00    +0.000 OA
ATOM     13  H   UNL     1      46.976   4.008   5.165  0.00  0.00    +0.000 HD
ATOM     14  H   UNL     1      47.689   2.496   4.722  0.00  0.00    +0.000 HD
ENDBRANCH   6  10
BRANCH   1  15
ATOM     15  C   UNL     1      45.710   5.388  12.255  0.00  0.00    +0.000 C 
BRANCH  15  21
ATOM     16  C   UNL     1      46.622   7.753  12.283  0.00  0.00    +0.000 A 
ATOM     17  C   UNL     1      46.430   9.141  12.187  0.00  0.00    +0.000 A 
ATOM     18  C   UNL     1      45.212   9.648  11.716  0.00  0.00    +0.000 A 
ATOM     19  C   UNL     1      44.199   8.783  11.343  0.00  0.00    +0.000 A 
ATOM     20  C   UNL     1      44.381   7.398  11.439  0.00  0.00    +0.000 A 
ATOM     21  C   UNL     1      45.589   6.865  11.924  0.00  0.00    +0.000 A 
BRANCH  16  23
ATOM     22  C   UNL     1      48.986   7.478  12.054  0.00  0.00    +0.000 C 
ATOM     23  O   UNL     1      47.782   7.182  12.739  0.00  0.00    +0.000 OA
ENDBRANCH  16  23
ENDBRANCH  15  21
ENDBRANCH   1  15
TORSDOF 4
ENDMDL
MODEL 6
REMARK VINA RESULT:    -6.293      3.240      5.567
REMARK INTER + INTRA:          -8.381
REMARK INTER:                  -7.820
REMARK INTRA:                  -0.561
REMARK UNBOUND:                -0.617
REMARK  Name = 
REMARK  5 active torsions:
REMARK  status: ('A' for Active; 'I' for Inactive)
REMARK    1  A    between atoms: C_1  and  O_2
REMARK    2  A    between atoms: O_2  and  C_3
REMARK    3  A    between atoms: C_8  and  C_9
REMARK    4  A    between atoms: C_9  and  N_10
REMARK    5  A    between atoms: C_15  and  C_16
REMARK                            x       y       z     vdW  Elec       q    Type
REMARK                         _______ _______ _______ _____ _____    ______ ____
ROOT
ATOM      1  N   UNL     1      47.363   5.027  14.699  0.00  0.00    +0.000 N 
ATOM      2  C   UNL     1      47.853   6.297  14.468  0.00  0.00    +0.000 A 
ATOM      3  C   UNL     1      47.869   6.486  13.106  0.00  0.00    +0.000 A 
ATOM      4  C   UNL     1      46.853   5.632  12.619  0.00  0.00    +0.000 A 
ATOM      5  C   UNL     1      45.983   5.676  11.518  0.00  0.00    +0.000 A 
ATOM      6  C   UNL     1      45.032   4.662  11.352  0.00  0.00    +0.000 A 
ATOM      7  C   UNL     1      45.098   3.518  12.157  0.00  0.00    +0.000 A 
ATOM      8  C   UNL     1      45.954   3.458  13.269  0.00  0.00    +0.000 A 
ATOM      9  C   UNL     1      46.718   4.595  13.548  0.00  0.00    +0.000 A 
ENDROOT
BRANCH   6  10
ATOM     10  C   UNL     1      43.919   4.919  10.382  0.00  0.00    +0.000 C 
ATOM     11  N   UNL     1      44.051   4.456   9.101  0.00  0.00    +0.000 N 
ATOM     12  O   UNL     1      42.886   5.473  10.723  0.00  0.00    +0.000 OA
ATOM     13  H   UNL     1      44.847   3.965   8.733  0.00  0.00    +0.000 HD
ATOM     14  H   UNL     1      43.248   4.578   8.495  0.00  0.00    +0.000 HD
ENDBRANCH   6  10
BRANCH   1  15
ATOM     15  C   UNL     1      47.155   4.478  16.038  0.00  0.00    +0.000 C 
BRANCH  15  21
ATOM     16  C   UNL     1      49.308   4.607  17.372  0.00  0.00    +0.000 A 
ATOM     17  C   UNL     1      50.539   4.059  17.766  0.00  0.00    +0.000 A 
ATOM     18  C   UNL     1      50.833   2.719  17.479  0.00  0.00    +0.000 A 
ATOM     19  C   UNL     1      49.911   1.936  16.809  0.00  0.00    +0.000 A 
ATOM     20  C   UNL     1      48.682   2.476  16.408  0.00  0.00    +0.000 A 
ATOM     21  C   UNL     1      48.371   3.822  16.671  0.00  0.00    +0.000 A 
BRANCH  16  23
ATOM     22  C   UNL     1      48.816   6.327  18.959  0.00  0.00    +0.000 C 
ATOM     23  O   UNL     1      48.951   5.909  17.612  0.00  0.00    +0.000 OA
ENDBRANCH  16  23
ENDBRANCH  15  21
ENDBRANCH   1  15
TORSDOF 4
ENDMDL
MODEL 7
REMARK VINA RESULT:    -6.201      2.862      5.930
REMARK INTER + INTRA:          -8.269
REMARK INTER:                  -7.764
REMARK INTRA:                  -0.504
REMARK UNBOUND:                -0.617
REMARK  Name = 
REMARK  5 active torsions:
REMARK  status: ('A' for Active; 'I' for Inactive)
REMARK    1  A    between atoms: C_1  and  O_2
REMARK    2  A    between atoms: O_2  and  C_3
REMARK    3  A    between atoms: C_8  and  C_9
REMARK    4  A    between atoms: C_9  and  N_10
REMARK    5  A    between atoms: C_15  and  C_16
REMARK                            x       y       z     vdW  Elec       q    Type
REMARK                         _______ _______ _______ _____ _____    ______ ____
ROOT
ATOM      1  N   UNL     1      45.351   6.993  12.168  0.00  0.00    +0.000 N 
ATOM      2  C   UNL     1      44.810   8.172  11.700  0.00  0.00    +0.000 A 
ATOM      3  C   UNL     1      45.680   9.182  12.038  0.00  0.00    +0.000 A 
ATOM      4  C   UNL     1      46.941   8.548  12.122  0.00  0.00    +0.000 A 
ATOM      5  C   UNL     1      48.262   8.966  11.895  0.00  0.00    +0.000 A 
ATOM      6  C   UNL     1      49.307   8.042  12.022  0.00  0.00    +0.000 A 
ATOM      7  C   UNL     1      49.047   6.781  12.575  0.00  0.00    +0.000 A 
ATOM      8  C   UNL     1      47.732   6.341  12.799  0.00  0.00    +0.000 A 
ATOM      9  C   UNL     1      46.698   7.205  12.429  0.00  0.00    +0.000 A 
ENDROOT
BRANCH   6  10
ATOM     10  C   UNL     1      50.636   8.428  11.448  0.00  0.00    +0.000 C 
ATOM     11  N   UNL     1      51.546   7.439  11.190  0.00  0.00    +0.000 N 
ATOM     12  O   UNL     1      50.897   9.583  11.155  0.00  0.00    +0.000 OA
ATOM     13  H   UNL     1      51.414   6.457  11.368  0.00  0.00    +0.000 HD
ATOM     14  H   UNL     1      52.401   7.726  10.729  0.00  0.00    +0.000 HD
ENDBRANCH   6  10
BRANCH   1  15
ATOM     15  C   UNL     1      44.730   5.685  11.958  0.00  0.00    +0.000 C 
BRANCH  15  21
ATOM     16  C   UNL     1      44.083   4.003  10.174  0.00  0.00    +0.000 A 
ATOM     17  C   UNL     1      44.346   3.337   8.966  0.00  0.00    +0.000 A 
ATOM     18  C   UNL     1      45.367   3.795   8.122  0.00  0.00    +0.000 A 
ATOM     19  C   UNL     1      46.114   4.903   8.476  0.00  0.00    +0.000 A 
ATOM     20  C   UNL     1      45.862   5.571   9.681  0.00  0.00    +0.000 A 
ATOM     21  C   UNL     1      44.853   5.121  10.552  0.00  0.00    +0.000 A 
BRANCH  16  23
ATOM     22  C   UNL     1      43.333   2.449  11.829  0.00  0.00    +0.000 C 
ATOM     23  O   UNL     1      43.107   3.612  11.053  0.00  0.00    +0.000 OA
ENDBRANCH  16  23
ENDBRANCH  15  21
ENDBRANCH   1  15
TORSDOF 4
ENDMDL
MODEL 8
REMARK VINA RESULT:    -6.081      3.315      5.792
REMARK INTER + INTRA:          -8.120
REMARK INTER:                  -7.646
REMARK INTRA:                  -0.474
REMARK UNBOUND:                -0.617
REMARK  Name = 
REMARK  5 active torsions:
REMARK  status: ('A' for Active; 'I' for Inactive)
REMARK    1  A    between atoms: C_1  and  O_2
REMARK    2  A    between atoms: O_2  and  C_3
REMARK    3  A    between atoms: C_8  and  C_9
REMARK    4  A    between atoms: C_9  and  N_10
REMARK    5  A    between atoms: C_15  and  C_16
REMARK                            x       y       z     vdW  Elec       q    Type
REMARK                         _______ _______ _______ _____ _____    ______ ____
ROOT
ATOM      1  N   UNL     1      47.433   4.716  14.872  0.00  0.00    +0.000 N 
ATOM      2  C   UNL     1      47.825   6.039  14.848  0.00  0.00    +0.000 A 
ATOM      3  C   UNL     1      47.809   6.445  13.535  0.00  0.00    +0.000 A 
ATOM      4  C   UNL     1      46.853   5.606  12.918  0.00  0.00    +0.000 A 
ATOM      5  C   UNL     1      45.968   5.761  11.838  0.00  0.00    +0.000 A 
ATOM      6  C   UNL     1      45.091   4.718  11.512  0.00  0.00    +0.000 A 
ATOM      7  C   UNL     1      45.252   3.468  12.123  0.00  0.00    +0.000 A 
ATOM      8  C   UNL     1      46.125   3.295  13.211  0.00  0.00    +0.000 A 
ATOM      9  C   UNL     1      46.806   4.426  13.668  0.00  0.00    +0.000 A 
ENDROOT
BRANCH   6  10
ATOM     10  C   UNL     1      43.950   5.043  10.598  0.00  0.00    +0.000 C 
ATOM     11  N   UNL     1      44.045   4.677   9.282  0.00  0.00    +0.000 N 
ATOM     12  O   UNL     1      42.928   5.567  11.009  0.00  0.00    +0.000 OA
ATOM     13  H   UNL     1      44.830   4.216   8.855  0.00  0.00    +0.000 HD
ATOM     14  H   UNL     1      43.224   4.841   8.711  0.00  0.00    +0.000 HD
ENDBRANCH   6  10
BRANCH   1  15
ATOM     15  C   UNL     1      47.283   3.945  16.107  0.00  0.00    +0.000 C 
BRANCH  15  21
ATOM     16  C   UNL     1      49.238   4.185  17.704  0.00  0.00    +0.000 A 
ATOM     17  C   UNL     1      49.760   4.563  18.951  0.00  0.00    +0.000 A 
ATOM     18  C   UNL     1      48.984   5.325  19.834  0.00  0.00    +0.000 A 
ATOM     19  C   UNL     1      47.704   5.709  19.477  0.00  0.00    +0.000 A 
ATOM     20  C   UNL     1      47.173   5.333  18.236  0.00  0.00    +0.000 A 
ATOM     21  C   UNL     1      47.927   4.554  17.340  0.00  0.00    +0.000 A 
BRANCH  16  23
ATOM     22  C   UNL     1      50.402   2.160  17.192  0.00  0.00    +0.000 C 
ATOM     23  O   UNL     1      49.933   3.436  16.791  0.00  0.00    +0.000 OA
ENDBRANCH  16  23
ENDBRANCH  15  21
ENDBRANCH   1  15
TORSDOF 4
ENDMDL
MODEL 9
REMARK VINA RESULT:    -5.837      2.336      3.424
REMARK INTER + INTRA:          -7.818
REMARK INTER:                  -7.035
REMARK INTRA:                  -0.783
REMARK UNBOUND:                -0.617
REMARK  Name = 
REMARK  5 active torsions:
REMARK  status: ('A' for Active; 'I' for Inactive)
REMARK    1  A    between atoms: C_1  and  O_2
REMARK    2  A    between atoms: O_2  and  C_3
REMARK    3  A    between atoms: C_8  and  C_9
REMARK    4  A    between atoms: C_9  and  N_10
REMARK    5  A    between atoms: C_15  and  C_16
REMARK                            x       y       z     vdW  Elec       q    Type
REMARK                         _______ _______ _______ _____ _____    ______ ____
ROOT
ATOM      1  N   UNL     1      46.378   6.147  13.303  0.00  0.00    +0.000 N 
ATOM      2  C   UNL     1      47.062   5.148  13.966  0.00  0.00    +0.000 A 
ATOM      3  C   UNL     1      46.358   3.981  13.781  0.00  0.00    +0.000 A 
ATOM      4  C   UNL     1      45.671   4.173  12.561  0.00  0.00    +0.000 A 
ATOM      5  C   UNL     1      45.239   3.314  11.536  0.00  0.00    +0.000 A 
ATOM      6  C   UNL     1      44.616   3.854  10.404  0.00  0.00    +0.000 A 
ATOM      7  C   UNL     1      44.243   5.204  10.401  0.00  0.00    +0.000 A 
ATOM      8  C   UNL     1      44.673   6.081  11.411  0.00  0.00    +0.000 A 
ATOM      9  C   UNL     1      45.504   5.553  12.402  0.00  0.00    +0.000 A 
ENDROOT
BRANCH   6  10
ATOM     10  C   UNL     1      44.484   2.964   9.206  0.00  0.00    +0.000 C 
ATOM     11  N   UNL     1      44.408   3.545   7.968  0.00  0.00    +0.000 N 
ATOM     12  O   UNL     1      44.503   1.748   9.304  0.00  0.00    +0.000 OA
ATOM     13  H   UNL     1      44.415   4.533   7.781  0.00  0.00    +0.000 HD
ATOM     14  H   UNL     1      44.400   2.913   7.177  0.00  0.00    +0.000 HD
ENDBRANCH   6  10
BRANCH   1  15
ATOM     15  C   UNL     1      46.847   7.531  13.233  0.00  0.00    +0.000 C 
BRANCH  15  21
ATOM     16  C   UNL     1      49.190   8.168  13.965  0.00  0.00    +0.000 A 
ATOM     17  C   UNL     1      50.507   8.546  13.660  0.00  0.00    +0.000 A 
ATOM     18  C   UNL     1      50.978   8.447  12.344  0.00  0.00    +0.000 A 
ATOM     19  C   UNL     1      50.146   7.975  11.344  0.00  0.00    +0.000 A 
ATOM     20  C   UNL     1      48.829   7.600  11.639  0.00  0.00    +0.000 A 
ATOM     21  C   UNL     1      48.329   7.706  12.949  0.00  0.00    +0.000 A 
BRANCH  16  23
ATOM     22  C   UNL     1      49.157   7.360  16.215  0.00  0.00    +0.000 C 
ATOM     23  O   UNL     1      48.657   8.242  15.225  0.00  0.00    +0.000 OA
ENDBRANCH  16  23
ENDBRANCH  15  21
ENDBRANCH   1  15
TORSDOF 4
ENDMDL
