MODEL 1
REMARK VINA RESULT:    -9.022      0.000      0.000
REMARK INTER + INTRA:         -12.311
REMARK INTER:                 -12.187
REMARK INTRA:                  -0.124
REMARK UNBOUND:                -0.124
REMARK  Name = 
REMARK  7 active torsions:
REMARK  status: ('A' for Active; 'I' for Inactive)
REMARK    1  A    between atoms: C_1  and  O_2
REMARK    2  A    between atoms: O_2  and  C_3
REMARK    3  A    between atoms: C_5  and  C_6
REMARK    4  A    between atoms: C_6  and  N_7
REMARK    5  A    between atoms: C_11  and  C_12
REMARK    6  A    between atoms: C_22  and  C_23
REMARK    7  A    between atoms: C_26  and  C_27
REMARK                            x       y       z     vdW  Elec       q    Type
REMARK                         _______ _______ _______ _____ _____    ______ ____
ROOT
ATOM      1  C   UNL     1      46.436   7.121  13.240  0.00  0.00    +0.000 A 
ATOM      2  C   UNL     1      45.354   6.792  12.407  0.00  0.00    +0.000 A 
ATOM      3  C   UNL     1      44.991   5.465  12.135  0.00  0.00    +0.000 A 
ATOM      4  C   UNL     1      45.733   4.465  12.769  0.00  0.00    +0.000 A 
ATOM      5  C   UNL     1      46.799   4.778  13.612  0.00  0.00    +0.000 A 
ATOM      6  F   UNL     1      47.451   3.745  14.173  0.00  0.00    +0.000 F 
ATOM      7  C   UNL     1      47.203   6.101  13.858  0.00  0.00    +0.000 A 
ENDROOT
BRANCH   7   8
ATOM      8  C   UNL     1      48.368   6.395  14.735  0.00  0.00    +0.000 A 
ATOM      9  C   UNL     1      48.430   5.912  16.056  0.00  0.00    +0.000 A 
ATOM     10  C   UNL     1      49.565   6.091  16.852  0.00  0.00    +0.000 A 
ATOM     11  C   UNL     1      50.657   6.804  16.358  0.00  0.00    +0.000 A 
ATOM     12  C   UNL     1      50.592   7.363  15.082  0.00  0.00    +0.000 A 
ATOM     13  C   UNL     1      49.464   7.148  14.280  0.00  0.00    +0.000 A 
BRANCH  11  14
ATOM     14  C   UNL     1      51.858   6.937  17.226  0.00  0.00    +0.000 C 
ATOM     15  N   UNL     1      52.812   5.963  17.130  0.00  0.00    +0.000 N 
ATOM     16  O   UNL     1      51.975   7.853  18.030  0.00  0.00    +0.000 OA
ATOM     17  H   UNL     1      52.633   5.073  16.688  0.00  0.00    +0.000 HD
ATOM     18  H   UNL     1      53.555   6.003  17.815  0.00  0.00    +0.000 HD
ENDBRANCH  11  14
ENDBRANCH   7   8
BRANCH   3  19
ATOM     19  C   UNL     1      43.867   5.155  11.152  0.00  0.00    +0.000 C 
ATOM     20  C   UNL     1      42.439   5.420  11.585  0.00  0.00    +0.000 C 
ATOM     21  C   UNL     1      42.930   4.011  11.551  0.00  0.00    +0.000 C 
BRANCH  19  22
ATOM     22  N   UNL     1      44.270   5.161   9.743  0.00  0.00    +0.000 N 
ATOM     23  C   UNL     1      45.009   4.177   9.089  0.00  0.00    +0.000 A 
ATOM     24  C   UNL     1      45.046   2.844   9.482  0.00  0.00    +0.000 A 
ATOM     25  C   UNL     1      45.772   1.915   8.734  0.00  0.00    +0.000 A 
ATOM     26  C   UNL     1      46.459   2.344   7.602  0.00  0.00    +0.000 A 
ATOM     27  C   UNL     1      46.388   3.692   7.283  0.00  0.00    +0.000 A 
ATOM     28  N   UNL     1      45.670   4.603   7.991  0.00  0.00    +0.000 NA
ATOM     29  H   UNL     1      44.478   6.047   9.291  0.00  0.00    +0.000 HD
BRANCH  26  30
ATOM     30  C   UNL     1      47.273   1.446   6.758  0.00  0.00    +0.000 C 
ATOM     31  N   UNL     1      48.278   2.004   6.022  0.00  0.00    +0.000 N 
ATOM     32  O   UNL     1      47.072   0.238   6.738  0.00  0.00    +0.000 OA
ATOM     33  H   UNL     1      48.629   2.937   6.184  0.00  0.00    +0.000 HD
ATOM     34  H   UNL     1      48.881   1.359   5.522  0.00  0.00    +0.000 HD
ENDBRANCH  26  30
ENDBRANCH  19  22
ENDBRANCH   3  19
BRANCH   1  36
ATOM     35  C   UNL     1      46.838   9.324  12.374  0.00  0.00    +0.000 C 
ATOM     36  O   UNL     1      46.825   8.416  13.465  0.00  0.00    +0.000 OA
ENDBRANCH   1  36
TORSDOF 6
ENDMDL
MODEL 2
REMARK VINA RESULT:    -8.647      1.894      2.422
REMARK INTER + INTRA:         -11.805
REMARK INTER:                 -11.235
REMARK INTRA:                  -0.570
REMARK UNBOUND:                -0.124
REMARK  Name = 
REMARK  7 active torsions:
REMARK  status: ('A' for Active; 'I' for Inactive)
REMARK    1  A    between atoms: C_1  and  O_2
REMARK    2  A    between atoms: O_2  and  C_3
REMARK    3  A    between atoms: C_5  and  C_6
REMARK    4  A    between atoms: C_6  and  N_7
REMARK    5  A    between atoms: C_11  and  C_12
REMARK    6  A    between atoms: C_22  and  C_23
REMARK    7  A    between atoms: C_26  and  C_27
REMARK                            x       y       z     vdW  Elec       q    Type
REMARK                         _______ _______ _______ _____ _____    ______ ____
ROOT
ATOM      1  C   UNL     1      46.883   5.516  13.282  0.00  0.00    +0.000 A 
ATOM      2  C   UNL     1      45.786   5.006  12.567  0.00  0.00    +0.000 A 
ATOM      3  C   UNL     1      44.977   5.814  11.755  0.00  0.00    +0.000 A 
ATOM      4  C   UNL     1      45.335   7.161  11.648  0.00  0.00    +0.000 A 
ATOM      5  C   UNL     1      46.432   7.676  12.338  0.00  0.00    +0.000 A 
ATOM      6  F   UNL     1      46.692   8.984  12.170  0.00  0.00    +0.000 F 
ATOM      7  C   UNL     1      47.224   6.889  13.191  0.00  0.00    +0.000 A 
ENDROOT
BRANCH   7   8
ATOM      8  C   UNL     1      48.364   7.483  13.939  0.00  0.00    +0.000 A 
ATOM      9  C   UNL     1      49.668   7.487  13.405  0.00  0.00    +0.000 A 
ATOM     10  C   UNL     1      50.724   8.136  14.050  0.00  0.00    +0.000 A 
ATOM     11  C   UNL     1      50.512   8.762  15.278  0.00  0.00    +0.000 A 
ATOM     12  C   UNL     1      49.250   8.704  15.870  0.00  0.00    +0.000 A 
ATOM     13  C   UNL     1      48.190   8.082  15.199  0.00  0.00    +0.000 A 
BRANCH  11  14
ATOM     14  C   UNL     1      51.657   9.472  15.910  0.00  0.00    +0.000 C 
ATOM     15  N   UNL     1      52.369  10.335  15.125  0.00  0.00    +0.000 N 
ATOM     16  O   UNL     1      51.985   9.263  17.071  0.00  0.00    +0.000 OA
ATOM     17  H   UNL     1      52.299  10.332  14.118  0.00  0.00    +0.000 HD
ATOM     18  H   UNL     1      53.215  10.708  15.535  0.00  0.00    +0.000 HD
ENDBRANCH  11  14
ENDBRANCH   7   8
BRANCH   3  19
ATOM     19  C   UNL     1      43.742   5.236  11.071  0.00  0.00    +0.000 C 
ATOM     20  C   UNL     1      42.387   5.490  11.700  0.00  0.00    +0.000 C 
ATOM     21  C   UNL     1      43.006   4.139  11.845  0.00  0.00    +0.000 C 
BRANCH  19  22
ATOM     22  N   UNL     1      43.903   4.981   9.637  0.00  0.00    +0.000 N 
ATOM     23  C   UNL     1      44.736   4.027   9.054  0.00  0.00    +0.000 A 
ATOM     24  C   UNL     1      45.142   2.859   9.689  0.00  0.00    +0.000 A 
ATOM     25  C   UNL     1      45.935   1.933   9.008  0.00  0.00    +0.000 A 
ATOM     26  C   UNL     1      46.315   2.200   7.696  0.00  0.00    +0.000 A 
ATOM     27  C   UNL     1      45.883   3.394   7.135  0.00  0.00    +0.000 A 
ATOM     28  N   UNL     1      45.096   4.295   7.780  0.00  0.00    +0.000 NA
ATOM     29  H   UNL     1      43.825   5.755   8.984  0.00  0.00    +0.000 HD
BRANCH  26  30
ATOM     30  C   UNL     1      47.168   1.298   6.898  0.00  0.00    +0.000 C 
ATOM     31  N   UNL     1      48.280   1.829   6.309  0.00  0.00    +0.000 N 
ATOM     32  O   UNL     1      46.905   0.107   6.789  0.00  0.00    +0.000 OA
ATOM     33  H   UNL     1      48.661   2.730   6.562  0.00  0.00    +0.000 HD
ATOM     34  H   UNL     1      48.899   1.175   5.844  0.00  0.00    +0.000 HD
ENDBRANCH  26  30
ENDBRANCH  19  22
ENDBRANCH   3  19
BRANCH   1  36
ATOM     35  C   UNL     1      47.085   4.318  15.353  0.00  0.00    +0.000 C 
ATOM     36  O   UNL     1      47.643   4.740  14.117  0.00  0.00    +0.000 OA
ENDBRANCH   1  36
TORSDOF 6
ENDMDL
MODEL 3
REMARK VINA RESULT:    -7.472      2.025      2.315
REMARK INTER + INTRA:         -10.217
REMARK INTER:                  -8.930
REMARK INTRA:                  -1.287
REMARK UNBOUND:                -0.124
REMARK  Name = 
REMARK  7 active torsions:
REMARK  status: ('A' for Active; 'I' for Inactive)
REMARK    1  A    between atoms: C_1  and  O_2
REMARK    2  A    between atoms: O_2  and  C_3
REMARK    3  A    between atoms: C_5  and  C_6
REMARK    4  A    between atoms: C_6  and  N_7
REMARK    5  A    between atoms: C_11  and  C_12
REMARK    6  A    between atoms: C_22  and  C_23
REMARK    7  A    between atoms: C_26  and  C_27
REMARK                            x       y       z     vdW  Elec       q    Type
REMARK                         _______ _______ _______ _____ _____    ______ ____
ROOT
ATOM      1  C   UNL     1      46.650   7.754  12.441  0.00  0.00    +0.000 A 
ATOM      2  C   UNL     1      45.621   6.961  11.907  0.00  0.00    +0.000 A 
ATOM      3  C   UNL     1      45.340   5.672  12.384  0.00  0.00    +0.000 A 
ATOM      4  C   UNL     1      46.110   5.215  13.458  0.00  0.00    +0.000 A 
ATOM      5  C   UNL     1      47.122   6.000  14.010  0.00  0.00    +0.000 A 
ATOM      6  F   UNL     1      47.806   5.470  15.038  0.00  0.00    +0.000 F 
ATOM      7  C   UNL     1      47.445   7.273  13.512  0.00  0.00    +0.000 A 
ENDROOT
BRANCH   7   8
ATOM      8  C   UNL     1      48.557   8.066  14.103  0.00  0.00    +0.000 A 
ATOM      9  C   UNL     1      49.879   7.933  13.637  0.00  0.00    +0.000 A 
ATOM     10  C   UNL     1      50.911   8.749  14.111  0.00  0.00    +0.000 A 
ATOM     11  C   UNL     1      50.652   9.694  15.103  0.00  0.00    +0.000 A 
ATOM     12  C   UNL     1      49.369   9.792  15.641  0.00  0.00    +0.000 A 
ATOM     13  C   UNL     1      48.335   8.995  15.135  0.00  0.00    +0.000 A 
BRANCH  11  14
ATOM     14  C   UNL     1      51.773  10.565  15.550  0.00  0.00    +0.000 C 
ATOM     15  N   UNL     1      52.242  10.380  16.820  0.00  0.00    +0.000 N 
ATOM     16  O   UNL     1      52.230  11.447  14.833  0.00  0.00    +0.000 OA
ATOM     17  H   UNL     1      51.727   9.862  17.516  0.00  0.00    +0.000 HD
ATOM     18  H   UNL     1      52.913  11.063  17.146  0.00  0.00    +0.000 HD
ENDBRANCH  11  14
ENDBRANCH   7   8
BRANCH   3  19
ATOM     19  C   UNL     1      44.275   4.811  11.713  0.00  0.00    +0.000 C 
ATOM     20  C   UNL     1      43.024   5.492  11.194  0.00  0.00    +0.000 C 
ATOM     21  C   UNL     1      42.941   4.702  12.458  0.00  0.00    +0.000 C 
BRANCH  19  22
ATOM     22  N   UNL     1      44.773   3.554  11.148  0.00  0.00    +0.000 N 
ATOM     23  C   UNL     1      45.293   3.371   9.868  0.00  0.00    +0.000 A 
ATOM     24  C   UNL     1      45.890   4.380   9.120  0.00  0.00    +0.000 A 
ATOM     25  C   UNL     1      46.432   4.092   7.866  0.00  0.00    +0.000 A 
ATOM     26  C   UNL     1      46.358   2.791   7.377  0.00  0.00    +0.000 A 
ATOM     27  C   UNL     1      45.733   1.842   8.174  0.00  0.00    +0.000 A 
ATOM     28  N   UNL     1      45.218   2.105   9.404  0.00  0.00    +0.000 NA
ATOM     29  H   UNL     1      44.341   2.679  11.429  0.00  0.00    +0.000 HD
BRANCH  26  30
ATOM     30  C   UNL     1      46.880   2.390   6.055  0.00  0.00    +0.000 C 
ATOM     31  N   UNL     1      47.098   3.372   5.133  0.00  0.00    +0.000 N 
ATOM     32  O   UNL     1      47.135   1.219   5.802  0.00  0.00    +0.000 OA
ATOM     33  H   UNL     1      47.130   4.354   5.369  0.00  0.00    +0.000 HD
ATOM     34  H   UNL     1      47.542   3.086   4.267  0.00  0.00    +0.000 HD
ENDBRANCH  26  30
ENDBRANCH  19  22
ENDBRANCH   3  19
BRANCH   1  36
ATOM     35  C   UNL     1      46.025  10.047  12.107  0.00  0.00    +0.000 C 
ATOM     36  O   UNL     1      46.960   8.992  11.942  0.00  0.00    +0.000 OA
ENDBRANCH   1  36
TORSDOF 6
ENDMDL
MODEL 4
REMARK VINA RESULT:    -6.895      3.304      9.110
REMARK INTER + INTRA:          -9.437
REMARK INTER:                  -8.887
REMARK INTRA:                  -0.550
REMARK UNBOUND:                -0.124
REMARK  Name = 
REMARK  7 active torsions:
REMARK  status: ('A' for Active; 'I' for Inactive)
REMARK    1  A    between atoms: C_1  and  O_2
REMARK    2  A    between atoms: O_2  and  C_3
REMARK    3  A    between atoms: C_5  and  C_6
REMARK    4  A    between atoms: C_6  and  N_7
REMARK    5  A    between atoms: C_11  and  C_12
REMARK    6  A    between atoms: C_22  and  C_23
REMARK    7  A    between atoms: C_26  and  C_27
REMARK                            x       y       z     vdW  Elec       q    Type
REMARK                         _______ _______ _______ _____ _____    ______ ____
ROOT
ATOM      1  C   UNL     1      48.813   6.189  14.834  0.00  0.00    +0.000 A 
ATOM      2  C   UNL     1      49.654   6.453  15.928  0.00  0.00    +0.000 A 
ATOM      3  C   UNL     1      49.422   5.916  17.203  0.00  0.00    +0.000 A 
ATOM      4  C   UNL     1      48.326   5.059  17.336  0.00  0.00    +0.000 A 
ATOM      5  C   UNL     1      47.493   4.773  16.254  0.00  0.00    +0.000 A 
ATOM      6  F   UNL     1      46.465   3.939  16.485  0.00  0.00    +0.000 F 
ATOM      7  C   UNL     1      47.687   5.340  14.983  0.00  0.00    +0.000 A 
ENDROOT
BRANCH   7   8
ATOM      8  C   UNL     1      46.755   5.041  13.862  0.00  0.00    +0.000 A 
ATOM      9  C   UNL     1      46.592   3.729  13.376  0.00  0.00    +0.000 A 
ATOM     10  C   UNL     1      45.642   3.421  12.398  0.00  0.00    +0.000 A 
ATOM     11  C   UNL     1      44.859   4.433  11.844  0.00  0.00    +0.000 A 
ATOM     12  C   UNL     1      45.055   5.753  12.248  0.00  0.00    +0.000 A 
ATOM     13  C   UNL     1      45.985   6.047  13.254  0.00  0.00    +0.000 A 
BRANCH  11  14
ATOM     14  C   UNL     1      43.836   4.053  10.833  0.00  0.00    +0.000 C 
ATOM     15  N   UNL     1      43.813   4.765   9.667  0.00  0.00    +0.000 N 
ATOM     16  O   UNL     1      43.013   3.171  11.047  0.00  0.00    +0.000 OA
ATOM     17  H   UNL     1      44.285   5.651   9.566  0.00  0.00    +0.000 HD
ATOM     18  H   UNL     1      43.033   4.577   9.050  0.00  0.00    +0.000 HD
ENDBRANCH  11  14
ENDBRANCH   7   8
BRANCH   3  19
ATOM     19  C   UNL     1      50.309   6.304  18.381  0.00  0.00    +0.000 C 
ATOM     20  C   UNL     1      49.644   6.645  19.699  0.00  0.00    +0.000 C 
ATOM     21  C   UNL     1      50.184   7.753  18.859  0.00  0.00    +0.000 C 
BRANCH  19  22
ATOM     22  N   UNL     1      51.680   5.792  18.306  0.00  0.00    +0.000 N 
ATOM     23  C   UNL     1      52.061   4.453  18.230  0.00  0.00    +0.000 A 
ATOM     24  C   UNL     1      51.257   3.446  17.708  0.00  0.00    +0.000 A 
ATOM     25  C   UNL     1      51.742   2.140  17.622  0.00  0.00    +0.000 A 
ATOM     26  C   UNL     1      53.031   1.863  18.070  0.00  0.00    +0.000 A 
ATOM     27  C   UNL     1      53.767   2.918  18.592  0.00  0.00    +0.000 A 
ATOM     28  N   UNL     1      53.314   4.197  18.665  0.00  0.00    +0.000 NA
ATOM     29  H   UNL     1      52.423   6.292  18.787  0.00  0.00    +0.000 HD
BRANCH  26  30
ATOM     30  C   UNL     1      53.628   0.513  18.042  0.00  0.00    +0.000 C 
ATOM     31  N   UNL     1      53.519  -0.207  16.888  0.00  0.00    +0.000 N 
ATOM     32  O   UNL     1      54.226   0.063  19.012  0.00  0.00    +0.000 OA
ATOM     33  H   UNL     1      53.252   0.204  16.004  0.00  0.00    +0.000 HD
ATOM     34  H   UNL     1      54.013  -1.092  16.861  0.00  0.00    +0.000 HD
ENDBRANCH  26  30
ENDBRANCH  19  22
ENDBRANCH   3  19
BRANCH   1  36
ATOM     35  C   UNL     1      49.202   8.158  13.518  0.00  0.00    +0.000 C 
ATOM     36  O   UNL     1      49.008   6.754  13.601  0.00  0.00    +0.000 OA
ENDBRANCH   1  36
TORSDOF 6
ENDMDL
MODEL 5
REMARK VINA RESULT:    -6.558      3.176      5.468
REMARK INTER + INTRA:          -8.983
REMARK INTER:                  -7.881
REMARK INTRA:                  -1.102
REMARK UNBOUND:                -0.124
REMARK  Name = 
REMARK  7 active torsions:
REMARK  status: ('A' for Active; 'I' for Inactive)
REMARK    1  A    between atoms: C_1  and  O_2
REMARK    2  A    between atoms: O_2  and  C_3
REMARK    3  A    between atoms: C_5  and  C_6
REMARK    4  A    between atoms: C_6  and  N_7
REMARK    5  A    between atoms: C_11  and  C_12
REMARK    6  A    between atoms: C_22  and  C_23
REMARK    7  A    between atoms: C_26  and  C_27
REMARK                            x       y       z     vdW  Elec       q    Type
REMARK                         _______ _______ _______ _____ _____    ______ ____
ROOT
ATOM      1  C   UNL     1      49.088   6.248  16.538  0.00  0.00    +0.000 A 
ATOM      2  C   UNL     1      48.355   6.923  15.549  0.00  0.00    +0.000 A 
ATOM      3  C   UNL     1      48.969   7.708  14.561  0.00  0.00    +0.000 A 
ATOM      4  C   UNL     1      50.365   7.760  14.574  0.00  0.00    +0.000 A 
ATOM      5  C   UNL     1      51.107   7.080  15.540  0.00  0.00    +0.000 A 
ATOM      6  F   UNL     1      52.444   7.194  15.468  0.00  0.00    +0.000 F 
ATOM      7  C   UNL     1      50.504   6.327  16.562  0.00  0.00    +0.000 A 
ENDROOT
BRANCH   7   8
ATOM      8  C   UNL     1      51.327   5.646  17.597  0.00  0.00    +0.000 A 
ATOM      9  C   UNL     1      51.713   4.299  17.456  0.00  0.00    +0.000 A 
ATOM     10  C   UNL     1      52.574   3.682  18.368  0.00  0.00    +0.000 A 
ATOM     11  C   UNL     1      53.037   4.388  19.478  0.00  0.00    +0.000 A 
ATOM     12  C   UNL     1      52.606   5.698  19.687  0.00  0.00    +0.000 A 
ATOM     13  C   UNL     1      51.772   6.319  18.749  0.00  0.00    +0.000 A 
BRANCH  11  14
ATOM     14  C   UNL     1      53.981   3.702  20.401  0.00  0.00    +0.000 C 
ATOM     15  N   UNL     1      54.824   4.490  21.133  0.00  0.00    +0.000 N 
ATOM     16  O   UNL     1      54.040   2.481  20.475  0.00  0.00    +0.000 OA
ATOM     17  H   UNL     1      54.988   5.460  20.908  0.00  0.00    +0.000 HD
ATOM     18  H   UNL     1      55.540   4.003  21.656  0.00  0.00    +0.000 HD
ENDBRANCH  11  14
ENDBRANCH   7   8
BRANCH   3  19
ATOM     19  C   UNL     1      48.127   8.496  13.563  0.00  0.00    +0.000 C 
ATOM     20  C   UNL     1      48.817   9.087  12.350  0.00  0.00    +0.000 C 
ATOM     21  C   UNL     1      48.433   9.994  13.472  0.00  0.00    +0.000 C 
BRANCH  19  22
ATOM     22  N   UNL     1      46.702   8.154  13.563  0.00  0.00    +0.000 N 
ATOM     23  C   UNL     1      46.079   7.204  12.756  0.00  0.00    +0.000 A 
ATOM     24  C   UNL     1      46.728   6.101  12.212  0.00  0.00    +0.000 A 
ATOM     25  C   UNL     1      46.011   5.170  11.459  0.00  0.00    +0.000 A 
ATOM     26  C   UNL     1      44.648   5.367  11.255  0.00  0.00    +0.000 A 
ATOM     27  C   UNL     1      44.074   6.499  11.816  0.00  0.00    +0.000 A 
ATOM     28  N   UNL     1      44.756   7.403  12.568  0.00  0.00    +0.000 NA
ATOM     29  H   UNL     1      46.018   8.879  13.762  0.00  0.00    +0.000 HD
BRANCH  26  30
ATOM     30  C   UNL     1      43.807   4.454  10.456  0.00  0.00    +0.000 C 
ATOM     31  N   UNL     1      43.927   4.504   9.097  0.00  0.00    +0.000 N 
ATOM     32  O   UNL     1      43.046   3.658  10.993  0.00  0.00    +0.000 OA
ATOM     33  H   UNL     1      44.695   4.963   8.627  0.00  0.00    +0.000 HD
ATOM     34  H   UNL     1      43.408   3.808   8.573  0.00  0.00    +0.000 HD
ENDBRANCH  26  30
ENDBRANCH  19  22
ENDBRANCH   3  19
BRANCH   1  36
ATOM     35  C   UNL     1      47.579   4.495  17.176  0.00  0.00    +0.000 C 
ATOM     36  O   UNL     1      48.488   5.524  17.535  0.00  0.00    +0.000 OA
ENDBRANCH   1  36
TORSDOF 6
ENDMDL
MODEL 6
REMARK VINA RESULT:    -6.433      3.585      9.411
REMARK INTER + INTRA:          -8.813
REMARK INTER:                  -8.074
REMARK INTRA:                  -0.739
REMARK UNBOUND:                -0.124
REMARK  Name = 
REMARK  7 active torsions:
REMARK  status: ('A' for Active; 'I' for Inactive)
REMARK    1  A    between atoms: C_1  and  O_2
REMARK    2  A    between atoms: O_2  and  C_3
REMARK    3  A    between atoms: C_5  and  C_6
REMARK    4  A    between atoms: C_6  and  N_7
REMARK    5  A    between atoms: C_11  and  C_12
REMARK    6  A    between atoms: C_22  and  C_23
REMARK    7  A    between atoms: C_26  and  C_27
REMARK                            x       y       z     vdW  Elec       q    Type
REMARK                         _______ _______ _______ _____ _____    ______ ____
ROOT
ATOM      1  C   UNL     1      46.615   8.665  13.036  0.00  0.00    +0.000 A 
ATOM      2  C   UNL     1      47.483   9.683  13.463  0.00  0.00    +0.000 A 
ATOM      3  C   UNL     1      48.852   9.464  13.677  0.00  0.00    +0.000 A 
ATOM      4  C   UNL     1      49.336   8.182  13.404  0.00  0.00    +0.000 A 
ATOM      5  C   UNL     1      48.489   7.166  12.961  0.00  0.00    +0.000 A 
ATOM      6  F   UNL     1      49.051   5.968  12.728  0.00  0.00    +0.000 F 
ATOM      7  C   UNL     1      47.108   7.359  12.787  0.00  0.00    +0.000 A 
ENDROOT
BRANCH   7   8
ATOM      8  C   UNL     1      46.229   6.241  12.348  0.00  0.00    +0.000 A 
ATOM      9  C   UNL     1      45.921   6.041  10.989  0.00  0.00    +0.000 A 
ATOM     10  C   UNL     1      45.186   4.934  10.557  0.00  0.00    +0.000 A 
ATOM     11  C   UNL     1      44.697   4.016  11.486  0.00  0.00    +0.000 A 
ATOM     12  C   UNL     1      44.918   4.232  12.846  0.00  0.00    +0.000 A 
ATOM     13  C   UNL     1      45.685   5.326  13.266  0.00  0.00    +0.000 A 
BRANCH  11  14
ATOM     14  C   UNL     1      43.952   2.833  10.977  0.00  0.00    +0.000 C 
ATOM     15  N   UNL     1      44.438   2.222   9.856  0.00  0.00    +0.000 N 
ATOM     16  O   UNL     1      42.918   2.444  11.507  0.00  0.00    +0.000 OA
ATOM     17  H   UNL     1      45.115   2.662   9.251  0.00  0.00    +0.000 HD
ATOM     18  H   UNL     1      43.850   1.503   9.456  0.00  0.00    +0.000 HD
ENDBRANCH  11  14
ENDBRANCH   7   8
BRANCH   3  19
ATOM     19  C   UNL     1      49.738  10.575  14.230  0.00  0.00    +0.000 C 
ATOM     20  C   UNL     1      50.593  11.364  13.258  0.00  0.00    +0.000 C 
ATOM     21  C   UNL     1      51.247  10.339  14.123  0.00  0.00    +0.000 C 
BRANCH  19  22
ATOM     22  N   UNL     1      49.288  11.136  15.507  0.00  0.00    +0.000 N 
ATOM     23  C   UNL     1      48.869  10.416  16.625  0.00  0.00    +0.000 A 
ATOM     24  C   UNL     1      49.275   9.117  16.909  0.00  0.00    +0.000 A 
ATOM     25  C   UNL     1      48.847   8.492  18.081  0.00  0.00    +0.000 A 
ATOM     26  C   UNL     1      48.006   9.182  18.950  0.00  0.00    +0.000 A 
ATOM     27  C   UNL     1      47.632  10.469  18.591  0.00  0.00    +0.000 A 
ATOM     28  N   UNL     1      48.056  11.096  17.462  0.00  0.00    +0.000 NA
ATOM     29  H   UNL     1      48.790  12.021  15.512  0.00  0.00    +0.000 HD
BRANCH  26  30
ATOM     30  C   UNL     1      47.481   8.603  20.203  0.00  0.00    +0.000 C 
ATOM     31  N   UNL     1      47.656   7.265  20.407  0.00  0.00    +0.000 N 
ATOM     32  O   UNL     1      46.930   9.302  21.044  0.00  0.00    +0.000 OA
ATOM     33  H   UNL     1      48.299   6.703  19.867  0.00  0.00    +0.000 HD
ATOM     34  H   UNL     1      47.369   6.906  21.311  0.00  0.00    +0.000 HD
ENDBRANCH  26  30
ENDBRANCH  19  22
ENDBRANCH   3  19
BRANCH   1  36
ATOM     35  C   UNL     1      44.828   9.802  11.908  0.00  0.00    +0.000 C 
ATOM     36  O   UNL     1      45.269   8.863  12.877  0.00  0.00    +0.000 OA
ENDBRANCH   1  36
TORSDOF 6
ENDMDL
MODEL 7
REMARK VINA RESULT:    -6.403      3.071      9.152
REMARK INTER + INTRA:          -8.773
REMARK INTER:                  -8.063
REMARK INTRA:                  -0.710
REMARK UNBOUND:                -0.124
REMARK  Name = 
REMARK  7 active torsions:
REMARK  status: ('A' for Active; 'I' for Inactive)
REMARK    1  A    between atoms: C_1  and  O_2
REMARK    2  A    between atoms: O_2  and  C_3
REMARK    3  A    between atoms: C_5  and  C_6
REMARK    4  A    between atoms: C_6  and  N_7
REMARK    5  A    between atoms: C_11  and  C_12
REMARK    6  A    between atoms: C_22  and  C_23
REMARK    7  A    between atoms: C_26  and  C_27
REMARK                            x       y       z     vdW  Elec       q    Type
REMARK                         _______ _______ _______ _____ _____    ______ ____
ROOT
ATOM      1  C   UNL     1      46.197   8.302  12.910  0.00  0.00    +0.000 A 
ATOM      2  C   UNL     1      46.871   9.241  13.707  0.00  0.00    +0.000 A 
ATOM      3  C   UNL     1      48.177   9.032  14.174  0.00  0.00    +0.000 A 
ATOM      4  C   UNL     1      48.809   7.852  13.774  0.00  0.00    +0.000 A 
ATOM      5  C   UNL     1      48.158   6.920  12.967  0.00  0.00    +0.000 A 
ATOM      6  F   UNL     1      48.851   5.816  12.637  0.00  0.00    +0.000 F 
ATOM      7  C   UNL     1      46.834   7.094  12.529  0.00  0.00    +0.000 A 
ENDROOT
BRANCH   7   8
ATOM      8  C   UNL     1      46.160   6.059  11.699  0.00  0.00    +0.000 A 
ATOM      9  C   UNL     1      46.108   6.166  10.296  0.00  0.00    +0.000 A 
ATOM     10  C   UNL     1      45.573   5.148   9.501  0.00  0.00    +0.000 A 
ATOM     11  C   UNL     1      45.030   4.011  10.098  0.00  0.00    +0.000 A 
ATOM     12  C   UNL     1      44.994   3.914  11.488  0.00  0.00    +0.000 A 
ATOM     13  C   UNL     1      45.565   4.923  12.275  0.00  0.00    +0.000 A 
BRANCH  11  14
ATOM     14  C   UNL     1      44.505   2.937   9.211  0.00  0.00    +0.000 C 
ATOM     15  N   UNL     1      44.248   3.269   7.910  0.00  0.00    +0.000 N 
ATOM     16  O   UNL     1      44.266   1.812   9.631  0.00  0.00    +0.000 OA
ATOM     17  H   UNL     1      44.178   4.227   7.601  0.00  0.00    +0.000 HD
ATOM     18  H   UNL     1      43.775   2.564   7.361  0.00  0.00    +0.000 HD
ENDBRANCH  11  14
ENDBRANCH   7   8
BRANCH   3  19
ATOM     19  C   UNL     1      48.834  10.038  15.114  0.00  0.00    +0.000 C 
ATOM     20  C   UNL     1      49.427  11.298  14.517  0.00  0.00    +0.000 C 
ATOM     21  C   UNL     1      50.348  10.207  14.954  0.00  0.00    +0.000 C 
BRANCH  19  22
ATOM     22  N   UNL     1      48.361   9.977  16.500  0.00  0.00    +0.000 N 
ATOM     23  C   UNL     1      48.368   8.856  17.328  0.00  0.00    +0.000 A 
ATOM     24  C   UNL     1      49.253   7.792  17.188  0.00  0.00    +0.000 A 
ATOM     25  C   UNL     1      49.223   6.734  18.099  0.00  0.00    +0.000 A 
ATOM     26  C   UNL     1      48.294   6.758  19.136  0.00  0.00    +0.000 A 
ATOM     27  C   UNL     1      47.434   7.845  19.201  0.00  0.00    +0.000 A 
ATOM     28  N   UNL     1      47.465   8.890  18.332  0.00  0.00    +0.000 NA
ATOM     29  H   UNL     1      47.576  10.558  16.782  0.00  0.00    +0.000 HD
BRANCH  26  30
ATOM     30  C   UNL     1      48.167   5.679  20.136  0.00  0.00    +0.000 C 
ATOM     31  N   UNL     1      46.987   5.578  20.815  0.00  0.00    +0.000 N 
ATOM     32  O   UNL     1      49.077   4.883  20.331  0.00  0.00    +0.000 OA
ATOM     33  H   UNL     1      46.141   6.049  20.526  0.00  0.00    +0.000 HD
ATOM     34  H   UNL     1      46.888   4.777  21.429  0.00  0.00    +0.000 HD
ENDBRANCH  26  30
ENDBRANCH  19  22
ENDBRANCH   3  19
BRANCH   1  36
ATOM     35  C   UNL     1      44.625   9.498  11.546  0.00  0.00    +0.000 C 
ATOM     36  O   UNL     1      44.903   8.480  12.496  0.00  0.00    +0.000 OA
ENDBRANCH   1  36
TORSDOF 6
ENDMDL
