MODEL 1
REMARK VINA RESULT:    -6.739      0.000      0.000
REMARK INTER + INTRA:          -8.226
REMARK INTER:                  -8.118
REMARK INTRA:                  -0.108
REMARK UNBOUND:                -0.108
REMARK  Name = 
REMARK  4 active torsions:
REMARK  status: ('A' for Active; 'I' for Inactive)
REMARK    1  A    between atoms: C_2  and  C_3
REMARK    2  A    between atoms: C_6  and  C_7
REMARK    3  A    between atoms: C_7  and  C_8
REMARK    4  A    between atoms: C_11  and  O_12
REMARK                            x       y       z     vdW  Elec       q    Type
REMARK                         _______ _______ _______ _____ _____    ______ ____
ROOT
ATOM      1  C   UNL     1      44.533   4.369  11.152  0.00  0.00    +0.000 C 
ATOM      2  C   UNL     1      43.233   3.680  11.577  0.00  0.00    +0.000 C 
ATOM      3  C   UNL     1      43.179   5.083  11.072  0.00  0.00    +0.000 C 
ENDROOT
BRANCH   1   7
ATOM      4  C   UNL     1      46.248   3.199   7.382  0.00  0.00    +0.000 A 
ATOM      5  C   UNL     1      45.749   2.203   8.210  0.00  0.00    +0.000 A 
ATOM      6  C   UNL     1      45.212   2.573   9.445  0.00  0.00    +0.000 A 
ATOM      7  C   UNL     1      45.167   3.918   9.839  0.00  0.00    +0.000 A 
ATOM      8  C   UNL     1      45.713   4.826   8.926  0.00  0.00    +0.000 A 
ATOM      9  N   UNL     1      46.246   4.510   7.720  0.00  0.00    +0.000 NA
BRANCH   4  11
ATOM     10  N   UNL     1      47.258   2.656   5.049  0.00  0.00    +0.000 NA
ATOM     11  C   UNL     1      46.793   2.878   6.089  0.00  0.00    +0.000 C 
ENDBRANCH   4  11
ENDBRANCH   1   7
BRANCH   1  12
ATOM     12  C   UNL     1      45.466   4.844  12.262  0.00  0.00    +0.000 A 
ATOM     13  C   UNL     1      45.899   3.989  13.285  0.00  0.00    +0.000 A 
ATOM     14  C   UNL     1      46.890   4.390  14.181  0.00  0.00    +0.000 A 
ATOM     15  C   UNL     1      47.411   5.664  14.041  0.00  0.00    +0.000 A 
ATOM     16  N   UNL     1      46.987   6.549  13.128  0.00  0.00    +0.000 NA
ATOM     17  C   UNL     1      46.030   6.123  12.270  0.00  0.00    +0.000 A 
BRANCH  15  18
ATOM     18  O   UNL     1      48.435   6.097  14.829  0.00  0.00    +0.000 OA
ATOM     19  H   UNL     1      48.156   6.022  15.752  0.00  0.00    +0.000 HD
ENDBRANCH  15  18
ENDBRANCH   1  12
TORSDOF 4
ENDMDL
MODEL 2
REMARK VINA RESULT:    -6.630      2.681      6.235
REMARK INTER + INTRA:          -8.094
REMARK INTER:                  -8.016
REMARK INTRA:                  -0.079
REMARK UNBOUND:                -0.108
REMARK  Name = 
REMARK  4 active torsions:
REMARK  status: ('A' for Active; 'I' for Inactive)
REMARK    1  A    between atoms: C_2  and  C_3
REMARK    2  A    between atoms: C_6  and  C_7
REMARK    3  A    between atoms: C_7  and  C_8
REMARK    4  A    between atoms: C_11  and  O_12
REMARK                            x       y       z     vdW  Elec       q    Type
REMARK                         _______ _______ _______ _____ _____    ______ ____
ROOT
ATOM      1  C   UNL     1      44.527   4.215  10.846  0.00  0.00    +0.000 C 
ATOM      2  C   UNL     1      43.357   5.181  10.643  0.00  0.00    +0.000 C 
ATOM      3  C   UNL     1      43.087   3.819  11.190  0.00  0.00    +0.000 C 
ENDROOT
BRANCH   1   7
ATOM      4  C   UNL     1      47.109   4.940  14.212  0.00  0.00    +0.000 A 
ATOM      5  C   UNL     1      46.813   6.006  13.375  0.00  0.00    +0.000 A 
ATOM      6  C   UNL     1      45.994   5.773  12.267  0.00  0.00    +0.000 A 
ATOM      7  C   UNL     1      45.474   4.496  12.009  0.00  0.00    +0.000 A 
ATOM      8  C   UNL     1      45.856   3.502  12.916  0.00  0.00    +0.000 A 
ATOM      9  N   UNL     1      46.649   3.685  14.000  0.00  0.00    +0.000 NA
BRANCH   4  11
ATOM     10  N   UNL     1      48.623   5.253  16.303  0.00  0.00    +0.000 NA
ATOM     11  C   UNL     1      47.929   5.127  15.381  0.00  0.00    +0.000 C 
ENDBRANCH   4  11
ENDBRANCH   1   7
BRANCH   1  12
ATOM     12  C   UNL     1      45.114   3.556   9.600  0.00  0.00    +0.000 A 
ATOM     13  C   UNL     1      45.649   4.309   8.546  0.00  0.00    +0.000 A 
ATOM     14  C   UNL     1      46.340   3.690   7.505  0.00  0.00    +0.000 A 
ATOM     15  C   UNL     1      46.458   2.312   7.536  0.00  0.00    +0.000 A 
ATOM     16  N   UNL     1      45.907   1.536   8.480  0.00  0.00    +0.000 NA
ATOM     17  C   UNL     1      45.250   2.171   9.479  0.00  0.00    +0.000 A 
BRANCH  15  18
ATOM     18  O   UNL     1      47.185   1.645   6.597  0.00  0.00    +0.000 OA
ATOM     19  H   UNL     1      46.902   0.720   6.599  0.00  0.00    +0.000 HD
ENDBRANCH  15  18
ENDBRANCH   1  12
TORSDOF 4
ENDMDL
MODEL 3
REMARK VINA RESULT:    -6.354      2.556      6.050
REMARK INTER + INTRA:          -7.763
REMARK INTER:                  -7.732
REMARK INTRA:                  -0.031
REMARK UNBOUND:                -0.108
REMARK  Name = 
REMARK  4 active torsions:
REMARK  status: ('A' for Active; 'I' for Inactive)
REMARK    1  A    between atoms: C_2  and  C_3
REMARK    2  A    between atoms: C_6  and  C_7
REMARK    3  A    between atoms: C_7  and  C_8
REMARK    4  A    between atoms: C_11  and  O_12
REMARK                            x       y       z     vdW  Elec       q    Type
REMARK                         _______ _______ _______ _____ _____    ______ ____
ROOT
ATOM      1  C   UNL     1      44.395   4.622  11.147  0.00  0.00    +0.000 C 
ATOM      2  C   UNL     1      43.161   5.516  11.000  0.00  0.00    +0.000 C 
ATOM      3  C   UNL     1      43.020   4.185  11.662  0.00  0.00    +0.000 C 
ENDROOT
BRANCH   1   7
ATOM      4  C   UNL     1      47.408   5.835  13.972  0.00  0.00    +0.000 A 
ATOM      5  C   UNL     1      46.956   4.524  14.022  0.00  0.00    +0.000 A 
ATOM      6  C   UNL     1      45.961   4.129  13.123  0.00  0.00    +0.000 A 
ATOM      7  C   UNL     1      45.437   5.031  12.186  0.00  0.00    +0.000 A 
ATOM      8  C   UNL     1      45.962   6.326  12.243  0.00  0.00    +0.000 A 
ATOM      9  N   UNL     1      46.924   6.750  13.100  0.00  0.00    +0.000 NA
BRANCH   4  11
ATOM     10  N   UNL     1      49.314   6.640  15.546  0.00  0.00    +0.000 NA
ATOM     11  C   UNL     1      48.446   6.291  14.858  0.00  0.00    +0.000 C 
ENDBRANCH   4  11
ENDBRANCH   1   7
BRANCH   1  12
ATOM     12  C   UNL     1      44.891   3.904   9.895  0.00  0.00    +0.000 A 
ATOM     13  C   UNL     1      45.450   4.599   8.813  0.00  0.00    +0.000 A 
ATOM     14  C   UNL     1      46.059   3.914   7.762  0.00  0.00    +0.000 A 
ATOM     15  C   UNL     1      46.071   2.532   7.811  0.00  0.00    +0.000 A 
ATOM     16  N   UNL     1      45.492   1.813   8.783  0.00  0.00    +0.000 NA
ATOM     17  C   UNL     1      44.917   2.511   9.791  0.00  0.00    +0.000 A 
BRANCH  15  18
ATOM     18  O   UNL     1      46.715   1.798   6.861  0.00  0.00    +0.000 OA
ATOM     19  H   UNL     1      46.642   0.864   7.102  0.00  0.00    +0.000 HD
ENDBRANCH  15  18
ENDBRANCH   1  12
TORSDOF 4
ENDMDL
MODEL 4
REMARK VINA RESULT:    -5.619      3.118      6.037
REMARK INTER + INTRA:          -6.877
REMARK INTER:                  -7.066
REMARK INTRA:                   0.189
REMARK UNBOUND:                -0.108
REMARK  Name = 
REMARK  4 active torsions:
REMARK  status: ('A' for Active; 'I' for Inactive)
REMARK    1  A    between atoms: C_2  and  C_3
REMARK    2  A    between atoms: C_6  and  C_7
REMARK    3  A    between atoms: C_7  and  C_8
REMARK    4  A    between atoms: C_11  and  O_12
REMARK                            x       y       z     vdW  Elec       q    Type
REMARK                         _______ _______ _______ _____ _____    ______ ____
ROOT
ATOM      1  C   UNL     1      44.597   4.419  11.049  0.00  0.00    +0.000 C 
ATOM      2  C   UNL     1      43.346   3.689  11.546  0.00  0.00    +0.000 C 
ATOM      3  C   UNL     1      44.641   3.476  12.257  0.00  0.00    +0.000 C 
ENDROOT
BRANCH   1   7
ATOM      4  C   UNL     1      44.803   8.668  11.697  0.00  0.00    +0.000 A 
ATOM      5  C   UNL     1      45.924   7.907  11.997  0.00  0.00    +0.000 A 
ATOM      6  C   UNL     1      45.857   6.524  11.811  0.00  0.00    +0.000 A 
ATOM      7  C   UNL     1      44.689   5.917  11.325  0.00  0.00    +0.000 A 
ATOM      8  C   UNL     1      43.624   6.788  11.073  0.00  0.00    +0.000 A 
ATOM      9  N   UNL     1      43.647   8.133  11.242  0.00  0.00    +0.000 NA
BRANCH   4  11
ATOM     10  N   UNL     1      44.858  11.258  11.928  0.00  0.00    +0.000 NA
ATOM     11  C   UNL     1      44.823  10.100  11.847  0.00  0.00    +0.000 C 
ENDBRANCH   4  11
ENDBRANCH   1   7
BRANCH   1  12
ATOM     12  C   UNL     1      45.253   3.892   9.776  0.00  0.00    +0.000 A 
ATOM     13  C   UNL     1      45.269   2.527   9.459  0.00  0.00    +0.000 A 
ATOM     14  C   UNL     1      45.710   2.088   8.211  0.00  0.00    +0.000 A 
ATOM     15  C   UNL     1      46.153   3.039   7.310  0.00  0.00    +0.000 A 
ATOM     16  N   UNL     1      46.227   4.349   7.582  0.00  0.00    +0.000 NA
ATOM     17  C   UNL     1      45.783   4.741   8.800  0.00  0.00    +0.000 A 
BRANCH  15  18
ATOM     18  O   UNL     1      46.525   2.694   6.046  0.00  0.00    +0.000 OA
ATOM     19  H   UNL     1      45.777   2.862   5.456  0.00  0.00    +0.000 HD
ENDBRANCH  15  18
ENDBRANCH   1  12
TORSDOF 4
ENDMDL
MODEL 5
REMARK VINA RESULT:    -5.409      3.776      6.963
REMARK INTER + INTRA:          -6.625
REMARK INTER:                  -6.978
REMARK INTRA:                   0.353
REMARK UNBOUND:                -0.108
REMARK  Name = 
REMARK  4 active torsions:
REMARK  status: ('A' for Active; 'I' for Inactive)
REMARK    1  A    between atoms: C_2  and  C_3
REMARK    2  A    between atoms: C_6  and  C_7
REMARK    3  A    between atoms: C_7  and  C_8
REMARK    4  A    between atoms: C_11  and  O_12
REMARK                            x       y       z     vdW  Elec       q    Type
REMARK                         _______ _______ _______ _____ _____    ______ ____
ROOT
ATOM      1  C   UNL     1      46.312   6.181  12.762  0.00  0.00    +0.000 C 
ATOM      2  C   UNL     1      46.929   7.033  11.650  0.00  0.00    +0.000 C 
ATOM      3  C   UNL     1      45.876   7.631  12.523  0.00  0.00    +0.000 C 
ENDROOT
BRANCH   1   7
ATOM      4  C   UNL     1      48.624   5.346  16.294  0.00  0.00    +0.000 A 
ATOM      5  C   UNL     1      48.816   6.566  15.662  0.00  0.00    +0.000 A 
ATOM      6  C   UNL     1      48.085   6.835  14.501  0.00  0.00    +0.000 A 
ATOM      7  C   UNL     1      47.173   5.900  13.990  0.00  0.00    +0.000 A 
ATOM      8  C   UNL     1      47.079   4.704  14.708  0.00  0.00    +0.000 A 
ATOM      9  N   UNL     1      47.771   4.402  15.834  0.00  0.00    +0.000 NA
BRANCH   4  11
ATOM     10  N   UNL     1      49.872   4.738  18.493  0.00  0.00    +0.000 NA
ATOM     11  C   UNL     1      49.333   5.025  17.505  0.00  0.00    +0.000 C 
ENDBRANCH   4  11
ENDBRANCH   1   7
BRANCH   1  12
ATOM     12  C   UNL     1      45.305   5.112  12.345  0.00  0.00    +0.000 A 
ATOM     13  C   UNL     1      45.398   4.444  11.116  0.00  0.00    +0.000 A 
ATOM     14  C   UNL     1      44.581   3.350  10.834  0.00  0.00    +0.000 A 
ATOM     15  C   UNL     1      43.664   2.962  11.794  0.00  0.00    +0.000 A 
ATOM     16  N   UNL     1      43.482   3.604  12.956  0.00  0.00    +0.000 NA
ATOM     17  C   UNL     1      44.297   4.657  13.200  0.00  0.00    +0.000 A 
BRANCH  15  18
ATOM     18  O   UNL     1      42.888   1.856  11.621  0.00  0.00    +0.000 OA
ATOM     19  H   UNL     1      42.429   1.940  10.774  0.00  0.00    +0.000 HD
ENDBRANCH  15  18
ENDBRANCH   1  12
TORSDOF 4
ENDMDL
MODEL 6
REMARK VINA RESULT:    -4.864      3.510      5.243
REMARK INTER + INTRA:          -5.968
REMARK INTER:                  -6.026
REMARK INTRA:                   0.058
REMARK UNBOUND:                -0.108
REMARK  Name = 
REMARK  4 active torsions:
REMARK  status: ('A' for Active; 'I' for Inactive)
REMARK    1  A    between atoms: C_2  and  C_3
REMARK    2  A    between atoms: C_6  and  C_7
REMARK    3  A    between atoms: C_7  and  C_8
REMARK    4  A    between atoms: C_11  and  O_12
REMARK                            x       y       z     vdW  Elec       q    Type
REMARK                         _______ _______ _______ _____ _____    ______ ____
ROOT
ATOM      1  C   UNL     1      48.105   7.155  12.875  0.00  0.00    +0.000 C 
ATOM      2  C   UNL     1      48.418   8.189  11.790  0.00  0.00    +0.000 C 
ATOM      3  C   UNL     1      49.346   7.036  11.985  0.00  0.00    +0.000 C 
ENDROOT
BRANCH   1   7
ATOM      4  C   UNL     1      44.953   4.319  12.135  0.00  0.00    +0.000 A 
ATOM      5  C   UNL     1      45.055   5.416  11.292  0.00  0.00    +0.000 A 
ATOM      6  C   UNL     1      46.061   6.353  11.540  0.00  0.00    +0.000 A 
ATOM      7  C   UNL     1      46.954   6.187  12.609  0.00  0.00    +0.000 A 
ATOM      8  C   UNL     1      46.741   5.050  13.394  0.00  0.00    +0.000 A 
ATOM      9  N   UNL     1      45.777   4.119  13.190  0.00  0.00    +0.000 NA
BRANCH   4  11
ATOM     10  N   UNL     1      43.132   2.515  11.695  0.00  0.00    +0.000 NA
ATOM     11  C   UNL     1      43.950   3.310  11.914  0.00  0.00    +0.000 C 
ENDBRANCH   4  11
ENDBRANCH   1   7
BRANCH   1  12
ATOM     12  C   UNL     1      48.366   7.560  14.323  0.00  0.00    +0.000 A 
ATOM     13  C   UNL     1      48.064   8.843  14.801  0.00  0.00    +0.000 A 
ATOM     14  C   UNL     1      48.141   9.134  16.163  0.00  0.00    +0.000 A 
ATOM     15  C   UNL     1      48.548   8.126  17.018  0.00  0.00    +0.000 A 
ATOM     16  N   UNL     1      48.916   6.904  16.611  0.00  0.00    +0.000 NA
ATOM     17  C   UNL     1      48.822   6.653  15.284  0.00  0.00    +0.000 A 
BRANCH  15  18
ATOM     18  O   UNL     1      48.571   8.313  18.368  0.00  0.00    +0.000 OA
ATOM     19  H   UNL     1      49.438   8.033  18.695  0.00  0.00    +0.000 HD
ENDBRANCH  15  18
ENDBRANCH   1  12
TORSDOF 4
ENDMDL
MODEL 7
REMARK VINA RESULT:    -4.820      3.217      6.340
REMARK INTER + INTRA:          -5.915
REMARK INTER:                  -5.853
REMARK INTRA:                  -0.062
REMARK UNBOUND:                -0.108
REMARK  Name = 
REMARK  4 active torsions:
REMARK  status: ('A' for Active; 'I' for Inactive)
REMARK    1  A    between atoms: C_2  and  C_3
REMARK    2  A    between atoms: C_6  and  C_7
REMARK    3  A    between atoms: C_7  and  C_8
REMARK    4  A    between atoms: C_11  and  O_12
REMARK                            x       y       z     vdW  Elec       q    Type
REMARK                         _______ _______ _______ _____ _____    ______ ____
ROOT
ATOM      1  C   UNL     1      46.110   7.043  12.100  0.00  0.00    +0.000 C 
ATOM      2  C   UNL     1      45.329   8.206  11.481  0.00  0.00    +0.000 C 
ATOM      3  C   UNL     1      45.007   7.773  12.873  0.00  0.00    +0.000 C 
ENDROOT
BRANCH   1   7
ATOM      4  C   UNL     1      50.136   7.826  13.402  0.00  0.00    +0.000 A 
ATOM      5  C   UNL     1      49.704   8.418  12.224  0.00  0.00    +0.000 A 
ATOM      6  C   UNL     1      48.406   8.150  11.783  0.00  0.00    +0.000 A 
ATOM      7  C   UNL     1      47.554   7.310  12.515  0.00  0.00    +0.000 A 
ATOM      8  C   UNL     1      48.108   6.763  13.676  0.00  0.00    +0.000 A 
ATOM      9  N   UNL     1      49.362   6.995  14.137  0.00  0.00    +0.000 NA
BRANCH   4  11
ATOM     10  N   UNL     1      52.515   8.259  14.359  0.00  0.00    +0.000 NA
ATOM     11  C   UNL     1      51.456   8.084  13.916  0.00  0.00    +0.000 C 
ENDBRANCH   4  11
ENDBRANCH   1   7
BRANCH   1  12
ATOM     12  C   UNL     1      45.761   5.635  11.623  0.00  0.00    +0.000 A 
ATOM     13  C   UNL     1      45.562   4.576  12.519  0.00  0.00    +0.000 A 
ATOM     14  C   UNL     1      45.069   3.349  12.077  0.00  0.00    +0.000 A 
ATOM     15  C   UNL     1      44.808   3.205  10.727  0.00  0.00    +0.000 A 
ATOM     16  N   UNL     1      45.044   4.158   9.814  0.00  0.00    +0.000 NA
ATOM     17  C   UNL     1      45.515   5.338  10.280  0.00  0.00    +0.000 A 
BRANCH  15  18
ATOM     18  O   UNL     1      44.251   2.063  10.233  0.00  0.00    +0.000 OA
ATOM     19  H   UNL     1      43.300   2.209  10.139  0.00  0.00    +0.000 HD
ENDBRANCH  15  18
ENDBRANCH   1  12
TORSDOF 4
ENDMDL
MODEL 8
REMARK VINA RESULT:    -4.697      4.771      8.324
REMARK INTER + INTRA:          -5.766
REMARK INTER:                  -5.707
REMARK INTRA:                  -0.058
REMARK UNBOUND:                -0.108
REMARK  Name = 
REMARK  4 active torsions:
REMARK  status: ('A' for Active; 'I' for Inactive)
REMARK    1  A    between atoms: C_2  and  C_3
REMARK    2  A    between atoms: C_6  and  C_7
REMARK    3  A    between atoms: C_7  and  C_8
REMARK    4  A    between atoms: C_11  and  O_12
REMARK                            x       y       z     vdW  Elec       q    Type
REMARK                         _______ _______ _______ _____ _____    ______ ____
ROOT
ATOM      1  C   UNL     1      48.314   4.833  16.970  0.00  0.00    +0.000 C 
ATOM      2  C   UNL     1      48.151   5.945  18.010  0.00  0.00    +0.000 C 
ATOM      3  C   UNL     1      47.186   4.806  18.008  0.00  0.00    +0.000 C 
ENDROOT
BRANCH   1   7
ATOM      4  C   UNL     1      51.486   1.990  17.584  0.00  0.00    +0.000 A 
ATOM      5  C   UNL     1      51.731   3.319  17.897  0.00  0.00    +0.000 A 
ATOM      6  C   UNL     1      50.713   4.252  17.679  0.00  0.00    +0.000 A 
ATOM      7  C   UNL     1      49.470   3.856  17.164  0.00  0.00    +0.000 A 
ATOM      8  C   UNL     1      49.350   2.493  16.875  0.00  0.00    +0.000 A 
ATOM      9  N   UNL     1      50.312   1.557  17.069  0.00  0.00    +0.000 NA
BRANCH   4  11
ATOM     10  N   UNL     1      53.317   0.197  18.023  0.00  0.00    +0.000 NA
ATOM     11  C   UNL     1      52.490   0.983  17.809  0.00  0.00    +0.000 C 
ENDBRANCH   4  11
ENDBRANCH   1   7
BRANCH   1  12
ATOM     12  C   UNL     1      47.886   5.146  15.539  0.00  0.00    +0.000 A 
ATOM     13  C   UNL     1      46.967   4.346  14.846  0.00  0.00    +0.000 A 
ATOM     14  C   UNL     1      46.455   4.749  13.613  0.00  0.00    +0.000 A 
ATOM     15  C   UNL     1      46.902   5.948  13.088  0.00  0.00    +0.000 A 
ATOM     16  N   UNL     1      47.830   6.719  13.670  0.00  0.00    +0.000 NA
ATOM     17  C   UNL     1      48.299   6.301  14.869  0.00  0.00    +0.000 A 
BRANCH  15  18
ATOM     18  O   UNL     1      46.389   6.443  11.927  0.00  0.00    +0.000 OA
ATOM     19  H   UNL     1      45.951   5.719  11.459  0.00  0.00    +0.000 HD
ENDBRANCH  15  18
ENDBRANCH   1  12
TORSDOF 4
ENDMDL
MODEL 9
REMARK VINA RESULT:    -4.332      3.675      5.773
REMARK INTER + INTRA:          -5.326
REMARK INTER:                  -5.271
REMARK INTRA:                  -0.056
REMARK UNBOUND:                -0.108
REMARK  Name = 
REMARK  4 active torsions:
REMARK  status: ('A' for Active; 'I' for Inactive)
REMARK    1  A    between atoms: C_2  and  C_3
REMARK    2  A    between atoms: C_6  and  C_7
REMARK    3  A    between atoms: C_7  and  C_8
REMARK    4  A    between atoms: C_11  and  O_12
REMARK                            x       y       z     vdW  Elec       q    Type
REMARK                         _______ _______ _______ _____ _____    ______ ____
ROOT
ATOM      1  C   UNL     1      48.187   7.520  13.379  0.00  0.00    +0.000 C 
ATOM      2  C   UNL     1      48.824   7.106  14.708  0.00  0.00    +0.000 C 
ATOM      3  C   UNL     1      47.862   8.247  14.688  0.00  0.00    +0.000 C 
ENDROOT
BRANCH   1   7
ATOM      4  C   UNL     1      45.254   4.824  11.751  0.00  0.00    +0.000 A 
ATOM      5  C   UNL     1      45.425   6.054  11.132  0.00  0.00    +0.000 A 
ATOM      6  C   UNL     1      46.360   6.944  11.668  0.00  0.00    +0.000 A 
ATOM      7  C   UNL     1      47.114   6.602  12.800  0.00  0.00    +0.000 A 
ATOM      8  C   UNL     1      46.841   5.342  13.342  0.00  0.00    +0.000 A 
ATOM      9  N   UNL     1      45.943   4.451  12.854  0.00  0.00    +0.000 NA
BRANCH   4  11
ATOM     10  N   UNL     1      43.552   3.079  10.847  0.00  0.00    +0.000 NA
ATOM     11  C   UNL     1      44.322   3.860  11.228  0.00  0.00    +0.000 C 
ENDBRANCH   4  11
ENDBRANCH   1   7
BRANCH   1  12
ATOM     12  C   UNL     1      49.063   8.291  12.395  0.00  0.00    +0.000 A 
ATOM     13  C   UNL     1      48.740   9.589  11.973  0.00  0.00    +0.000 A 
ATOM     14  C   UNL     1      49.641  10.340  11.220  0.00  0.00    +0.000 A 
ATOM     15  C   UNL     1      50.849   9.757  10.885  0.00  0.00    +0.000 A 
ATOM     16  N   UNL     1      51.184   8.498  11.200  0.00  0.00    +0.000 NA
ATOM     17  C   UNL     1      50.288   7.800  11.938  0.00  0.00    +0.000 A 
BRANCH  15  18
ATOM     18  O   UNL     1      51.810  10.457  10.220  0.00  0.00    +0.000 OA
ATOM     19  H   UNL     1      51.371  11.053   9.597  0.00  0.00    +0.000 HD
ENDBRANCH  15  18
ENDBRANCH   1  12
TORSDOF 4
ENDMDL
