MODEL 1
REMARK VINA RESULT:    -8.074      0.000      0.000
REMARK INTER + INTRA:         -11.885
REMARK INTER:                 -10.906
REMARK INTRA:                  -0.979
REMARK UNBOUND:                -0.979
REMARK  Name = 
REMARK  7 active torsions:
REMARK  status: ('A' for Active; 'I' for Inactive)
REMARK    1  A    between atoms: C_1  and  C_2
REMARK    2  A    between atoms: C_5  and  C_6
REMARK    3  A    between atoms: N_8  and  C_9
REMARK    4  A    between atoms: C_9  and  C_10
REMARK    5  A    between atoms: C_13  and  C_14
REMARK    6  A    between atoms: C_14  and  N_15
REMARK    7  A    between atoms: C_16  and  C_18
REMARK                            x       y       z     vdW  Elec       q    Type
REMARK                         _______ _______ _______ _____ _____    ______ ____
ROOT
ATOM      1  C   UNL     1      44.870   6.144  11.162  0.00  0.00    +0.000 A 
ATOM      2  C   UNL     1      44.548   7.458  11.533  0.00  0.00    +0.000 A 
ATOM      3  C   UNL     1      45.363   8.178  12.422  0.00  0.00    +0.000 A 
ATOM      4  C   UNL     1      46.535   7.612  12.942  0.00  0.00    +0.000 A 
ATOM      5  C   UNL     1      46.855   6.298  12.575  0.00  0.00    +0.000 A 
ATOM      6  C   UNL     1      46.039   5.577  11.689  0.00  0.00    +0.000 A 
ENDROOT
BRANCH   1   7
ATOM      7  C   UNL     1      43.981   5.359  10.224  0.00  0.00    +0.000 C 
BRANCH   7  10
ATOM      8  C   UNL     1      44.683   3.140   9.386  0.00  0.00    +0.000 C 
ATOM      9  O   UNL     1      43.992   2.537  10.207  0.00  0.00    +0.000 OA
ATOM     10  N   UNL     1      44.733   4.517   9.330  0.00  0.00    +0.000 N 
ATOM     11  H   UNL     1      45.288   4.930   8.589  0.00  0.00    +0.000 HD
BRANCH   8  16
ATOM     12  C   UNL     1      47.212   2.940   5.273  0.00  0.00    +0.000 C 
ATOM     13  C   UNL     1      46.674   2.359   6.521  0.00  0.00    +0.000 A 
ATOM     14  C   UNL     1      46.771   1.119   7.111  0.00  0.00    +0.000 A 
ATOM     15  C   UNL     1      46.024   1.194   8.315  0.00  0.00    +0.000 A 
ATOM     16  C   UNL     1      45.512   2.478   8.391  0.00  0.00    +0.000 A 
ATOM     17  O   UNL     1      45.912   3.188   7.287  0.00  0.00    +0.000 OA
ENDBRANCH   8  16
ENDBRANCH   7  10
ENDBRANCH   1   7
BRANCH   4  18
ATOM     18  C   UNL     1      47.428   8.386  13.885  0.00  0.00    +0.000 C 
BRANCH  18  19
ATOM     19  N   UNL     1      47.818   7.606  15.032  0.00  0.00    +0.000 N 
ATOM     20  C   UNL     1      49.037   6.980  15.106  0.00  0.00    +0.000 C 
ATOM     21  O   UNL     1      49.873   7.071  14.212  0.00  0.00    +0.000 OA
ATOM     22  H   UNL     1      47.070   7.297  15.648  0.00  0.00    +0.000 HD
BRANCH  20  23
ATOM     23  C   UNL     1      49.319   6.242  16.346  0.00  0.00    +0.000 A 
ATOM     24  C   UNL     1      50.352   6.650  17.181  0.00  0.00    +0.000 A 
ATOM     25  S   UNL     1      50.509   5.700  18.591  0.00  0.00    +0.000 S 
ATOM     26  C   UNL     1      49.235   4.678  18.111  0.00  0.00    +0.000 A 
ATOM     27  N   UNL     1      48.865   3.613  18.871  0.00  0.00    +0.000 NA
ATOM     28  C   UNL     1      47.902   2.910  18.374  0.00  0.00    +0.000 A 
ATOM     29  N   UNL     1      47.272   3.183  17.188  0.00  0.00    +0.000 N 
ATOM     30  C   UNL     1      47.586   4.267  16.406  0.00  0.00    +0.000 A 
ATOM     31  O   UNL     1      46.959   4.516  15.382  0.00  0.00    +0.000 OA
ATOM     32  C   UNL     1      48.679   5.075  16.908  0.00  0.00    +0.000 A 
ATOM     33  H   UNL     1      46.510   2.605  16.861  0.00  0.00    +0.000 HD
ENDBRANCH  20  23
ENDBRANCH  18  19
ENDBRANCH   4  18
TORSDOF 6
ENDMDL
MODEL 2
REMARK VINA RESULT:    -7.672      1.079      1.618
REMARK INTER + INTRA:         -11.342
REMARK INTER:                 -10.411
REMARK INTRA:                  -0.930
REMARK UNBOUND:                -0.979
REMARK  Name = 
REMARK  7 active torsions:
REMARK  status: ('A' for Active; 'I' for Inactive)
REMARK    1  A    between atoms: C_1  and  C_2
REMARK    2  A    between atoms: C_5  and  C_6
REMARK    3  A    between atoms: N_8  and  C_9
REMARK    4  A    between atoms: C_9  and  C_10
REMARK    5  A    between atoms: C_13  and  C_14
REMARK    6  A    between atoms: C_14  and  N_15
REMARK    7  A    between atoms: C_16  and  C_18
REMARK                            x       y       z     vdW  Elec       q    Type
REMARK                         _______ _______ _______ _____ _____    ______ ____
ROOT
ATOM      1  C   UNL     1      44.923   6.591  11.611  0.00  0.00    +0.000 A 
ATOM      2  C   UNL     1      45.849   5.957  12.453  0.00  0.00    +0.000 A 
ATOM      3  C   UNL     1      46.725   6.705  13.256  0.00  0.00    +0.000 A 
ATOM      4  C   UNL     1      46.679   8.106  13.258  0.00  0.00    +0.000 A 
ATOM      5  C   UNL     1      45.757   8.739  12.415  0.00  0.00    +0.000 A 
ATOM      6  C   UNL     1      44.883   7.992  11.610  0.00  0.00    +0.000 A 
ENDROOT
BRANCH   1   7
ATOM      7  C   UNL     1      43.996   5.787  10.727  0.00  0.00    +0.000 C 
BRANCH   7  10
ATOM      8  C   UNL     1      44.539   3.607   9.691  0.00  0.00    +0.000 C 
ATOM      9  O   UNL     1      43.763   2.991  10.422  0.00  0.00    +0.000 OA
ATOM     10  N   UNL     1      44.710   4.973   9.778  0.00  0.00    +0.000 N 
ATOM     11  H   UNL     1      45.330   5.405   9.102  0.00  0.00    +0.000 HD
BRANCH   8  16
ATOM     12  C   UNL     1      46.790  -0.136   7.623  0.00  0.00    +0.000 C 
ATOM     13  C   UNL     1      46.384   1.284   7.696  0.00  0.00    +0.000 A 
ATOM     14  C   UNL     1      46.608   2.378   6.893  0.00  0.00    +0.000 A 
ATOM     15  C   UNL     1      45.942   3.468   7.513  0.00  0.00    +0.000 A 
ATOM     16  C   UNL     1      45.350   2.974   8.663  0.00  0.00    +0.000 A 
ATOM     17  O   UNL     1      45.626   1.635   8.771  0.00  0.00    +0.000 OA
ENDBRANCH   8  16
ENDBRANCH   7  10
ENDBRANCH   1   7
BRANCH   4  18
ATOM     18  C   UNL     1      47.606   8.919  14.135  0.00  0.00    +0.000 C 
BRANCH  18  19
ATOM     19  N   UNL     1      47.888   8.263  15.386  0.00  0.00    +0.000 N 
ATOM     20  C   UNL     1      49.167   7.941  15.766  0.00  0.00    +0.000 C 
ATOM     21  O   UNL     1      50.143   8.217  15.075  0.00  0.00    +0.000 OA
ATOM     22  H   UNL     1      47.109   7.792  15.840  0.00  0.00    +0.000 HD
BRANCH  20  23
ATOM     23  C   UNL     1      49.316   7.301  17.082  0.00  0.00    +0.000 A 
ATOM     24  C   UNL     1      49.868   8.009  18.143  0.00  0.00    +0.000 A 
ATOM     25  S   UNL     1      49.927   7.123  19.601  0.00  0.00    +0.000 S 
ATOM     26  C   UNL     1      49.267   5.744  18.853  0.00  0.00    +0.000 A 
ATOM     27  N   UNL     1      49.079   4.590  19.549  0.00  0.00    +0.000 NA
ATOM     28  C   UNL     1      48.594   3.617  18.850  0.00  0.00    +0.000 A 
ATOM     29  N   UNL     1      48.275   3.699  17.520  0.00  0.00    +0.000 N 
ATOM     30  C   UNL     1      48.413   4.851  16.787  0.00  0.00    +0.000 A 
ATOM     31  O   UNL     1      48.058   4.906  15.614  0.00  0.00    +0.000 OA
ATOM     32  C   UNL     1      48.977   5.967  17.519  0.00  0.00    +0.000 A 
ATOM     33  H   UNL     1      47.880   2.906  17.033  0.00  0.00    +0.000 HD
ENDBRANCH  20  23
ENDBRANCH  18  19
ENDBRANCH   4  18
TORSDOF 6
ENDMDL
MODEL 3
REMARK VINA RESULT:    -7.408      1.997      2.350
REMARK INTER + INTRA:         -10.986
REMARK INTER:                 -10.117
REMARK INTRA:                  -0.869
REMARK UNBOUND:                -0.979
REMARK  Name = 
REMARK  7 active torsions:
REMARK  status: ('A' for Active; 'I' for Inactive)
REMARK    1  A    between atoms: C_1  and  C_2
REMARK    2  A    between atoms: C_5  and  C_6
REMARK    3  A    between atoms: N_8  and  C_9
REMARK    4  A    between atoms: C_9  and  C_10
REMARK    5  A    between atoms: C_13  and  C_14
REMARK    6  A    between atoms: C_14  and  N_15
REMARK    7  A    between atoms: C_16  and  C_18
REMARK                            x       y       z     vdW  Elec       q    Type
REMARK                         _______ _______ _______ _____ _____    ______ ____
ROOT
ATOM      1  C   UNL     1      45.334   6.092  11.482  0.00  0.00    +0.000 A 
ATOM      2  C   UNL     1      45.203   7.469  11.711  0.00  0.00    +0.000 A 
ATOM      3  C   UNL     1      46.068   8.140  12.591  0.00  0.00    +0.000 A 
ATOM      4  C   UNL     1      47.103   7.456  13.243  0.00  0.00    +0.000 A 
ATOM      5  C   UNL     1      47.232   6.080  13.016  0.00  0.00    +0.000 A 
ATOM      6  C   UNL     1      46.366   5.408  12.140  0.00  0.00    +0.000 A 
ENDROOT
BRANCH   1   7
ATOM      7  C   UNL     1      44.389   5.363  10.553  0.00  0.00    +0.000 C 
BRANCH   7  10
ATOM      8  C   UNL     1      44.791   3.194   9.433  0.00  0.00    +0.000 C 
ATOM      9  O   UNL     1      43.916   2.621  10.082  0.00  0.00    +0.000 OA
ATOM     10  N   UNL     1      45.083   4.530   9.605  0.00  0.00    +0.000 N 
ATOM     11  H   UNL     1      45.782   4.933   8.991  0.00  0.00    +0.000 HD
BRANCH   8  16
ATOM     12  C   UNL     1      47.179   2.988   5.237  0.00  0.00    +0.000 C 
ATOM     13  C   UNL     1      46.702   2.415   6.514  0.00  0.00    +0.000 A 
ATOM     14  C   UNL     1      46.854   1.190   7.120  0.00  0.00    +0.000 A 
ATOM     15  C   UNL     1      46.147   1.266   8.349  0.00  0.00    +0.000 A 
ATOM     16  C   UNL     1      45.603   2.536   8.421  0.00  0.00    +0.000 A 
ATOM     17  O   UNL     1      45.944   3.237   7.292  0.00  0.00    +0.000 OA
ENDBRANCH   8  16
ENDBRANCH   7  10
ENDBRANCH   1   7
BRANCH   4  18
ATOM     18  C   UNL     1      48.050   8.175  14.178  0.00  0.00    +0.000 C 
BRANCH  18  19
ATOM     19  N   UNL     1      48.016   7.634  15.512  0.00  0.00    +0.000 N 
ATOM     20  C   UNL     1      49.051   6.893  16.024  0.00  0.00    +0.000 C 
ATOM     21  O   UNL     1      50.076   6.673  15.384  0.00  0.00    +0.000 OA
ATOM     22  H   UNL     1      47.102   7.568  15.954  0.00  0.00    +0.000 HD
BRANCH  20  23
ATOM     23  C   UNL     1      48.899   6.427  17.411  0.00  0.00    +0.000 A 
ATOM     24  C   UNL     1      49.267   5.132  17.755  0.00  0.00    +0.000 A 
ATOM     25  S   UNL     1      49.058   4.779  19.413  0.00  0.00    +0.000 S 
ATOM     26  C   UNL     1      48.419   6.326  19.719  0.00  0.00    +0.000 A 
ATOM     27  N   UNL     1      47.999   6.679  20.963  0.00  0.00    +0.000 NA
ATOM     28  C   UNL     1      47.513   7.874  21.044  0.00  0.00    +0.000 A 
ATOM     29  N   UNL     1      47.418   8.748  19.994  0.00  0.00    +0.000 N 
ATOM     30  C   UNL     1      47.864   8.450  18.730  0.00  0.00    +0.000 A 
ATOM     31  O   UNL     1      47.821   9.280  17.828  0.00  0.00    +0.000 OA
ATOM     32  C   UNL     1      48.395   7.111  18.579  0.00  0.00    +0.000 A 
ATOM     33  H   UNL     1      47.046   9.678  20.127  0.00  0.00    +0.000 HD
ENDBRANCH  20  23
ENDBRANCH  18  19
ENDBRANCH   4  18
TORSDOF 6
ENDMDL
MODEL 4
REMARK VINA RESULT:    -6.951      1.824      2.364
REMARK INTER + INTRA:         -10.368
REMARK INTER:                  -9.419
REMARK INTRA:                  -0.949
REMARK UNBOUND:                -0.979
REMARK  Name = 
REMARK  7 active torsions:
REMARK  status: ('A' for Active; 'I' for Inactive)
REMARK    1  A    between atoms: C_1  and  C_2
REMARK    2  A    between atoms: C_5  and  C_6
REMARK    3  A    between atoms: N_8  and  C_9
REMARK    4  A    between atoms: C_9  and  C_10
REMARK    5  A    between atoms: C_13  and  C_14
REMARK    6  A    between atoms: C_14  and  N_15
REMARK    7  A    between atoms: C_16  and  C_18
REMARK                            x       y       z     vdW  Elec       q    Type
REMARK                         _______ _______ _______ _____ _____    ______ ____
ROOT
ATOM      1  C   UNL     1      45.501   6.196  11.724  0.00  0.00    +0.000 A 
ATOM      2  C   UNL     1      45.529   7.592  11.856  0.00  0.00    +0.000 A 
ATOM      3  C   UNL     1      46.432   8.217  12.733  0.00  0.00    +0.000 A 
ATOM      4  C   UNL     1      47.347   7.463  13.480  0.00  0.00    +0.000 A 
ATOM      5  C   UNL     1      47.317   6.069  13.350  0.00  0.00    +0.000 A 
ATOM      6  C   UNL     1      46.413   5.444  12.477  0.00  0.00    +0.000 A 
ENDROOT
BRANCH   1   7
ATOM      7  C   UNL     1      44.514   5.520  10.799  0.00  0.00    +0.000 C 
BRANCH   7  10
ATOM      8  C   UNL     1      44.741   3.378   9.584  0.00  0.00    +0.000 C 
ATOM      9  O   UNL     1      43.785   2.868  10.169  0.00  0.00    +0.000 OA
ATOM     10  N   UNL     1      45.159   4.667   9.835  0.00  0.00    +0.000 N 
ATOM     11  H   UNL     1      45.922   5.024   9.270  0.00  0.00    +0.000 HD
BRANCH   8  16
ATOM     12  C   UNL     1      47.109   3.077   5.382  0.00  0.00    +0.000 C 
ATOM     13  C   UNL     1      46.613   2.524   6.660  0.00  0.00    +0.000 A 
ATOM     14  C   UNL     1      46.719   1.294   7.267  0.00  0.00    +0.000 A 
ATOM     15  C   UNL     1      46.018   1.398   8.497  0.00  0.00    +0.000 A 
ATOM     16  C   UNL     1      45.524   2.689   8.570  0.00  0.00    +0.000 A 
ATOM     17  O   UNL     1      45.889   3.375   7.440  0.00  0.00    +0.000 OA
ENDBRANCH   8  16
ENDBRANCH   7  10
ENDBRANCH   1   7
BRANCH   4  18
ATOM     18  C   UNL     1      48.335   8.129  14.411  0.00  0.00    +0.000 C 
BRANCH  18  19
ATOM     19  N   UNL     1      48.849   7.218  15.402  0.00  0.00    +0.000 N 
ATOM     20  C   UNL     1      48.795   7.497  16.745  0.00  0.00    +0.000 C 
ATOM     21  O   UNL     1      48.282   8.525  17.178  0.00  0.00    +0.000 OA
ATOM     22  H   UNL     1      49.503   6.511  15.075  0.00  0.00    +0.000 HD
BRANCH  20  23
ATOM     23  C   UNL     1      49.329   6.467  17.648  0.00  0.00    +0.000 A 
ATOM     24  C   UNL     1      48.536   5.956  18.669  0.00  0.00    +0.000 A 
ATOM     25  S   UNL     1      49.306   4.744  19.593  0.00  0.00    +0.000 S 
ATOM     26  C   UNL     1      50.743   4.895  18.695  0.00  0.00    +0.000 A 
ATOM     27  N   UNL     1      51.840   4.149  18.994  0.00  0.00    +0.000 NA
ATOM     28  C   UNL     1      52.868   4.386  18.248  0.00  0.00    +0.000 A 
ATOM     29  N   UNL     1      52.893   5.297  17.225  0.00  0.00    +0.000 N 
ATOM     30  C   UNL     1      51.801   6.045  16.862  0.00  0.00    +0.000 A 
ATOM     31  O   UNL     1      51.841   6.805  15.901  0.00  0.00    +0.000 OA
ATOM     32  C   UNL     1      50.627   5.835  17.686  0.00  0.00    +0.000 A 
ATOM     33  H   UNL     1      53.724   5.422  16.664  0.00  0.00    +0.000 HD
ENDBRANCH  20  23
ENDBRANCH  18  19
ENDBRANCH   4  18
TORSDOF 6
ENDMDL
MODEL 5
REMARK VINA RESULT:    -6.704      3.670      4.995
REMARK INTER + INTRA:         -10.035
REMARK INTER:                  -8.868
REMARK INTRA:                  -1.167
REMARK UNBOUND:                -0.979
REMARK  Name = 
REMARK  7 active torsions:
REMARK  status: ('A' for Active; 'I' for Inactive)
REMARK    1  A    between atoms: C_1  and  C_2
REMARK    2  A    between atoms: C_5  and  C_6
REMARK    3  A    between atoms: N_8  and  C_9
REMARK    4  A    between atoms: C_9  and  C_10
REMARK    5  A    between atoms: C_13  and  C_14
REMARK    6  A    between atoms: C_14  and  N_15
REMARK    7  A    between atoms: C_16  and  C_18
REMARK                            x       y       z     vdW  Elec       q    Type
REMARK                         _______ _______ _______ _____ _____    ______ ____
ROOT
ATOM      1  C   UNL     1      44.950   6.674  11.667  0.00  0.00    +0.000 A 
ATOM      2  C   UNL     1      44.794   8.058  11.839  0.00  0.00    +0.000 A 
ATOM      3  C   UNL     1      45.677   8.789  12.651  0.00  0.00    +0.000 A 
ATOM      4  C   UNL     1      46.753   8.159  13.291  0.00  0.00    +0.000 A 
ATOM      5  C   UNL     1      46.907   6.777  13.122  0.00  0.00    +0.000 A 
ATOM      6  C   UNL     1      46.024   6.046  12.313  0.00  0.00    +0.000 A 
ENDROOT
BRANCH   1   7
ATOM      7  C   UNL     1      43.986   5.882  10.813  0.00  0.00    +0.000 C 
BRANCH   7  10
ATOM      8  C   UNL     1      44.398   3.633   9.870  0.00  0.00    +0.000 C 
ATOM      9  O   UNL     1      43.568   3.099  10.605  0.00  0.00    +0.000 OA
ATOM     10  N   UNL     1      44.661   4.985   9.910  0.00  0.00    +0.000 N 
ATOM     11  H   UNL     1      45.322   5.349   9.233  0.00  0.00    +0.000 HD
BRANCH   8  16
ATOM     12  C   UNL     1      46.935   3.231   5.776  0.00  0.00    +0.000 C 
ATOM     13  C   UNL     1      46.347   2.696   7.022  0.00  0.00    +0.000 A 
ATOM     14  C   UNL     1      46.349   1.455   7.616  0.00  0.00    +0.000 A 
ATOM     15  C   UNL     1      45.600   1.589   8.815  0.00  0.00    +0.000 A 
ATOM     16  C   UNL     1      45.183   2.907   8.883  0.00  0.00    +0.000 A 
ATOM     17  O   UNL     1      45.643   3.582   7.780  0.00  0.00    +0.000 OA
ENDBRANCH   8  16
ENDBRANCH   7  10
ENDBRANCH   1   7
BRANCH   4  18
ATOM     18  C   UNL     1      47.720   8.942  14.151  0.00  0.00    +0.000 C 
BRANCH  18  19
ATOM     19  N   UNL     1      49.029   9.036  13.555  0.00  0.00    +0.000 N 
ATOM     20  C   UNL     1      49.383  10.079  12.737  0.00  0.00    +0.000 C 
ATOM     21  O   UNL     1      48.614  11.004  12.489  0.00  0.00    +0.000 OA
ATOM     22  H   UNL     1      49.576   8.179  13.521  0.00  0.00    +0.000 HD
BRANCH  20  23
ATOM     23  C   UNL     1      50.759  10.067  12.221  0.00  0.00    +0.000 A 
ATOM     24  C   UNL     1      51.567  11.189  12.363  0.00  0.00    +0.000 A 
ATOM     25  S   UNL     1      53.143  10.981  11.740  0.00  0.00    +0.000 S 
ATOM     26  C   UNL     1      52.786   9.404  11.210  0.00  0.00    +0.000 A 
ATOM     27  N   UNL     1      53.712   8.657  10.551  0.00  0.00    +0.000 NA
ATOM     28  C   UNL     1      53.296   7.489  10.186  0.00  0.00    +0.000 A 
ATOM     29  N   UNL     1      52.039   7.001  10.428  0.00  0.00    +0.000 N 
ATOM     30  C   UNL     1      51.084   7.702  11.122  0.00  0.00    +0.000 A 
ATOM     31  O   UNL     1      49.991   7.208  11.375  0.00  0.00    +0.000 OA
ATOM     32  C   UNL     1      51.492   9.030  11.533  0.00  0.00    +0.000 A 
ATOM     33  H   UNL     1      51.780   6.070  10.133  0.00  0.00    +0.000 HD
ENDBRANCH  20  23
ENDBRANCH  18  19
ENDBRANCH   4  18
TORSDOF 6
ENDMDL
MODEL 6
REMARK VINA RESULT:    -6.704      1.956      2.538
REMARK INTER + INTRA:         -10.035
REMARK INTER:                  -9.091
REMARK INTRA:                  -0.943
REMARK UNBOUND:                -0.979
REMARK  Name = 
REMARK  7 active torsions:
REMARK  status: ('A' for Active; 'I' for Inactive)
REMARK    1  A    between atoms: C_1  and  C_2
REMARK    2  A    between atoms: C_5  and  C_6
REMARK    3  A    between atoms: N_8  and  C_9
REMARK    4  A    between atoms: C_9  and  C_10
REMARK    5  A    between atoms: C_13  and  C_14
REMARK    6  A    between atoms: C_14  and  N_15
REMARK    7  A    between atoms: C_16  and  C_18
REMARK                            x       y       z     vdW  Elec       q    Type
REMARK                         _______ _______ _______ _____ _____    ______ ____
ROOT
ATOM      1  C   UNL     1      45.992   6.530  12.638  0.00  0.00    +0.000 A 
ATOM      2  C   UNL     1      47.181   5.871  12.985  0.00  0.00    +0.000 A 
ATOM      3  C   UNL     1      48.244   6.568  13.583  0.00  0.00    +0.000 A 
ATOM      4  C   UNL     1      48.136   7.934  13.872  0.00  0.00    +0.000 A 
ATOM      5  C   UNL     1      46.950   8.593  13.523  0.00  0.00    +0.000 A 
ATOM      6  C   UNL     1      45.888   7.898  12.923  0.00  0.00    +0.000 A 
ENDROOT
BRANCH   1   7
ATOM      7  C   UNL     1      44.855   5.787  11.972  0.00  0.00    +0.000 C 
BRANCH   7  10
ATOM      8  C   UNL     1      44.521   4.429   9.932  0.00  0.00    +0.000 C 
ATOM      9  O   UNL     1      43.359   4.810   9.788  0.00  0.00    +0.000 OA
ATOM     10  N   UNL     1      45.316   4.859  10.972  0.00  0.00    +0.000 N 
ATOM     11  H   UNL     1      46.277   4.534  10.984  0.00  0.00    +0.000 HD
BRANCH   8  16
ATOM     12  C   UNL     1      46.846   3.222   5.871  0.00  0.00    +0.000 C 
ATOM     13  C   UNL     1      46.244   2.920   7.186  0.00  0.00    +0.000 A 
ATOM     14  C   UNL     1      46.120   1.770   7.933  0.00  0.00    +0.000 A 
ATOM     15  C   UNL     1      45.435   2.140   9.120  0.00  0.00    +0.000 A 
ATOM     16  C   UNL     1      45.179   3.498   9.029  0.00  0.00    +0.000 A 
ATOM     17  O   UNL     1      45.676   3.970   7.840  0.00  0.00    +0.000 OA
ENDBRANCH   8  16
ENDBRANCH   7  10
ENDBRANCH   1   7
BRANCH   4  18
ATOM     18  C   UNL     1      49.269   8.688  14.533  0.00  0.00    +0.000 C 
BRANCH  18  19
ATOM     19  N   UNL     1      50.238   7.803  15.128  0.00  0.00    +0.000 N 
ATOM     20  C   UNL     1      50.597   7.899  16.449  0.00  0.00    +0.000 C 
ATOM     21  O   UNL     1      50.093   8.726  17.204  0.00  0.00    +0.000 OA
ATOM     22  H   UNL     1      50.853   7.305  14.488  0.00  0.00    +0.000 HD
BRANCH  20  23
ATOM     23  C   UNL     1      51.575   6.914  16.934  0.00  0.00    +0.000 A 
ATOM     24  C   UNL     1      52.887   7.298  17.181  0.00  0.00    +0.000 A 
ATOM     25  S   UNL     1      53.870   6.035  17.776  0.00  0.00    +0.000 S 
ATOM     26  C   UNL     1      52.591   4.917  17.674  0.00  0.00    +0.000 A 
ATOM     27  N   UNL     1      52.770   3.612  18.011  0.00  0.00    +0.000 NA
ATOM     28  C   UNL     1      51.721   2.872  17.861  0.00  0.00    +0.000 A 
ATOM     29  N   UNL     1      50.508   3.324  17.412  0.00  0.00    +0.000 N 
ATOM     30  C   UNL     1      50.270   4.639  17.096  0.00  0.00    +0.000 A 
ATOM     31  O   UNL     1      49.155   5.020  16.757  0.00  0.00    +0.000 OA
ATOM     32  C   UNL     1      51.423   5.507  17.223  0.00  0.00    +0.000 A 
ATOM     33  H   UNL     1      49.719   2.698  17.335  0.00  0.00    +0.000 HD
ENDBRANCH  20  23
ENDBRANCH  18  19
ENDBRANCH   4  18
TORSDOF 6
ENDMDL
MODEL 7
REMARK VINA RESULT:    -6.484      3.712      5.221
REMARK INTER + INTRA:          -9.738
REMARK INTER:                  -8.856
REMARK INTRA:                  -0.881
REMARK UNBOUND:                -0.979
REMARK  Name = 
REMARK  7 active torsions:
REMARK  status: ('A' for Active; 'I' for Inactive)
REMARK    1  A    between atoms: C_1  and  C_2
REMARK    2  A    between atoms: C_5  and  C_6
REMARK    3  A    between atoms: N_8  and  C_9
REMARK    4  A    between atoms: C_9  and  C_10
REMARK    5  A    between atoms: C_13  and  C_14
REMARK    6  A    between atoms: C_14  and  N_15
REMARK    7  A    between atoms: C_16  and  C_18
REMARK                            x       y       z     vdW  Elec       q    Type
REMARK                         _______ _______ _______ _____ _____    ______ ____
ROOT
ATOM      1  C   UNL     1      46.176   6.378  12.082  0.00  0.00    +0.000 A 
ATOM      2  C   UNL     1      46.514   5.442  13.070  0.00  0.00    +0.000 A 
ATOM      3  C   UNL     1      47.491   5.734  14.036  0.00  0.00    +0.000 A 
ATOM      4  C   UNL     1      48.136   6.978  14.054  0.00  0.00    +0.000 A 
ATOM      5  C   UNL     1      47.801   7.911  13.065  0.00  0.00    +0.000 A 
ATOM      6  C   UNL     1      46.827   7.620  12.098  0.00  0.00    +0.000 A 
ENDROOT
BRANCH   1   7
ATOM      7  C   UNL     1      45.142   6.057  11.026  0.00  0.00    +0.000 C 
BRANCH   7  10
ATOM      8  C   UNL     1      44.934   4.079   9.556  0.00  0.00    +0.000 C 
ATOM      9  O   UNL     1      43.814   3.797   9.982  0.00  0.00    +0.000 OA
ATOM     10  N   UNL     1      45.647   5.166  10.014  0.00  0.00    +0.000 N 
ATOM     11  H   UNL     1      46.539   5.354   9.570  0.00  0.00    +0.000 HD
BRANCH   8  16
ATOM     12  C   UNL     1      46.778   0.037   7.655  0.00  0.00    +0.000 C 
ATOM     13  C   UNL     1      46.469   1.482   7.637  0.00  0.00    +0.000 A 
ATOM     14  C   UNL     1      46.697   2.491   6.729  0.00  0.00    +0.000 A 
ATOM     15  C   UNL     1      46.151   3.670   7.301  0.00  0.00    +0.000 A 
ATOM     16  C   UNL     1      45.621   3.312   8.529  0.00  0.00    +0.000 A 
ATOM     17  O   UNL     1      45.820   1.969   8.730  0.00  0.00    +0.000 OA
ENDBRANCH   8  16
ENDBRANCH   7  10
ENDBRANCH   1   7
BRANCH   4  18
ATOM     18  C   UNL     1      49.176   7.307  15.102  0.00  0.00    +0.000 C 
BRANCH  18  19
ATOM     19  N   UNL     1      50.506   7.368  14.551  0.00  0.00    +0.000 N 
ATOM     20  C   UNL     1      51.156   8.560  14.351  0.00  0.00    +0.000 C 
ATOM     21  O   UNL     1      50.653   9.638  14.655  0.00  0.00    +0.000 OA
ATOM     22  H   UNL     1      50.831   6.543  14.054  0.00  0.00    +0.000 HD
BRANCH  20  23
ATOM     23  C   UNL     1      52.521   8.477  13.811  0.00  0.00    +0.000 A 
ATOM     24  C   UNL     1      53.605   8.348  14.670  0.00  0.00    +0.000 A 
ATOM     25  S   UNL     1      55.107   8.228  13.866  0.00  0.00    +0.000 S 
ATOM     26  C   UNL     1      54.367   8.398  12.343  0.00  0.00    +0.000 A 
ATOM     27  N   UNL     1      55.106   8.413  11.201  0.00  0.00    +0.000 NA
ATOM     28  C   UNL     1      54.417   8.575  10.120  0.00  0.00    +0.000 A 
ATOM     29  N   UNL     1      53.054   8.714  10.081  0.00  0.00    +0.000 N 
ATOM     30  C   UNL     1      52.264   8.667  11.202  0.00  0.00    +0.000 A 
ATOM     31  O   UNL     1      51.042   8.732  11.123  0.00  0.00    +0.000 OA
ATOM     32  C   UNL     1      52.992   8.513  12.446  0.00  0.00    +0.000 A 
ATOM     33  H   UNL     1      52.570   8.818   9.200  0.00  0.00    +0.000 HD
ENDBRANCH  20  23
ENDBRANCH  18  19
ENDBRANCH   4  18
TORSDOF 6
ENDMDL
MODEL 8
REMARK VINA RESULT:    -6.389      3.286      4.286
REMARK INTER + INTRA:          -9.609
REMARK INTER:                  -8.601
REMARK INTRA:                  -1.007
REMARK UNBOUND:                -0.979
REMARK  Name = 
REMARK  7 active torsions:
REMARK  status: ('A' for Active; 'I' for Inactive)
REMARK    1  A    between atoms: C_1  and  C_2
REMARK    2  A    between atoms: C_5  and  C_6
REMARK    3  A    between atoms: N_8  and  C_9
REMARK    4  A    between atoms: C_9  and  C_10
REMARK    5  A    between atoms: C_13  and  C_14
REMARK    6  A    between atoms: C_14  and  N_15
REMARK    7  A    between atoms: C_16  and  C_18
REMARK                            x       y       z     vdW  Elec       q    Type
REMARK                         _______ _______ _______ _____ _____    ______ ____
ROOT
ATOM      1  C   UNL     1      45.684   5.831  11.688  0.00  0.00    +0.000 A 
ATOM      2  C   UNL     1      46.109   7.165  11.776  0.00  0.00    +0.000 A 
ATOM      3  C   UNL     1      46.987   7.577  12.792  0.00  0.00    +0.000 A 
ATOM      4  C   UNL     1      47.483   6.661  13.729  0.00  0.00    +0.000 A 
ATOM      5  C   UNL     1      47.056   5.329  13.642  0.00  0.00    +0.000 A 
ATOM      6  C   UNL     1      46.176   4.918  12.630  0.00  0.00    +0.000 A 
ENDROOT
BRANCH   1   7
ATOM      7  C   UNL     1      44.719   5.391  10.609  0.00  0.00    +0.000 C 
BRANCH   7  10
ATOM      8  C   UNL     1      44.884   3.254   9.375  0.00  0.00    +0.000 C 
ATOM      9  O   UNL     1      43.916   2.766   9.958  0.00  0.00    +0.000 OA
ATOM     10  N   UNL     1      45.339   4.529   9.636  0.00  0.00    +0.000 N 
ATOM     11  H   UNL     1      46.109   4.869   9.073  0.00  0.00    +0.000 HD
BRANCH   8  16
ATOM     12  C   UNL     1      47.169   2.904   5.131  0.00  0.00    +0.000 C 
ATOM     13  C   UNL     1      46.697   2.366   6.424  0.00  0.00    +0.000 A 
ATOM     14  C   UNL     1      46.811   1.141   7.042  0.00  0.00    +0.000 A 
ATOM     15  C   UNL     1      46.135   1.260   8.284  0.00  0.00    +0.000 A 
ATOM     16  C   UNL     1      45.645   2.552   8.353  0.00  0.00    +0.000 A 
ATOM     17  O   UNL     1      45.991   3.226   7.209  0.00  0.00    +0.000 OA
ENDBRANCH   8  16
ENDBRANCH   7  10
ENDBRANCH   1   7
BRANCH   4  18
ATOM     18  C   UNL     1      48.444   7.092  14.814  0.00  0.00    +0.000 C 
BRANCH  18  19
ATOM     19  N   UNL     1      49.785   7.269  14.317  0.00  0.00    +0.000 N 
ATOM     20  C   UNL     1      50.348   8.512  14.171  0.00  0.00    +0.000 C 
ATOM     21  O   UNL     1      49.752   9.540  14.480  0.00  0.00    +0.000 OA
ATOM     22  H   UNL     1      50.191   6.485  13.813  0.00  0.00    +0.000 HD
BRANCH  20  23
ATOM     23  C   UNL     1      51.735   8.548  13.682  0.00  0.00    +0.000 A 
ATOM     24  C   UNL     1      52.045   9.234  12.514  0.00  0.00    +0.000 A 
ATOM     25  S   UNL     1      53.706   9.202  12.121  0.00  0.00    +0.000 S 
ATOM     26  C   UNL     1      54.062   8.225  13.468  0.00  0.00    +0.000 A 
ATOM     27  N   UNL     1      55.330   7.795  13.709  0.00  0.00    +0.000 NA
ATOM     28  C   UNL     1      55.450   7.040  14.751  0.00  0.00    +0.000 A 
ATOM     29  N   UNL     1      54.416   6.684  15.576  0.00  0.00    +0.000 N 
ATOM     30  C   UNL     1      53.128   7.123  15.395  0.00  0.00    +0.000 A 
ATOM     31  O   UNL     1      52.240   6.835  16.190  0.00  0.00    +0.000 OA
ATOM     32  C   UNL     1      52.935   7.954  14.223  0.00  0.00    +0.000 A 
ATOM     33  H   UNL     1      54.579   6.106  16.389  0.00  0.00    +0.000 HD
ENDBRANCH  20  23
ENDBRANCH  18  19
ENDBRANCH   4  18
TORSDOF 6
ENDMDL
MODEL 9
REMARK VINA RESULT:    -6.373      4.860      7.760
REMARK INTER + INTRA:          -9.588
REMARK INTER:                  -8.732
REMARK INTRA:                  -0.856
REMARK UNBOUND:                -0.979
REMARK  Name = 
REMARK  7 active torsions:
REMARK  status: ('A' for Active; 'I' for Inactive)
REMARK    1  A    between atoms: C_1  and  C_2
REMARK    2  A    between atoms: C_5  and  C_6
REMARK    3  A    between atoms: N_8  and  C_9
REMARK    4  A    between atoms: C_9  and  C_10
REMARK    5  A    between atoms: C_13  and  C_14
REMARK    6  A    between atoms: C_14  and  N_15
REMARK    7  A    between atoms: C_16  and  C_18
REMARK                            x       y       z     vdW  Elec       q    Type
REMARK                         _______ _______ _______ _____ _____    ______ ____
ROOT
ATOM      1  C   UNL     1      50.788   8.334  12.567  0.00  0.00    +0.000 A 
ATOM      2  C   UNL     1      49.898   8.367  11.483  0.00  0.00    +0.000 A 
ATOM      3  C   UNL     1      48.514   8.231  11.681  0.00  0.00    +0.000 A 
ATOM      4  C   UNL     1      47.982   8.084  12.969  0.00  0.00    +0.000 A 
ATOM      5  C   UNL     1      48.871   8.048  14.052  0.00  0.00    +0.000 A 
ATOM      6  C   UNL     1      50.254   8.181  13.854  0.00  0.00    +0.000 A 
ENDROOT
BRANCH   1   7
ATOM      7  C   UNL     1      52.280   8.456  12.354  0.00  0.00    +0.000 C 
BRANCH   7  10
ATOM      8  C   UNL     1      53.128   8.020  10.072  0.00  0.00    +0.000 C 
ATOM      9  O   UNL     1      53.066   9.206   9.750  0.00  0.00    +0.000 OA
ATOM     10  N   UNL     1      52.762   7.573  11.324  0.00  0.00    +0.000 N 
ATOM     11  H   UNL     1      52.895   6.587  11.520  0.00  0.00    +0.000 HD
BRANCH   8  16
ATOM     12  C   UNL     1      54.664   6.276   5.834  0.00  0.00    +0.000 C 
ATOM     13  C   UNL     1      54.298   6.146   7.260  0.00  0.00    +0.000 A 
ATOM     14  C   UNL     1      54.282   5.092   8.144  0.00  0.00    +0.000 A 
ATOM     15  C   UNL     1      53.829   5.619   9.382  0.00  0.00    +0.000 A 
ATOM     16  C   UNL     1      53.593   6.968   9.181  0.00  0.00    +0.000 A 
ATOM     17  O   UNL     1      53.881   7.286   7.878  0.00  0.00    +0.000 OA
ENDBRANCH   8  16
ENDBRANCH   7  10
ENDBRANCH   1   7
BRANCH   4  18
ATOM     18  C   UNL     1      46.492   7.956  13.193  0.00  0.00    +0.000 C 
BRANCH  18  19
ATOM     19  N   UNL     1      45.990   6.665  12.796  0.00  0.00    +0.000 N 
ATOM     20  C   UNL     1      44.985   6.528  11.871  0.00  0.00    +0.000 C 
ATOM     21  O   UNL     1      44.477   7.495  11.311  0.00  0.00    +0.000 OA
ATOM     22  H   UNL     1      46.192   5.887  13.418  0.00  0.00    +0.000 HD
BRANCH  20  23
ATOM     23  C   UNL     1      44.589   5.153  11.535  0.00  0.00    +0.000 A 
ATOM     24  C   UNL     1      43.829   4.407  12.428  0.00  0.00    +0.000 A 
ATOM     25  S   UNL     1      43.431   2.849  11.855  0.00  0.00    +0.000 S 
ATOM     26  C   UNL     1      44.304   3.095  10.415  0.00  0.00    +0.000 A 
ATOM     27  N   UNL     1      44.399   2.117   9.475  0.00  0.00    +0.000 NA
ATOM     28  C   UNL     1      45.113   2.432   8.446  0.00  0.00    +0.000 A 
ATOM     29  N   UNL     1      45.733   3.641   8.270  0.00  0.00    +0.000 N 
ATOM     30  C   UNL     1      45.635   4.670   9.173  0.00  0.00    +0.000 A 
ATOM     31  O   UNL     1      46.152   5.761   8.953  0.00  0.00    +0.000 OA
ATOM     32  C   UNL     1      44.865   4.359  10.360  0.00  0.00    +0.000 A 
ATOM     33  H   UNL     1      46.263   3.834   7.431  0.00  0.00    +0.000 HD
ENDBRANCH  20  23
ENDBRANCH  18  19
ENDBRANCH   4  18
TORSDOF 6
ENDMDL
