MODEL 1
REMARK VINA RESULT:    -8.469      0.000      0.000
REMARK INTER + INTRA:         -11.807
REMARK INTER:                 -11.193
REMARK INTRA:                  -0.615
REMARK UNBOUND:                -0.615
REMARK  Name = 
REMARK  6 active torsions:
REMARK  status: ('A' for Active; 'I' for Inactive)
REMARK    1  A    between atoms: N_1  and  C_2
REMARK    2  A    between atoms: C_2  and  N_3
REMARK    3  A    between atoms: C_2  and  C_16
REMARK    4  A    between atoms: C_4  and  C_6
REMARK    5  A    between atoms: C_19  and  C_20
REMARK    6  A    between atoms: C_20  and  N_21
REMARK                            x       y       z     vdW  Elec       q    Type
REMARK                         _______ _______ _______ _____ _____    ______ ____
ROOT
ATOM      1  C   UNL     1      47.130   7.735  13.459  0.00  0.00    +0.000 C 
ENDROOT
BRANCH   1   2
ATOM      2  C   UNL     1      46.322   6.628  12.797  0.00  0.00    +0.000 A 
ATOM      3  C   UNL     1      46.696   5.284  12.938  0.00  0.00    +0.000 A 
ATOM      4  C   UNL     1      45.939   4.264  12.345  0.00  0.00    +0.000 A 
ATOM      5  C   UNL     1      44.795   4.562  11.589  0.00  0.00    +0.000 A 
ATOM      6  C   UNL     1      44.412   5.901  11.455  0.00  0.00    +0.000 A 
ATOM      7  C   UNL     1      45.169   6.919  12.043  0.00  0.00    +0.000 A 
BRANCH   5   8
ATOM      8  C   UNL     1      43.976   3.469  10.949  0.00  0.00    +0.000 C 
BRANCH   8   9
ATOM      9  N   UNL     1      44.740   2.755   9.950  0.00  0.00    +0.000 N 
ATOM     10  C   UNL     1      45.000   3.346   8.741  0.00  0.00    +0.000 C 
ATOM     11  O   UNL     1      44.534   4.435   8.427  0.00  0.00    +0.000 OA
ATOM     12  N   UNL     1      45.822   2.623   7.910  0.00  0.00    +0.000 N 
ATOM     13  C   UNL     1      46.307   1.266   8.074  0.00  0.00    +0.000 C 
ATOM     14  C   UNL     1      47.560   1.245   7.218  0.00  0.00    +0.000 C 
ATOM     15  C   UNL     1      47.185   2.125   6.031  0.00  0.00    +0.000 C 
ATOM     16  C   UNL     1      46.195   3.140   6.602  0.00  0.00    +0.000 C 
ATOM     17  H   UNL     1      45.481   2.182  10.317  0.00  0.00    +0.000 HD
ENDBRANCH   8   9
ENDBRANCH   5   8
ENDBRANCH   1   2
BRANCH   1  18
ATOM     18  N   UNL     1      47.567   7.309  14.757  0.00  0.00    +0.000 N 
ATOM     19  C   UNL     1      48.841   6.896  15.047  0.00  0.00    +0.000 C 
ATOM     20  O   UNL     1      49.763   6.966  14.239  0.00  0.00    +0.000 OA
ATOM     21  H   UNL     1      46.827   6.894  15.311  0.00  0.00    +0.000 HD
BRANCH  19  22
ATOM     22  C   UNL     1      49.067   6.488  16.441  0.00  0.00    +0.000 A 
ATOM     23  C   UNL     1      49.656   7.370  17.336  0.00  0.00    +0.000 A 
ATOM     24  S   UNL     1      49.743   6.766  18.929  0.00  0.00    +0.000 S 
ATOM     25  C   UNL     1      49.044   5.284  18.466  0.00  0.00    +0.000 A 
ATOM     26  N   UNL     1      48.836   4.291  19.371  0.00  0.00    +0.000 NA
ATOM     27  C   UNL     1      48.322   3.215  18.875  0.00  0.00    +0.000 A 
ATOM     28  N   UNL     1      47.999   3.041  17.555  0.00  0.00    +0.000 N 
ATOM     29  C   UNL     1      48.176   4.022  16.609  0.00  0.00    +0.000 A 
ATOM     30  O   UNL     1      47.856   3.852  15.437  0.00  0.00    +0.000 OA
ATOM     31  C   UNL     1      48.746   5.253  17.117  0.00  0.00    +0.000 A 
ATOM     32  H   UNL     1      47.599   2.174  17.229  0.00  0.00    +0.000 HD
ENDBRANCH  19  22
ENDBRANCH   1  18
BRANCH   1  33
ATOM     33  N   UNL     1      46.316   8.915  13.657  0.00  0.00    +0.000 NA
ATOM     34  H   UNL     1      46.408   9.161  14.646  0.00  0.00    +0.000 HD
ATOM     35  H   UNL     1      45.344   8.644  13.545  0.00  0.00    +0.000 HD
ENDBRANCH   1  33
TORSDOF 6
ENDMDL
MODEL 2
REMARK VINA RESULT:    -8.352      1.587      2.307
REMARK INTER + INTRA:         -11.653
REMARK INTER:                 -10.749
REMARK INTRA:                  -0.903
REMARK UNBOUND:                -0.615
REMARK  Name = 
REMARK  6 active torsions:
REMARK  status: ('A' for Active; 'I' for Inactive)
REMARK    1  A    between atoms: N_1  and  C_2
REMARK    2  A    between atoms: C_2  and  N_3
REMARK    3  A    between atoms: C_2  and  C_16
REMARK    4  A    between atoms: C_4  and  C_6
REMARK    5  A    between atoms: C_19  and  C_20
REMARK    6  A    between atoms: C_20  and  N_21
REMARK                            x       y       z     vdW  Elec       q    Type
REMARK                         _______ _______ _______ _____ _____    ______ ____
ROOT
ATOM      1  C   UNL     1      47.613   7.275  13.898  0.00  0.00    +0.000 C 
ENDROOT
BRANCH   1   2
ATOM      2  C   UNL     1      46.734   6.250  13.197  0.00  0.00    +0.000 A 
ATOM      3  C   UNL     1      45.808   6.645  12.222  0.00  0.00    +0.000 A 
ATOM      4  C   UNL     1      45.013   5.697  11.561  0.00  0.00    +0.000 A 
ATOM      5  C   UNL     1      45.119   4.332  11.866  0.00  0.00    +0.000 A 
ATOM      6  C   UNL     1      46.049   3.932  12.831  0.00  0.00    +0.000 A 
ATOM      7  C   UNL     1      46.838   4.877  13.493  0.00  0.00    +0.000 A 
BRANCH   5   8
ATOM      8  C   UNL     1      44.267   3.307  11.160  0.00  0.00    +0.000 C 
BRANCH   8   9
ATOM      9  N   UNL     1      44.988   2.680  10.075  0.00  0.00    +0.000 N 
ATOM     10  C   UNL     1      45.075   3.311   8.861  0.00  0.00    +0.000 C 
ATOM     11  O   UNL     1      44.486   4.359   8.621  0.00  0.00    +0.000 OA
ATOM     12  N   UNL     1      45.871   2.679   7.937  0.00  0.00    +0.000 N 
ATOM     13  C   UNL     1      46.487   1.369   8.019  0.00  0.00    +0.000 C 
ATOM     14  C   UNL     1      47.647   1.475   7.045  0.00  0.00    +0.000 C 
ATOM     15  C   UNL     1      47.081   2.336   5.922  0.00  0.00    +0.000 C 
ATOM     16  C   UNL     1      46.066   3.248   6.611  0.00  0.00    +0.000 C 
ATOM     17  H   UNL     1      45.810   2.170  10.353  0.00  0.00    +0.000 HD
ENDBRANCH   8   9
ENDBRANCH   5   8
ENDBRANCH   1   2
BRANCH   1  18
ATOM     18  N   UNL     1      47.903   6.836  15.232  0.00  0.00    +0.000 N 
ATOM     19  C   UNL     1      49.167   6.620  15.718  0.00  0.00    +0.000 C 
ATOM     20  O   UNL     1      50.180   6.899  15.083  0.00  0.00    +0.000 OA
ATOM     21  H   UNL     1      47.169   6.265  15.634  0.00  0.00    +0.000 HD
BRANCH  19  22
ATOM     22  C   UNL     1      49.234   6.156  17.111  0.00  0.00    +0.000 A 
ATOM     23  C   UNL     1      49.770   4.910  17.402  0.00  0.00    +0.000 A 
ATOM     24  S   UNL     1      49.864   4.583  19.074  0.00  0.00    +0.000 S 
ATOM     25  C   UNL     1      49.141   6.074  19.464  0.00  0.00    +0.000 A 
ATOM     26  N   UNL     1      48.917   6.430  20.756  0.00  0.00    +0.000 NA
ATOM     27  C   UNL     1      48.338   7.577  20.902  0.00  0.00    +0.000 A 
ATOM     28  N   UNL     1      47.963   8.398  19.872  0.00  0.00    +0.000 N 
ATOM     29  C   UNL     1      48.185   8.087  18.551  0.00  0.00    +0.000 A 
ATOM     30  O   UNL     1      47.862   8.849  17.647  0.00  0.00    +0.000 OA
ATOM     31  C   UNL     1      48.837   6.811  18.335  0.00  0.00    +0.000 A 
ATOM     32  H   UNL     1      47.515   9.284  20.052  0.00  0.00    +0.000 HD
ENDBRANCH  19  22
ENDBRANCH   1  18
BRANCH   1  33
ATOM     33  N   UNL     1      46.928   8.544  14.015  0.00  0.00    +0.000 NA
ATOM     34  H   UNL     1      46.160   8.393  14.674  0.00  0.00    +0.000 HD
ATOM     35  H   UNL     1      46.475   8.735  13.127  0.00  0.00    +0.000 HD
ENDBRANCH   1  33
TORSDOF 6
ENDMDL
MODEL 3
REMARK VINA RESULT:    -7.871      4.699      9.214
REMARK INTER + INTRA:         -11.016
REMARK INTER:                 -10.190
REMARK INTRA:                  -0.825
REMARK UNBOUND:                -0.615
REMARK  Name = 
REMARK  6 active torsions:
REMARK  status: ('A' for Active; 'I' for Inactive)
REMARK    1  A    between atoms: N_1  and  C_2
REMARK    2  A    between atoms: C_2  and  N_3
REMARK    3  A    between atoms: C_2  and  C_16
REMARK    4  A    between atoms: C_4  and  C_6
REMARK    5  A    between atoms: C_19  and  C_20
REMARK    6  A    between atoms: C_20  and  N_21
REMARK                            x       y       z     vdW  Elec       q    Type
REMARK                         _______ _______ _______ _____ _____    ______ ____
ROOT
ATOM      1  C   UNL     1      47.462   3.399  16.816  0.00  0.00    +0.000 C 
ENDROOT
BRANCH   1   2
ATOM      2  C   UNL     1      48.952   3.343  17.122  0.00  0.00    +0.000 A 
ATOM      3  C   UNL     1      49.641   4.487  17.548  0.00  0.00    +0.000 A 
ATOM      4  C   UNL     1      51.009   4.428  17.850  0.00  0.00    +0.000 A 
ATOM      5  C   UNL     1      51.723   3.227  17.724  0.00  0.00    +0.000 A 
ATOM      6  C   UNL     1      51.037   2.081  17.310  0.00  0.00    +0.000 A 
ATOM      7  C   UNL     1      49.674   2.140  17.005  0.00  0.00    +0.000 A 
BRANCH   5   8
ATOM      8  C   UNL     1      53.195   3.157  18.047  0.00  0.00    +0.000 C 
BRANCH   8   9
ATOM      9  N   UNL     1      53.803   1.974  17.481  0.00  0.00    +0.000 N 
ATOM     10  C   UNL     1      54.269   0.986  18.308  0.00  0.00    +0.000 C 
ATOM     11  O   UNL     1      54.276   1.099  19.529  0.00  0.00    +0.000 OA
ATOM     12  N   UNL     1      54.729  -0.137  17.664  0.00  0.00    +0.000 N 
ATOM     13  C   UNL     1      54.937  -0.345  16.244  0.00  0.00    +0.000 C 
ATOM     14  C   UNL     1      54.873  -1.855  16.107  0.00  0.00    +0.000 C 
ATOM     15  C   UNL     1      55.546  -2.350  17.382  0.00  0.00    +0.000 C 
ATOM     16  C   UNL     1      55.237  -1.272  18.422  0.00  0.00    +0.000 C 
ATOM     17  H   UNL     1      53.384   1.654  16.623  0.00  0.00    +0.000 HD
ENDBRANCH   8   9
ENDBRANCH   5   8
ENDBRANCH   1   2
BRANCH   1  18
ATOM     18  N   UNL     1      47.203   4.424  15.847  0.00  0.00    +0.000 N 
ATOM     19  C   UNL     1      47.148   4.214  14.494  0.00  0.00    +0.000 C 
ATOM     20  O   UNL     1      47.201   3.094  13.992  0.00  0.00    +0.000 OA
ATOM     21  H   UNL     1      47.516   5.342  16.143  0.00  0.00    +0.000 HD
BRANCH  19  22
ATOM     22  C   UNL     1      46.884   5.411  13.682  0.00  0.00    +0.000 A 
ATOM     23  C   UNL     1      47.887   6.348  13.482  0.00  0.00    +0.000 A 
ATOM     24  S   UNL     1      47.436   7.614  12.430  0.00  0.00    +0.000 S 
ATOM     25  C   UNL     1      45.866   6.980  12.249  0.00  0.00    +0.000 A 
ATOM     26  N   UNL     1      44.943   7.599  11.467  0.00  0.00    +0.000 NA
ATOM     27  C   UNL     1      43.788   7.021  11.443  0.00  0.00    +0.000 A 
ATOM     28  N   UNL     1      43.473   5.880  12.133  0.00  0.00    +0.000 N 
ATOM     29  C   UNL     1      44.378   5.211  12.922  0.00  0.00    +0.000 A 
ATOM     30  O   UNL     1      44.079   4.177  13.510  0.00  0.00    +0.000 OA
ATOM     31  C   UNL     1      45.692   5.818  12.978  0.00  0.00    +0.000 A 
ATOM     32  H   UNL     1      42.550   5.476  12.071  0.00  0.00    +0.000 HD
ENDBRANCH  19  22
ENDBRANCH   1  18
BRANCH   1  33
ATOM     33  N   UNL     1      46.708   3.744  18.002  0.00  0.00    +0.000 NA
ATOM     34  H   UNL     1      45.861   4.216  17.674  0.00  0.00    +0.000 HD
ATOM     35  H   UNL     1      47.227   4.458  18.503  0.00  0.00    +0.000 HD
ENDBRANCH   1  33
TORSDOF 6
ENDMDL
MODEL 4
REMARK VINA RESULT:    -7.705      2.485      4.406
REMARK INTER + INTRA:         -10.797
REMARK INTER:                  -9.495
REMARK INTRA:                  -1.302
REMARK UNBOUND:                -0.615
REMARK  Name = 
REMARK  6 active torsions:
REMARK  status: ('A' for Active; 'I' for Inactive)
REMARK    1  A    between atoms: N_1  and  C_2
REMARK    2  A    between atoms: C_2  and  N_3
REMARK    3  A    between atoms: C_2  and  C_16
REMARK    4  A    between atoms: C_4  and  C_6
REMARK    5  A    between atoms: C_19  and  C_20
REMARK    6  A    between atoms: C_20  and  N_21
REMARK                            x       y       z     vdW  Elec       q    Type
REMARK                         _______ _______ _______ _____ _____    ______ ____
ROOT
ATOM      1  C   UNL     1      47.406   5.492  15.033  0.00  0.00    +0.000 C 
ENDROOT
BRANCH   1   2
ATOM      2  C   UNL     1      46.507   5.015  13.901  0.00  0.00    +0.000 A 
ATOM      3  C   UNL     1      45.713   5.922  13.185  0.00  0.00    +0.000 A 
ATOM      4  C   UNL     1      44.902   5.484  12.128  0.00  0.00    +0.000 A 
ATOM      5  C   UNL     1      44.858   4.129  11.768  0.00  0.00    +0.000 A 
ATOM      6  C   UNL     1      45.657   3.223  12.473  0.00  0.00    +0.000 A 
ATOM      7  C   UNL     1      46.462   3.658  13.529  0.00  0.00    +0.000 A 
BRANCH   5   8
ATOM      8  C   UNL     1      43.987   3.651  10.632  0.00  0.00    +0.000 C 
BRANCH   8   9
ATOM      9  N   UNL     1      44.752   2.901   9.662  0.00  0.00    +0.000 N 
ATOM     10  C   UNL     1      45.300   3.543   8.582  0.00  0.00    +0.000 C 
ATOM     11  O   UNL     1      45.094   4.729   8.349  0.00  0.00    +0.000 OA
ATOM     12  N   UNL     1      46.093   2.756   7.783  0.00  0.00    +0.000 N 
ATOM     13  C   UNL     1      46.290   1.320   7.837  0.00  0.00    +0.000 C 
ATOM     14  C   UNL     1      47.635   1.134   7.160  0.00  0.00    +0.000 C 
ATOM     15  C   UNL     1      47.616   2.182   6.053  0.00  0.00    +0.000 C 
ATOM     16  C   UNL     1      46.752   3.313   6.611  0.00  0.00    +0.000 C 
ATOM     17  H   UNL     1      45.310   2.158  10.049  0.00  0.00    +0.000 HD
ENDBRANCH   8   9
ENDBRANCH   5   8
ENDBRANCH   1   2
BRANCH   1  18
ATOM     18  N   UNL     1      48.483   6.276  14.503  0.00  0.00    +0.000 N 
ATOM     19  C   UNL     1      49.224   7.167  15.233  0.00  0.00    +0.000 C 
ATOM     20  O   UNL     1      49.107   7.290  16.450  0.00  0.00    +0.000 OA
ATOM     21  H   UNL     1      48.374   6.489  13.518  0.00  0.00    +0.000 HD
BRANCH  19  22
ATOM     22  C   UNL     1      50.271   7.877  14.484  0.00  0.00    +0.000 A 
ATOM     23  C   UNL     1      51.583   7.857  14.938  0.00  0.00    +0.000 A 
ATOM     24  S   UNL     1      52.677   8.642  13.890  0.00  0.00    +0.000 S 
ATOM     25  C   UNL     1      51.427   9.081  12.821  0.00  0.00    +0.000 A 
ATOM     26  N   UNL     1      51.684   9.793  11.692  0.00  0.00    +0.000 NA
ATOM     27  C   UNL     1      50.638  10.077  10.989  0.00  0.00    +0.000 A 
ATOM     28  N   UNL     1      49.358   9.714  11.314  0.00  0.00    +0.000 N 
ATOM     29  C   UNL     1      49.052   8.980  12.436  0.00  0.00    +0.000 A 
ATOM     30  O   UNL     1      47.901   8.646  12.693  0.00  0.00    +0.000 OA
ATOM     31  C   UNL     1      50.194   8.631  13.256  0.00  0.00    +0.000 A 
ATOM     32  H   UNL     1      48.581   9.967  10.721  0.00  0.00    +0.000 HD
ENDBRANCH  19  22
ENDBRANCH   1  18
BRANCH   1  33
ATOM     33  N   UNL     1      48.005   4.368  15.720  0.00  0.00    +0.000 NA
ATOM     34  H   UNL     1      48.995   4.600  15.835  0.00  0.00    +0.000 HD
ATOM     35  H   UNL     1      47.994   3.576  15.086  0.00  0.00    +0.000 HD
ENDBRANCH   1  33
TORSDOF 6
ENDMDL
MODEL 5
REMARK VINA RESULT:    -7.506      3.951      8.815
REMARK INTER + INTRA:         -10.534
REMARK INTER:                  -9.634
REMARK INTRA:                  -0.900
REMARK UNBOUND:                -0.615
REMARK  Name = 
REMARK  6 active torsions:
REMARK  status: ('A' for Active; 'I' for Inactive)
REMARK    1  A    between atoms: N_1  and  C_2
REMARK    2  A    between atoms: C_2  and  N_3
REMARK    3  A    between atoms: C_2  and  C_16
REMARK    4  A    between atoms: C_4  and  C_6
REMARK    5  A    between atoms: C_19  and  C_20
REMARK    6  A    between atoms: C_20  and  N_21
REMARK                            x       y       z     vdW  Elec       q    Type
REMARK                         _______ _______ _______ _____ _____    ______ ____
ROOT
ATOM      1  C   UNL     1      47.449   3.392  16.501  0.00  0.00    +0.000 C 
ENDROOT
BRANCH   1   2
ATOM      2  C   UNL     1      48.810   3.924  16.930  0.00  0.00    +0.000 A 
ATOM      3  C   UNL     1      49.069   5.302  16.946  0.00  0.00    +0.000 A 
ATOM      4  C   UNL     1      50.316   5.791  17.361  0.00  0.00    +0.000 A 
ATOM      5  C   UNL     1      51.336   4.915  17.761  0.00  0.00    +0.000 A 
ATOM      6  C   UNL     1      51.078   3.541  17.756  0.00  0.00    +0.000 A 
ATOM      7  C   UNL     1      49.837   3.052  17.339  0.00  0.00    +0.000 A 
BRANCH   5   8
ATOM      8  C   UNL     1      52.680   5.435  18.208  0.00  0.00    +0.000 C 
BRANCH   8   9
ATOM      9  N   UNL     1      53.256   6.321  17.222  0.00  0.00    +0.000 N 
ATOM     10  C   UNL     1      54.248   5.864  16.393  0.00  0.00    +0.000 C 
ATOM     11  O   UNL     1      54.740   4.747  16.510  0.00  0.00    +0.000 OA
ATOM     12  N   UNL     1      54.649   6.755  15.426  0.00  0.00    +0.000 N 
ATOM     13  C   UNL     1      54.284   8.149  15.274  0.00  0.00    +0.000 C 
ATOM     14  C   UNL     1      54.531   8.408  13.799  0.00  0.00    +0.000 C 
ATOM     15  C   UNL     1      55.774   7.576  13.503  0.00  0.00    +0.000 C 
ATOM     16  C   UNL     1      55.683   6.394  14.468  0.00  0.00    +0.000 C 
ATOM     17  H   UNL     1      52.606   6.963  16.800  0.00  0.00    +0.000 HD
ENDBRANCH   8   9
ENDBRANCH   5   8
ENDBRANCH   1   2
BRANCH   1  18
ATOM     18  N   UNL     1      46.828   4.316  15.598  0.00  0.00    +0.000 N 
ATOM     19  C   UNL     1      46.780   4.155  14.238  0.00  0.00    +0.000 C 
ATOM     20  O   UNL     1      47.167   3.134  13.675  0.00  0.00    +0.000 OA
ATOM     21  H   UNL     1      46.843   5.273  15.932  0.00  0.00    +0.000 HD
BRANCH  19  22
ATOM     22  C   UNL     1      46.107   5.233  13.500  0.00  0.00    +0.000 A 
ATOM     23  C   UNL     1      46.742   6.454  13.322  0.00  0.00    +0.000 A 
ATOM     24  S   UNL     1      45.858   7.546  12.355  0.00  0.00    +0.000 S 
ATOM     25  C   UNL     1      44.572   6.444  12.184  0.00  0.00    +0.000 A 
ATOM     26  N   UNL     1      43.464   6.761  11.464  0.00  0.00    +0.000 NA
ATOM     27  C   UNL     1      42.559   5.839  11.442  0.00  0.00    +0.000 A 
ATOM     28  N   UNL     1      42.661   4.630  12.077  0.00  0.00    +0.000 N 
ATOM     29  C   UNL     1      43.769   4.260  12.802  0.00  0.00    +0.000 A 
ATOM     30  O   UNL     1      43.848   3.161  13.342  0.00  0.00    +0.000 OA
ATOM     31  C   UNL     1      44.816   5.259  12.853  0.00  0.00    +0.000 A 
ATOM     32  H   UNL     1      41.917   3.950  12.020  0.00  0.00    +0.000 HD
ENDBRANCH  19  22
ENDBRANCH   1  18
BRANCH   1  33
ATOM     33  N   UNL     1      46.567   3.264  17.641  0.00  0.00    +0.000 NA
ATOM     34  H   UNL     1      46.664   4.131  18.174  0.00  0.00    +0.000 HD
ATOM     35  H   UNL     1      46.945   2.542  18.246  0.00  0.00    +0.000 HD
ENDBRANCH   1  33
TORSDOF 6
ENDMDL
MODEL 6
REMARK VINA RESULT:    -7.501      3.368      4.734
REMARK INTER + INTRA:         -10.528
REMARK INTER:                  -9.606
REMARK INTRA:                  -0.922
REMARK UNBOUND:                -0.615
REMARK  Name = 
REMARK  6 active torsions:
REMARK  status: ('A' for Active; 'I' for Inactive)
REMARK    1  A    between atoms: N_1  and  C_2
REMARK    2  A    between atoms: C_2  and  N_3
REMARK    3  A    between atoms: C_2  and  C_16
REMARK    4  A    between atoms: C_4  and  C_6
REMARK    5  A    between atoms: C_19  and  C_20
REMARK    6  A    between atoms: C_20  and  N_21
REMARK                            x       y       z     vdW  Elec       q    Type
REMARK                         _______ _______ _______ _____ _____    ______ ____
ROOT
ATOM      1  C   UNL     1      47.829   6.427  14.498  0.00  0.00    +0.000 C 
ENDROOT
BRANCH   1   2
ATOM      2  C   UNL     1      46.899   5.578  13.643  0.00  0.00    +0.000 A 
ATOM      3  C   UNL     1      45.995   6.176  12.754  0.00  0.00    +0.000 A 
ATOM      4  C   UNL     1      45.154   5.392  11.951  0.00  0.00    +0.000 A 
ATOM      5  C   UNL     1      45.189   3.992  12.026  0.00  0.00    +0.000 A 
ATOM      6  C   UNL     1      46.096   3.390  12.904  0.00  0.00    +0.000 A 
ATOM      7  C   UNL     1      46.932   4.171  13.707  0.00  0.00    +0.000 A 
BRANCH   5   8
ATOM      8  C   UNL     1      44.286   3.142  11.165  0.00  0.00    +0.000 C 
BRANCH   8   9
ATOM      9  N   UNL     1      45.010   2.561  10.057  0.00  0.00    +0.000 N 
ATOM     10  C   UNL     1      45.125   3.254   8.880  0.00  0.00    +0.000 C 
ATOM     11  O   UNL     1      44.558   4.325   8.689  0.00  0.00    +0.000 OA
ATOM     12  N   UNL     1      45.920   2.656   7.933  0.00  0.00    +0.000 N 
ATOM     13  C   UNL     1      46.510   1.332   7.951  0.00  0.00    +0.000 C 
ATOM     14  C   UNL     1      47.684   1.467   6.999  0.00  0.00    +0.000 C 
ATOM     15  C   UNL     1      47.149   2.398   5.917  0.00  0.00    +0.000 C 
ATOM     16  C   UNL     1      46.143   3.292   6.642  0.00  0.00    +0.000 C 
ATOM     17  H   UNL     1      45.818   2.020  10.317  0.00  0.00    +0.000 HD
ENDBRANCH   8   9
ENDBRANCH   5   8
ENDBRANCH   1   2
BRANCH   1  18
ATOM     18  N   UNL     1      48.899   6.938  13.692  0.00  0.00    +0.000 N 
ATOM     19  C   UNL     1      49.642   8.047  14.004  0.00  0.00    +0.000 C 
ATOM     20  O   UNL     1      49.532   8.641  15.074  0.00  0.00    +0.000 OA
ATOM     21  H   UNL     1      48.783   6.744  12.704  0.00  0.00    +0.000 HD
BRANCH  19  22
ATOM     22  C   UNL     1      50.681   8.404  13.028  0.00  0.00    +0.000 A 
ATOM     23  C   UNL     1      50.322   8.811  11.751  0.00  0.00    +0.000 A 
ATOM     24  S   UNL     1      51.649   9.285  10.789  0.00  0.00    +0.000 S 
ATOM     25  C   UNL     1      52.754   8.911  12.030  0.00  0.00    +0.000 A 
ATOM     26  N   UNL     1      54.091   9.082  11.856  0.00  0.00    +0.000 NA
ATOM     27  C   UNL     1      54.811   8.734  12.871  0.00  0.00    +0.000 A 
ATOM     28  N   UNL     1      54.313   8.228  14.044  0.00  0.00    +0.000 N 
ATOM     29  C   UNL     1      52.969   8.054  14.270  0.00  0.00    +0.000 A 
ATOM     30  O   UNL     1      52.545   7.622  15.336  0.00  0.00    +0.000 OA
ATOM     31  C   UNL     1      52.117   8.435  13.161  0.00  0.00    +0.000 A 
ATOM     32  H   UNL     1      54.930   7.975  14.801  0.00  0.00    +0.000 HD
ENDBRANCH  19  22
ENDBRANCH   1  18
BRANCH   1  33
ATOM     33  N   UNL     1      48.435   5.630  15.542  0.00  0.00    +0.000 NA
ATOM     34  H   UNL     1      47.663   5.264  16.106  0.00  0.00    +0.000 HD
ATOM     35  H   UNL     1      48.935   6.260  16.162  0.00  0.00    +0.000 HD
ENDBRANCH   1  33
TORSDOF 6
ENDMDL
MODEL 7
REMARK VINA RESULT:    -7.299      3.868      8.297
REMARK INTER + INTRA:         -10.260
REMARK INTER:                  -9.507
REMARK INTRA:                  -0.753
REMARK UNBOUND:                -0.615
REMARK  Name = 
REMARK  6 active torsions:
REMARK  status: ('A' for Active; 'I' for Inactive)
REMARK    1  A    between atoms: N_1  and  C_2
REMARK    2  A    between atoms: C_2  and  N_3
REMARK    3  A    between atoms: C_2  and  C_16
REMARK    4  A    between atoms: C_4  and  C_6
REMARK    5  A    between atoms: C_19  and  C_20
REMARK    6  A    between atoms: C_20  and  N_21
REMARK                            x       y       z     vdW  Elec       q    Type
REMARK                         _______ _______ _______ _____ _____    ______ ____
ROOT
ATOM      1  C   UNL     1      48.691   7.684  15.111  0.00  0.00    +0.000 C 
ENDROOT
BRANCH   1   2
ATOM      2  C   UNL     1      49.183   6.511  15.949  0.00  0.00    +0.000 A 
ATOM      3  C   UNL     1      50.525   6.424  16.343  0.00  0.00    +0.000 A 
ATOM      4  C   UNL     1      50.972   5.355  17.132  0.00  0.00    +0.000 A 
ATOM      5  C   UNL     1      50.090   4.342  17.538  0.00  0.00    +0.000 A 
ATOM      6  C   UNL     1      48.748   4.431  17.156  0.00  0.00    +0.000 A 
ATOM      7  C   UNL     1      48.303   5.495  16.366  0.00  0.00    +0.000 A 
BRANCH   5   8
ATOM      8  C   UNL     1      50.565   3.189  18.387  0.00  0.00    +0.000 C 
BRANCH   8   9
ATOM      9  N   UNL     1      51.939   2.848  18.092  0.00  0.00    +0.000 N 
ATOM     10  C   UNL     1      52.254   1.575  17.693  0.00  0.00    +0.000 C 
ATOM     11  O   UNL     1      51.425   0.672  17.659  0.00  0.00    +0.000 OA
ATOM     12  N   UNL     1      53.568   1.391  17.338  0.00  0.00    +0.000 N 
ATOM     13  C   UNL     1      54.683   2.306  17.484  0.00  0.00    +0.000 C 
ATOM     14  C   UNL     1      55.666   1.818  16.437  0.00  0.00    +0.000 C 
ATOM     15  C   UNL     1      55.498   0.304  16.479  0.00  0.00    +0.000 C 
ATOM     16  C   UNL     1      54.037   0.091  16.878  0.00  0.00    +0.000 C 
ATOM     17  H   UNL     1      52.469   3.581  17.650  0.00  0.00    +0.000 HD
ENDBRANCH   8   9
ENDBRANCH   5   8
ENDBRANCH   1   2
BRANCH   1  18
ATOM     18  N   UNL     1      47.519   7.300  14.379  0.00  0.00    +0.000 N 
ATOM     19  C   UNL     1      47.527   6.480  13.281  0.00  0.00    +0.000 C 
ATOM     20  O   UNL     1      48.537   5.898  12.892  0.00  0.00    +0.000 OA
ATOM     21  H   UNL     1      46.784   7.997  14.408  0.00  0.00    +0.000 HD
BRANCH  19  22
ATOM     22  C   UNL     1      46.212   6.230  12.673  0.00  0.00    +0.000 A 
ATOM     23  C   UNL     1      45.491   7.282  12.124  0.00  0.00    +0.000 A 
ATOM     24  S   UNL     1      44.040   6.792  11.372  0.00  0.00    +0.000 S 
ATOM     25  C   UNL     1      44.300   5.165  11.801  0.00  0.00    +0.000 A 
ATOM     26  N   UNL     1      43.409   4.196  11.460  0.00  0.00    +0.000 NA
ATOM     27  C   UNL     1      43.723   3.013  11.873  0.00  0.00    +0.000 A 
ATOM     28  N   UNL     1      44.846   2.711  12.597  0.00  0.00    +0.000 N 
ATOM     29  C   UNL     1      45.782   3.654  12.949  0.00  0.00    +0.000 A 
ATOM     30  O   UNL     1      46.793   3.356  13.576  0.00  0.00    +0.000 OA
ATOM     31  C   UNL     1      45.479   4.999  12.504  0.00  0.00    +0.000 A 
ATOM     32  H   UNL     1      45.034   1.764  12.890  0.00  0.00    +0.000 HD
ENDBRANCH  19  22
ENDBRANCH   1  18
BRANCH   1  33
ATOM     33  N   UNL     1      49.687   8.070  14.136  0.00  0.00    +0.000 NA
ATOM     34  H   UNL     1      49.206   8.096  13.233  0.00  0.00    +0.000 HD
ATOM     35  H   UNL     1      50.353   7.309  14.054  0.00  0.00    +0.000 HD
ENDBRANCH   1  33
TORSDOF 6
ENDMDL
MODEL 8
REMARK VINA RESULT:    -7.266      3.802      9.937
REMARK INTER + INTRA:         -10.216
REMARK INTER:                  -9.370
REMARK INTRA:                  -0.846
REMARK UNBOUND:                -0.615
REMARK  Name = 
REMARK  6 active torsions:
REMARK  status: ('A' for Active; 'I' for Inactive)
REMARK    1  A    between atoms: N_1  and  C_2
REMARK    2  A    between atoms: C_2  and  N_3
REMARK    3  A    between atoms: C_2  and  C_16
REMARK    4  A    between atoms: C_4  and  C_6
REMARK    5  A    between atoms: C_19  and  C_20
REMARK    6  A    between atoms: C_20  and  N_21
REMARK                            x       y       z     vdW  Elec       q    Type
REMARK                         _______ _______ _______ _____ _____    ______ ____
ROOT
ATOM      1  C   UNL     1      47.436   3.348  16.514  0.00  0.00    +0.000 C 
ENDROOT
BRANCH   1   2
ATOM      2  C   UNL     1      48.825   3.826  16.911  0.00  0.00    +0.000 A 
ATOM      3  C   UNL     1      49.133   5.193  16.939  0.00  0.00    +0.000 A 
ATOM      4  C   UNL     1      50.407   5.633  17.325  0.00  0.00    +0.000 A 
ATOM      5  C   UNL     1      51.407   4.717  17.684  0.00  0.00    +0.000 A 
ATOM      6  C   UNL     1      51.100   3.352  17.668  0.00  0.00    +0.000 A 
ATOM      7  C   UNL     1      49.832   2.913  17.279  0.00  0.00    +0.000 A 
BRANCH   5   8
ATOM      8  C   UNL     1      52.779   5.183  18.101  0.00  0.00    +0.000 C 
BRANCH   8   9
ATOM      9  N   UNL     1      52.837   6.624  18.204  0.00  0.00    +0.000 N 
ATOM     10  C   UNL     1      53.142   7.209  19.405  0.00  0.00    +0.000 C 
ATOM     11  O   UNL     1      53.284   6.560  20.436  0.00  0.00    +0.000 OA
ATOM     12  N   UNL     1      53.274   8.576  19.365  0.00  0.00    +0.000 N 
ATOM     13  C   UNL     1      52.975   9.482  18.274  0.00  0.00    +0.000 C 
ATOM     14  C   UNL     1      53.835  10.693  18.589  0.00  0.00    +0.000 C 
ATOM     15  C   UNL     1      53.776  10.775  20.110  0.00  0.00    +0.000 C 
ATOM     16  C   UNL     1      53.613   9.325  20.567  0.00  0.00    +0.000 C 
ATOM     17  H   UNL     1      53.208   7.091  17.392  0.00  0.00    +0.000 HD
ENDBRANCH   8   9
ENDBRANCH   5   8
ENDBRANCH   1   2
BRANCH   1  18
ATOM     18  N   UNL     1      46.838   4.286  15.609  0.00  0.00    +0.000 N 
ATOM     19  C   UNL     1      46.801   4.132  14.248  0.00  0.00    +0.000 C 
ATOM     20  O   UNL     1      47.177   3.107  13.684  0.00  0.00    +0.000 OA
ATOM     21  H   UNL     1      46.865   5.241  15.948  0.00  0.00    +0.000 HD
BRANCH  19  22
ATOM     22  C   UNL     1      46.152   5.224  13.508  0.00  0.00    +0.000 A 
ATOM     23  C   UNL     1      46.797   6.445  13.368  0.00  0.00    +0.000 A 
ATOM     24  S   UNL     1      45.945   7.556  12.393  0.00  0.00    +0.000 S 
ATOM     25  C   UNL     1      44.659   6.462  12.170  0.00  0.00    +0.000 A 
ATOM     26  N   UNL     1      43.574   6.795  11.424  0.00  0.00    +0.000 NA
ATOM     27  C   UNL     1      42.666   5.877  11.362  0.00  0.00    +0.000 A 
ATOM     28  N   UNL     1      42.746   4.658  11.981  0.00  0.00    +0.000 N 
ATOM     29  C   UNL     1      43.831   4.272  12.731  0.00  0.00    +0.000 A 
ATOM     30  O   UNL     1      43.891   3.165  13.255  0.00  0.00    +0.000 OA
ATOM     31  C   UNL     1      44.881   5.266  12.827  0.00  0.00    +0.000 A 
ATOM     32  H   UNL     1      42.001   3.982  11.893  0.00  0.00    +0.000 HD
ENDBRANCH  19  22
ENDBRANCH   1  18
BRANCH   1  33
ATOM     33  N   UNL     1      46.569   3.273  17.671  0.00  0.00    +0.000 NA
ATOM     34  H   UNL     1      46.902   3.988  18.322  0.00  0.00    +0.000 HD
ATOM     35  H   UNL     1      46.752   2.390  18.138  0.00  0.00    +0.000 HD
ENDBRANCH   1  33
TORSDOF 6
ENDMDL
MODEL 9
REMARK VINA RESULT:    -6.982      4.848      7.740
REMARK INTER + INTRA:          -9.842
REMARK INTER:                  -9.191
REMARK INTRA:                  -0.650
REMARK UNBOUND:                -0.615
REMARK  Name = 
REMARK  6 active torsions:
REMARK  status: ('A' for Active; 'I' for Inactive)
REMARK    1  A    between atoms: N_1  and  C_2
REMARK    2  A    between atoms: C_2  and  N_3
REMARK    3  A    between atoms: C_2  and  C_16
REMARK    4  A    between atoms: C_4  and  C_6
REMARK    5  A    between atoms: C_19  and  C_20
REMARK    6  A    between atoms: C_20  and  N_21
REMARK                            x       y       z     vdW  Elec       q    Type
REMARK                         _______ _______ _______ _____ _____    ______ ____
ROOT
ATOM      1  C   UNL     1      46.268   8.182  13.251  0.00  0.00    +0.000 C 
ENDROOT
BRANCH   1   2
ATOM      2  C   UNL     1      47.593   8.510  12.577  0.00  0.00    +0.000 A 
ATOM      3  C   UNL     1      47.886   9.818  12.167  0.00  0.00    +0.000 A 
ATOM      4  C   UNL     1      49.115  10.122  11.566  0.00  0.00    +0.000 A 
ATOM      5  C   UNL     1      50.078   9.125  11.352  0.00  0.00    +0.000 A 
ATOM      6  C   UNL     1      49.795   7.821  11.770  0.00  0.00    +0.000 A 
ATOM      7  C   UNL     1      48.568   7.516  12.365  0.00  0.00    +0.000 A 
BRANCH   5   8
ATOM      8  C   UNL     1      51.403   9.446  10.706  0.00  0.00    +0.000 C 
BRANCH   8   9
ATOM      9  N   UNL     1      52.121   8.242  10.352  0.00  0.00    +0.000 N 
ATOM     10  C   UNL     1      52.843   8.198   9.188  0.00  0.00    +0.000 C 
ATOM     11  O   UNL     1      52.838   9.115   8.374  0.00  0.00    +0.000 OA
ATOM     12  N   UNL     1      53.570   7.046   9.002  0.00  0.00    +0.000 N 
ATOM     13  C   UNL     1      53.545   5.825   9.783  0.00  0.00    +0.000 C 
ATOM     14  C   UNL     1      54.896   5.201   9.486  0.00  0.00    +0.000 C 
ATOM     15  C   UNL     1      55.122   5.542   8.018  0.00  0.00    +0.000 C 
ATOM     16  C   UNL     1      54.397   6.873   7.816  0.00  0.00    +0.000 C 
ATOM     17  H   UNL     1      52.529   7.750  11.129  0.00  0.00    +0.000 HD
ENDBRANCH   8   9
ENDBRANCH   5   8
ENDBRANCH   1   2
BRANCH   1  18
ATOM     18  N   UNL     1      45.806   6.896  12.815  0.00  0.00    +0.000 N 
ATOM     19  C   UNL     1      44.977   6.695  11.742  0.00  0.00    +0.000 C 
ATOM     20  O   UNL     1      44.646   7.598  10.978  0.00  0.00    +0.000 OA
ATOM     21  H   UNL     1      45.730   6.223  13.568  0.00  0.00    +0.000 HD
BRANCH  19  22
ATOM     22  C   UNL     1      44.615   5.294  11.482  0.00  0.00    +0.000 A 
ATOM     23  C   UNL     1      43.880   4.582  12.420  0.00  0.00    +0.000 A 
ATOM     24  S   UNL     1      43.461   3.010  11.905  0.00  0.00    +0.000 S 
ATOM     25  C   UNL     1      44.294   3.209  10.434  0.00  0.00    +0.000 A 
ATOM     26  N   UNL     1      44.339   2.212   9.511  0.00  0.00    +0.000 NA
ATOM     27  C   UNL     1      45.027   2.493   8.454  0.00  0.00    +0.000 A 
ATOM     28  N   UNL     1      45.674   3.680   8.237  0.00  0.00    +0.000 N 
ATOM     29  C   UNL     1      45.642   4.722   9.134  0.00  0.00    +0.000 A 
ATOM     30  O   UNL     1      46.210   5.785   8.907  0.00  0.00    +0.000 OA
ATOM     31  C   UNL     1      44.878   4.458  10.336  0.00  0.00    +0.000 A 
ATOM     32  H   UNL     1      46.196   3.838   7.388  0.00  0.00    +0.000 HD
ENDBRANCH  19  22
ENDBRANCH   1  18
BRANCH   1  33
ATOM     33  N   UNL     1      45.252   9.141  12.876  0.00  0.00    +0.000 NA
ATOM     34  H   UNL     1      44.972   9.612  13.741  0.00  0.00    +0.000 HD
ATOM     35  H   UNL     1      44.429   8.623  12.584  0.00  0.00    +0.000 HD
ENDBRANCH   1  33
TORSDOF 6
ENDMDL
