MODEL 1
REMARK VINA RESULT:    -7.939      0.000      0.000
REMARK INTER + INTRA:         -12.124
REMARK INTER:                 -11.188
REMARK INTRA:                  -0.936
REMARK UNBOUND:                -0.936
REMARK  Name = 
REMARK  8 active torsions:
REMARK  status: ('A' for Active; 'I' for Inactive)
REMARK    1  A    between atoms: C_1  and  C_2
REMARK    2  A    between atoms: C_2  and  C_3
REMARK    3  A    between atoms: C_7  and  C_8
REMARK    4  A    between atoms: C_8  and  C_9
REMARK    5  A    between atoms: C_9  and  N_10
REMARK    6  A    between atoms: C_14  and  C_15
REMARK    7  A    between atoms: N_24  and  C_25
REMARK    8  A    between atoms: C_25  and  C_26
REMARK                            x       y       z     vdW  Elec       q    Type
REMARK                         _______ _______ _______ _____ _____    ______ ____
ROOT
ATOM      1  C   UNL     1      46.628   7.343  13.095  0.00  0.00    +0.000 A 
ATOM      2  C   UNL     1      46.571   8.604  12.482  0.00  0.00    +0.000 A 
ATOM      3  C   UNL     1      45.481   8.973  11.689  0.00  0.00    +0.000 A 
ATOM      4  C   UNL     1      44.430   8.079  11.467  0.00  0.00    +0.000 A 
ATOM      5  C   UNL     1      44.449   6.814  12.059  0.00  0.00    +0.000 A 
ATOM      6  C   UNL     1      45.534   6.490  12.895  0.00  0.00    +0.000 A 
ENDROOT
BRANCH   1   8
ATOM      7  C   UNL     1      48.751   6.074  12.862  0.00  0.00    +0.000 C 
ATOM      8  C   UNL     1      47.883   6.875  13.866  0.00  0.00    +0.000 C 
ATOM      9  C   UNL     1      48.648   8.099  14.423  0.00  0.00    +0.000 C 
ATOM     10  C   UNL     1      49.838   7.695  15.293  0.00  0.00    +0.000 C 
ATOM     11  C   UNL     1      49.434   6.725  16.405  0.00  0.00    +0.000 C 
ATOM     12  N   UNL     1      48.764   5.541  15.853  0.00  0.00    +0.000 NA
ATOM     13  C   UNL     1      47.568   5.939  15.086  0.00  0.00    +0.000 C 
BRANCH  12  14
ATOM     14  C   UNL     1      48.391   4.569  16.920  0.00  0.00    +0.000 C 
BRANCH  14  15
ATOM     15  C   UNL     1      48.189   3.079  16.549  0.00  0.00    +0.000 C 
ATOM     16  F   UNL     1      47.344   2.428  17.376  0.00  0.00    +0.000 F 
ATOM     17  F   UNL     1      47.692   2.968  15.293  0.00  0.00    +0.000 F 
ATOM     18  F   UNL     1      49.368   2.412  16.573  0.00  0.00    +0.000 F 
ENDBRANCH  14  15
ENDBRANCH  12  14
ENDBRANCH   1   8
BRANCH   5  19
ATOM     19  C   UNL     1      43.354   5.802  11.740  0.00  0.00    +0.000 C 
BRANCH  19  20
ATOM     20  C   UNL     1      43.520   5.145  10.363  0.00  0.00    +0.000 C 
BRANCH  20  21
ATOM     21  N   UNL     1      43.851   3.719  10.411  0.00  0.00    +0.000 N 
ATOM     22  C   UNL     1      44.783   3.394   9.391  0.00  0.00    +0.000 A 
ATOM     23  C   UNL     1      45.217   2.073   9.231  0.00  0.00    +0.000 A 
ATOM     24  N   UNL     1      46.100   1.667   8.277  0.00  0.00    +0.000 NA
ATOM     25  C   UNL     1      46.561   2.667   7.473  0.00  0.00    +0.000 A 
ATOM     26  C   UNL     1      46.158   3.980   7.625  0.00  0.00    +0.000 A 
ATOM     27  N   UNL     1      45.274   4.364   8.580  0.00  0.00    +0.000 NA
ATOM     28  H   UNL     1      43.024   3.137  10.287  0.00  0.00    +0.000 HD
BRANCH  25  29
ATOM     29  C   UNL     1      47.522   2.318   6.391  0.00  0.00    +0.000 C 
ATOM     30  N   UNL     1      47.436   3.067   5.254  0.00  0.00    +0.000 N 
ATOM     31  O   UNL     1      48.339   1.416   6.515  0.00  0.00    +0.000 OA
ATOM     32  H   UNL     1      46.744   3.808   5.183  0.00  0.00    +0.000 HD
ATOM     33  H   UNL     1      48.060   2.876   4.487  0.00  0.00    +0.000 HD
ENDBRANCH  25  29
ENDBRANCH  20  21
ENDBRANCH  19  20
ENDBRANCH   5  19
TORSDOF 7
ENDMDL
MODEL 2
REMARK VINA RESULT:    -7.842      3.153      4.261
REMARK INTER + INTRA:         -11.987
REMARK INTER:                 -11.117
REMARK INTRA:                  -0.871
REMARK UNBOUND:                -0.936
REMARK  Name = 
REMARK  8 active torsions:
REMARK  status: ('A' for Active; 'I' for Inactive)
REMARK    1  A    between atoms: C_1  and  C_2
REMARK    2  A    between atoms: C_2  and  C_3
REMARK    3  A    between atoms: C_7  and  C_8
REMARK    4  A    between atoms: C_8  and  C_9
REMARK    5  A    between atoms: C_9  and  N_10
REMARK    6  A    between atoms: C_14  and  C_15
REMARK    7  A    between atoms: N_24  and  C_25
REMARK    8  A    between atoms: C_25  and  C_26
REMARK                            x       y       z     vdW  Elec       q    Type
REMARK                         _______ _______ _______ _____ _____    ______ ____
ROOT
ATOM      1  C   UNL     1      46.794   6.562  13.164  0.00  0.00    +0.000 A 
ATOM      2  C   UNL     1      47.426   5.419  13.675  0.00  0.00    +0.000 A 
ATOM      3  C   UNL     1      46.771   4.184  13.704  0.00  0.00    +0.000 A 
ATOM      4  C   UNL     1      45.457   4.067  13.246  0.00  0.00    +0.000 A 
ATOM      5  C   UNL     1      44.792   5.182  12.729  0.00  0.00    +0.000 A 
ATOM      6  C   UNL     1      45.494   6.399  12.664  0.00  0.00    +0.000 A 
ENDROOT
BRANCH   1   8
ATOM      7  C   UNL     1      46.357   8.993  12.898  0.00  0.00    +0.000 C 
ATOM      8  C   UNL     1      47.456   7.956  13.244  0.00  0.00    +0.000 C 
ATOM      9  C   UNL     1      48.025   8.190  14.664  0.00  0.00    +0.000 C 
ATOM     10  C   UNL     1      48.793   9.507  14.774  0.00  0.00    +0.000 C 
ATOM     11  C   UNL     1      49.876   9.631  13.701  0.00  0.00    +0.000 C 
ATOM     12  N   UNL     1      49.308   9.468  12.357  0.00  0.00    +0.000 NA
ATOM     13  C   UNL     1      48.643   8.156  12.237  0.00  0.00    +0.000 C 
BRANCH  12  14
ATOM     14  C   UNL     1      50.345   9.618  11.296  0.00  0.00    +0.000 C 
BRANCH  14  15
ATOM     15  C   UNL     1      51.470   8.559  11.184  0.00  0.00    +0.000 C 
ATOM     16  F   UNL     1      51.923   8.125  12.380  0.00  0.00    +0.000 F 
ATOM     17  F   UNL     1      51.031   7.474  10.501  0.00  0.00    +0.000 F 
ATOM     18  F   UNL     1      52.533   9.055  10.508  0.00  0.00    +0.000 F 
ENDBRANCH  14  15
ENDBRANCH  12  14
ENDBRANCH   1   8
BRANCH   5  19
ATOM     19  C   UNL     1      43.327   5.079  12.320  0.00  0.00    +0.000 C 
BRANCH  19  20
ATOM     20  C   UNL     1      43.127   4.419  10.949  0.00  0.00    +0.000 C 
BRANCH  20  21
ATOM     21  N   UNL     1      43.940   4.996   9.876  0.00  0.00    +0.000 N 
ATOM     22  C   UNL     1      44.716   3.987   9.247  0.00  0.00    +0.000 A 
ATOM     23  C   UNL     1      45.595   4.321   8.210  0.00  0.00    +0.000 A 
ATOM     24  N   UNL     1      46.383   3.424   7.556  0.00  0.00    +0.000 NA
ATOM     25  C   UNL     1      46.243   2.135   7.979  0.00  0.00    +0.000 A 
ATOM     26  C   UNL     1      45.370   1.783   8.990  0.00  0.00    +0.000 A 
ATOM     27  N   UNL     1      44.594   2.693   9.633  0.00  0.00    +0.000 NA
ATOM     28  H   UNL     1      44.571   5.713  10.228  0.00  0.00    +0.000 HD
BRANCH  25  29
ATOM     29  C   UNL     1      47.075   1.084   7.332  0.00  0.00    +0.000 C 
ATOM     30  N   UNL     1      46.779  -0.203   7.672  0.00  0.00    +0.000 N 
ATOM     31  O   UNL     1      47.968   1.358   6.542  0.00  0.00    +0.000 OA
ATOM     32  H   UNL     1      46.031  -0.397   8.334  0.00  0.00    +0.000 HD
ATOM     33  H   UNL     1      47.308  -0.957   7.266  0.00  0.00    +0.000 HD
ENDBRANCH  25  29
ENDBRANCH  20  21
ENDBRANCH  19  20
ENDBRANCH   5  19
TORSDOF 7
ENDMDL
MODEL 3
REMARK VINA RESULT:    -7.674      3.761      7.858
REMARK INTER + INTRA:         -11.750
REMARK INTER:                 -10.717
REMARK INTRA:                  -1.034
REMARK UNBOUND:                -0.936
REMARK  Name = 
REMARK  8 active torsions:
REMARK  status: ('A' for Active; 'I' for Inactive)
REMARK    1  A    between atoms: C_1  and  C_2
REMARK    2  A    between atoms: C_2  and  C_3
REMARK    3  A    between atoms: C_7  and  C_8
REMARK    4  A    between atoms: C_8  and  C_9
REMARK    5  A    between atoms: C_9  and  N_10
REMARK    6  A    between atoms: C_14  and  C_15
REMARK    7  A    between atoms: N_24  and  C_25
REMARK    8  A    between atoms: C_25  and  C_26
REMARK                            x       y       z     vdW  Elec       q    Type
REMARK                         _______ _______ _______ _____ _____    ______ ____
ROOT
ATOM      1  C   UNL     1      45.779   7.247  12.035  0.00  0.00    +0.000 A 
ATOM      2  C   UNL     1      44.880   8.269  11.695  0.00  0.00    +0.000 A 
ATOM      3  C   UNL     1      45.228   9.615  11.843  0.00  0.00    +0.000 A 
ATOM      4  C   UNL     1      46.477   9.973  12.358  0.00  0.00    +0.000 A 
ATOM      5  C   UNL     1      47.401   8.985  12.708  0.00  0.00    +0.000 A 
ATOM      6  C   UNL     1      47.042   7.640  12.499  0.00  0.00    +0.000 A 
ENDROOT
BRANCH   1   8
ATOM      7  C   UNL     1      46.568   4.945  12.536  0.00  0.00    +0.000 C 
ATOM      8  C   UNL     1      45.362   5.759  11.999  0.00  0.00    +0.000 C 
ATOM      9  C   UNL     1      44.103   5.542  12.870  0.00  0.00    +0.000 C 
ATOM     10  C   UNL     1      43.575   4.110  12.784  0.00  0.00    +0.000 C 
ATOM     11  C   UNL     1      43.348   3.667  11.338  0.00  0.00    +0.000 C 
ATOM     12  N   UNL     1      44.571   3.822  10.541  0.00  0.00    +0.000 NA
ATOM     13  C   UNL     1      45.023   5.227  10.562  0.00  0.00    +0.000 C 
BRANCH  12  14
ATOM     14  C   UNL     1      44.377   3.365   9.135  0.00  0.00    +0.000 C 
BRANCH  14  15
ATOM     15  C   UNL     1      45.595   3.316   8.181  0.00  0.00    +0.000 C 
ATOM     16  F   UNL     1      46.395   4.399   8.271  0.00  0.00    +0.000 F 
ATOM     17  F   UNL     1      46.358   2.227   8.444  0.00  0.00    +0.000 F 
ATOM     18  F   UNL     1      45.193   3.220   6.891  0.00  0.00    +0.000 F 
ENDBRANCH  14  15
ENDBRANCH  12  14
ENDBRANCH   1   8
BRANCH   5  19
ATOM     19  C   UNL     1      48.723   9.369  13.361  0.00  0.00    +0.000 C 
BRANCH  19  20
ATOM     20  C   UNL     1      49.429   8.188  14.039  0.00  0.00    +0.000 C 
BRANCH  20  21
ATOM     21  N   UNL     1      49.472   8.269  15.502  0.00  0.00    +0.000 N 
ATOM     22  C   UNL     1      48.983   7.067  16.077  0.00  0.00    +0.000 A 
ATOM     23  C   UNL     1      48.904   6.936  17.469  0.00  0.00    +0.000 A 
ATOM     24  N   UNL     1      48.440   5.826  18.108  0.00  0.00    +0.000 NA
ATOM     25  C   UNL     1      48.062   4.813  17.278  0.00  0.00    +0.000 A 
ATOM     26  C   UNL     1      48.147   4.917  15.903  0.00  0.00    +0.000 A 
ATOM     27  N   UNL     1      48.609   6.033  15.284  0.00  0.00    +0.000 NA
ATOM     28  H   UNL     1      48.912   9.043  15.851  0.00  0.00    +0.000 HD
BRANCH  25  29
ATOM     29  C   UNL     1      47.528   3.564  17.886  0.00  0.00    +0.000 C 
ATOM     30  N   UNL     1      48.194   3.102  18.983  0.00  0.00    +0.000 N 
ATOM     31  O   UNL     1      46.550   2.987  17.430  0.00  0.00    +0.000 OA
ATOM     32  H   UNL     1      49.005   3.605  19.335  0.00  0.00    +0.000 HD
ATOM     33  H   UNL     1      47.879   2.261  19.436  0.00  0.00    +0.000 HD
ENDBRANCH  25  29
ENDBRANCH  20  21
ENDBRANCH  19  20
ENDBRANCH   5  19
TORSDOF 7
ENDMDL
MODEL 4
REMARK VINA RESULT:    -7.450      4.206      8.520
REMARK INTER + INTRA:         -11.436
REMARK INTER:                 -10.609
REMARK INTRA:                  -0.826
REMARK UNBOUND:                -0.936
REMARK  Name = 
REMARK  8 active torsions:
REMARK  status: ('A' for Active; 'I' for Inactive)
REMARK    1  A    between atoms: C_1  and  C_2
REMARK    2  A    between atoms: C_2  and  C_3
REMARK    3  A    between atoms: C_7  and  C_8
REMARK    4  A    between atoms: C_8  and  C_9
REMARK    5  A    between atoms: C_9  and  N_10
REMARK    6  A    between atoms: C_14  and  C_15
REMARK    7  A    between atoms: N_24  and  C_25
REMARK    8  A    between atoms: C_25  and  C_26
REMARK                            x       y       z     vdW  Elec       q    Type
REMARK                         _______ _______ _______ _____ _____    ______ ____
ROOT
ATOM      1  C   UNL     1      47.074   6.061  12.810  0.00  0.00    +0.000 A 
ATOM      2  C   UNL     1      47.702   6.847  11.832  0.00  0.00    +0.000 A 
ATOM      3  C   UNL     1      48.691   7.774  12.177  0.00  0.00    +0.000 A 
ATOM      4  C   UNL     1      49.059   7.956  13.511  0.00  0.00    +0.000 A 
ATOM      5  C   UNL     1      48.457   7.193  14.516  0.00  0.00    +0.000 A 
ATOM      6  C   UNL     1      47.504   6.231  14.134  0.00  0.00    +0.000 A 
ENDROOT
BRANCH   1   8
ATOM      7  C   UNL     1      46.292   3.706  12.936  0.00  0.00    +0.000 C 
ATOM      8  C   UNL     1      45.892   5.127  12.462  0.00  0.00    +0.000 C 
ATOM      9  C   UNL     1      44.606   5.617  13.168  0.00  0.00    +0.000 C 
ATOM     10  C   UNL     1      43.377   4.800  12.771  0.00  0.00    +0.000 C 
ATOM     11  C   UNL     1      43.200   4.729  11.253  0.00  0.00    +0.000 C 
ATOM     12  N   UNL     1      44.408   4.204  10.605  0.00  0.00    +0.000 NA
ATOM     13  C   UNL     1      45.572   5.052  10.927  0.00  0.00    +0.000 C 
BRANCH  12  14
ATOM     14  C   UNL     1      44.241   4.098   9.128  0.00  0.00    +0.000 C 
BRANCH  14  15
ATOM     15  C   UNL     1      45.354   3.426   8.287  0.00  0.00    +0.000 C 
ATOM     16  F   UNL     1      45.832   2.289   8.836  0.00  0.00    +0.000 F 
ATOM     17  F   UNL     1      44.893   3.115   7.052  0.00  0.00    +0.000 F 
ATOM     18  F   UNL     1      46.406   4.264   8.123  0.00  0.00    +0.000 F 
ENDBRANCH  14  15
ENDBRANCH  12  14
ENDBRANCH   1   8
BRANCH   5  19
ATOM     19  C   UNL     1      48.786   7.458  15.980  0.00  0.00    +0.000 C 
BRANCH  19  20
ATOM     20  C   UNL     1      49.246   6.203  16.734  0.00  0.00    +0.000 C 
BRANCH  20  21
ATOM     21  N   UNL     1      50.658   6.217  17.125  0.00  0.00    +0.000 N 
ATOM     22  C   UNL     1      51.127   4.894  17.332  0.00  0.00    +0.000 A 
ATOM     23  C   UNL     1      52.446   4.671  17.743  0.00  0.00    +0.000 A 
ATOM     24  N   UNL     1      52.979   3.440  17.975  0.00  0.00    +0.000 NA
ATOM     25  C   UNL     1      52.121   2.403  17.755  0.00  0.00    +0.000 A 
ATOM     26  C   UNL     1      50.820   2.600  17.333  0.00  0.00    +0.000 A 
ATOM     27  N   UNL     1      50.306   3.837  17.112  0.00  0.00    +0.000 NA
ATOM     28  H   UNL     1      50.806   6.747  17.981  0.00  0.00    +0.000 HD
BRANCH  25  29
ATOM     29  C   UNL     1      52.609   1.018  17.995  0.00  0.00    +0.000 C 
ATOM     30  N   UNL     1      51.647   0.059  18.115  0.00  0.00    +0.000 N 
ATOM     31  O   UNL     1      53.802   0.755  18.077  0.00  0.00    +0.000 OA
ATOM     32  H   UNL     1      50.665   0.311  18.043  0.00  0.00    +0.000 HD
ATOM     33  H   UNL     1      51.918  -0.897  18.278  0.00  0.00    +0.000 HD
ENDBRANCH  25  29
ENDBRANCH  20  21
ENDBRANCH  19  20
ENDBRANCH   5  19
TORSDOF 7
ENDMDL
MODEL 5
REMARK VINA RESULT:    -6.944      3.100      4.289
REMARK INTER + INTRA:         -10.722
REMARK INTER:                  -9.217
REMARK INTRA:                  -1.506
REMARK UNBOUND:                -0.936
REMARK  Name = 
REMARK  8 active torsions:
REMARK  status: ('A' for Active; 'I' for Inactive)
REMARK    1  A    between atoms: C_1  and  C_2
REMARK    2  A    between atoms: C_2  and  C_3
REMARK    3  A    between atoms: C_7  and  C_8
REMARK    4  A    between atoms: C_8  and  C_9
REMARK    5  A    between atoms: C_9  and  N_10
REMARK    6  A    between atoms: C_14  and  C_15
REMARK    7  A    between atoms: N_24  and  C_25
REMARK    8  A    between atoms: C_25  and  C_26
REMARK                            x       y       z     vdW  Elec       q    Type
REMARK                         _______ _______ _______ _____ _____    ______ ____
ROOT
ATOM      1  C   UNL     1      49.246   8.627  13.824  0.00  0.00    +0.000 A 
ATOM      2  C   UNL     1      50.312   8.812  12.931  0.00  0.00    +0.000 A 
ATOM      3  C   UNL     1      50.137   9.515  11.734  0.00  0.00    +0.000 A 
ATOM      4  C   UNL     1      48.884  10.029  11.390  0.00  0.00    +0.000 A 
ATOM      5  C   UNL     1      47.797   9.867  12.253  0.00  0.00    +0.000 A 
ATOM      6  C   UNL     1      48.016   9.201  13.473  0.00  0.00    +0.000 A 
ENDROOT
BRANCH   1   8
ATOM      7  C   UNL     1      50.886   7.338  15.174  0.00  0.00    +0.000 C 
ATOM      8  C   UNL     1      49.392   7.745  15.085  0.00  0.00    +0.000 C 
ATOM      9  C   UNL     1      48.947   8.535  16.338  0.00  0.00    +0.000 C 
ATOM     10  C   UNL     1      48.961   7.677  17.603  0.00  0.00    +0.000 C 
ATOM     11  C   UNL     1      48.158   6.387  17.431  0.00  0.00    +0.000 C 
ATOM     12  N   UNL     1      48.635   5.619  16.274  0.00  0.00    +0.000 NA
ATOM     13  C   UNL     1      48.536   6.430  15.044  0.00  0.00    +0.000 C 
BRANCH  12  14
ATOM     14  C   UNL     1      47.884   4.342  16.110  0.00  0.00    +0.000 C 
BRANCH  14  15
ATOM     15  C   UNL     1      48.314   3.102  16.932  0.00  0.00    +0.000 C 
ATOM     16  F   UNL     1      49.347   3.340  17.767  0.00  0.00    +0.000 F 
ATOM     17  F   UNL     1      47.281   2.652  17.684  0.00  0.00    +0.000 F 
ATOM     18  F   UNL     1      48.685   2.088  16.114  0.00  0.00    +0.000 F 
ENDBRANCH  14  15
ENDBRANCH  12  14
ENDBRANCH   1   8
BRANCH   5  19
ATOM     19  C   UNL     1      46.410  10.340  11.836  0.00  0.00    +0.000 C 
BRANCH  19  20
ATOM     20  C   UNL     1      45.276   9.550  12.502  0.00  0.00    +0.000 C 
BRANCH  20  21
ATOM     21  N   UNL     1      44.477   8.742  11.576  0.00  0.00    +0.000 N 
ATOM     22  C   UNL     1      44.624   7.362  11.873  0.00  0.00    +0.000 A 
ATOM     23  C   UNL     1      43.971   6.402  11.090  0.00  0.00    +0.000 A 
ATOM     24  N   UNL     1      44.060   5.059  11.294  0.00  0.00    +0.000 NA
ATOM     25  C   UNL     1      44.838   4.699  12.354  0.00  0.00    +0.000 A 
ATOM     26  C   UNL     1      45.477   5.631  13.149  0.00  0.00    +0.000 A 
ATOM     27  N   UNL     1      45.379   6.967  12.927  0.00  0.00    +0.000 NA
ATOM     28  H   UNL     1      44.756   8.894  10.609  0.00  0.00    +0.000 HD
BRANCH  25  29
ATOM     29  C   UNL     1      45.007   3.250  12.648  0.00  0.00    +0.000 C 
ATOM     30  N   UNL     1      43.902   2.472  12.466  0.00  0.00    +0.000 N 
ATOM     31  O   UNL     1      46.074   2.784  13.027  0.00  0.00    +0.000 OA
ATOM     32  H   UNL     1      43.030   2.891  12.152  0.00  0.00    +0.000 HD
ATOM     33  H   UNL     1      43.956   1.483  12.649  0.00  0.00    +0.000 HD
ENDBRANCH  25  29
ENDBRANCH  20  21
ENDBRANCH  19  20
ENDBRANCH   5  19
TORSDOF 7
ENDMDL
MODEL 6
REMARK VINA RESULT:    -6.851      3.465      4.085
REMARK INTER + INTRA:         -10.590
REMARK INTER:                  -9.623
REMARK INTRA:                  -0.967
REMARK UNBOUND:                -0.936
REMARK  Name = 
REMARK  8 active torsions:
REMARK  status: ('A' for Active; 'I' for Inactive)
REMARK    1  A    between atoms: C_1  and  C_2
REMARK    2  A    between atoms: C_2  and  C_3
REMARK    3  A    between atoms: C_7  and  C_8
REMARK    4  A    between atoms: C_8  and  C_9
REMARK    5  A    between atoms: C_9  and  N_10
REMARK    6  A    between atoms: C_14  and  C_15
REMARK    7  A    between atoms: N_24  and  C_25
REMARK    8  A    between atoms: C_25  and  C_26
REMARK                            x       y       z     vdW  Elec       q    Type
REMARK                         _______ _______ _______ _____ _____    ______ ____
ROOT
ATOM      1  C   UNL     1      46.168   8.348  12.254  0.00  0.00    +0.000 A 
ATOM      2  C   UNL     1      45.351   9.272  11.585  0.00  0.00    +0.000 A 
ATOM      3  C   UNL     1      44.081   8.911  11.123  0.00  0.00    +0.000 A 
ATOM      4  C   UNL     1      43.606   7.609  11.298  0.00  0.00    +0.000 A 
ATOM      5  C   UNL     1      44.389   6.659  11.960  0.00  0.00    +0.000 A 
ATOM      6  C   UNL     1      45.640   7.065  12.459  0.00  0.00    +0.000 A 
ENDROOT
BRANCH   1   8
ATOM      7  C   UNL     1      47.767  10.231  12.513  0.00  0.00    +0.000 C 
ATOM      8  C   UNL     1      47.620   8.694  12.654  0.00  0.00    +0.000 C 
ATOM      9  C   UNL     1      47.893   8.232  14.105  0.00  0.00    +0.000 C 
ATOM     10  C   UNL     1      49.349   8.445  14.520  0.00  0.00    +0.000 C 
ATOM     11  C   UNL     1      50.326   7.811  13.529  0.00  0.00    +0.000 C 
ATOM     12  N   UNL     1      50.093   8.308  12.167  0.00  0.00    +0.000 NA
ATOM     13  C   UNL     1      48.708   8.020  11.747  0.00  0.00    +0.000 C 
BRANCH  12  14
ATOM     14  C   UNL     1      51.059   7.724  11.193  0.00  0.00    +0.000 C 
BRANCH  14  15
ATOM     15  C   UNL     1      52.324   8.530  10.808  0.00  0.00    +0.000 C 
ATOM     16  F   UNL     1      53.462   8.034  11.339  0.00  0.00    +0.000 F 
ATOM     17  F   UNL     1      52.482   8.550   9.462  0.00  0.00    +0.000 F 
ATOM     18  F   UNL     1      52.218   9.817  11.217  0.00  0.00    +0.000 F 
ENDBRANCH  14  15
ENDBRANCH  12  14
ENDBRANCH   1   8
BRANCH   5  19
ATOM     19  C   UNL     1      43.915   5.215  12.065  0.00  0.00    +0.000 C 
BRANCH  19  20
ATOM     20  C   UNL     1      43.454   4.630  10.723  0.00  0.00    +0.000 C 
BRANCH  20  21
ATOM     21  N   UNL     1      43.768   3.210  10.543  0.00  0.00    +0.000 N 
ATOM     22  C   UNL     1      44.714   3.043   9.498  0.00  0.00    +0.000 A 
ATOM     23  C   UNL     1      45.136   1.760   9.132  0.00  0.00    +0.000 A 
ATOM     24  N   UNL     1      46.031   1.503   8.138  0.00  0.00    +0.000 NA
ATOM     25  C   UNL     1      46.518   2.614   7.515  0.00  0.00    +0.000 A 
ATOM     26  C   UNL     1      46.126   3.889   7.873  0.00  0.00    +0.000 A 
ATOM     27  N   UNL     1      45.230   4.125   8.864  0.00  0.00    +0.000 NA
ATOM     28  H   UNL     1      42.937   2.668  10.314  0.00  0.00    +0.000 HD
BRANCH  25  29
ATOM     29  C   UNL     1      47.493   2.433   6.405  0.00  0.00    +0.000 C 
ATOM     30  N   UNL     1      47.308   3.229   5.314  0.00  0.00    +0.000 N 
ATOM     31  O   UNL     1      48.405   1.620   6.470  0.00  0.00    +0.000 OA
ATOM     32  H   UNL     1      46.539   3.893   5.292  0.00  0.00    +0.000 HD
ATOM     33  H   UNL     1      47.937   3.151   4.531  0.00  0.00    +0.000 HD
ENDBRANCH  25  29
ENDBRANCH  20  21
ENDBRANCH  19  20
ENDBRANCH   5  19
TORSDOF 7
ENDMDL
MODEL 7
REMARK VINA RESULT:    -6.806      1.344      2.023
REMARK INTER + INTRA:         -10.528
REMARK INTER:                  -9.981
REMARK INTRA:                  -0.546
REMARK UNBOUND:                -0.936
REMARK  Name = 
REMARK  8 active torsions:
REMARK  status: ('A' for Active; 'I' for Inactive)
REMARK    1  A    between atoms: C_1  and  C_2
REMARK    2  A    between atoms: C_2  and  C_3
REMARK    3  A    between atoms: C_7  and  C_8
REMARK    4  A    between atoms: C_8  and  C_9
REMARK    5  A    between atoms: C_9  and  N_10
REMARK    6  A    between atoms: C_14  and  C_15
REMARK    7  A    between atoms: N_24  and  C_25
REMARK    8  A    between atoms: C_25  and  C_26
REMARK                            x       y       z     vdW  Elec       q    Type
REMARK                         _______ _______ _______ _____ _____    ______ ____
ROOT
ATOM      1  C   UNL     1      48.476   7.168  14.146  0.00  0.00    +0.000 A 
ATOM      2  C   UNL     1      49.326   7.413  13.058  0.00  0.00    +0.000 A 
ATOM      3  C   UNL     1      48.826   7.488  11.754  0.00  0.00    +0.000 A 
ATOM      4  C   UNL     1      47.466   7.295  11.504  0.00  0.00    +0.000 A 
ATOM      5  C   UNL     1      46.586   7.049  12.561  0.00  0.00    +0.000 A 
ATOM      6  C   UNL     1      47.109   7.030  13.866  0.00  0.00    +0.000 A 
ENDROOT
BRANCH   1   8
ATOM      7  C   UNL     1      50.576   7.011  15.464  0.00  0.00    +0.000 C 
ATOM      8  C   UNL     1      49.031   6.954  15.573  0.00  0.00    +0.000 C 
ATOM      9  C   UNL     1      48.491   8.052  16.520  0.00  0.00    +0.000 C 
ATOM     10  C   UNL     1      48.914   7.829  17.972  0.00  0.00    +0.000 C 
ATOM     11  C   UNL     1      48.554   6.427  18.466  0.00  0.00    +0.000 C 
ATOM     12  N   UNL     1      49.126   5.396  17.590  0.00  0.00    +0.000 NA
ATOM     13  C   UNL     1      48.642   5.572  16.207  0.00  0.00    +0.000 C 
BRANCH  12  14
ATOM     14  C   UNL     1      48.811   4.022  18.075  0.00  0.00    +0.000 C 
BRANCH  14  15
ATOM     15  C   UNL     1      47.727   3.193  17.344  0.00  0.00    +0.000 C 
ATOM     16  F   UNL     1      46.725   3.942  16.837  0.00  0.00    +0.000 F 
ATOM     17  F   UNL     1      48.274   2.500  16.316  0.00  0.00    +0.000 F 
ATOM     18  F   UNL     1      47.166   2.288  18.182  0.00  0.00    +0.000 F 
ENDBRANCH  14  15
ENDBRANCH  12  14
ENDBRANCH   1   8
BRANCH   5  19
ATOM     19  C   UNL     1      45.119   6.741  12.281  0.00  0.00    +0.000 C 
BRANCH  19  20
ATOM     20  C   UNL     1      44.860   6.298  10.834  0.00  0.00    +0.000 C 
BRANCH  20  21
ATOM     21  N   UNL     1      44.581   4.868  10.681  0.00  0.00    +0.000 N 
ATOM     22  C   UNL     1      45.257   4.352   9.545  0.00  0.00    +0.000 A 
ATOM     23  C   UNL     1      45.107   3.007   9.189  0.00  0.00    +0.000 A 
ATOM     24  N   UNL     1      45.708   2.427   8.113  0.00  0.00    +0.000 NA
ATOM     25  C   UNL     1      46.505   3.267   7.392  0.00  0.00    +0.000 A 
ATOM     26  C   UNL     1      46.679   4.593   7.736  0.00  0.00    +0.000 A 
ATOM     27  N   UNL     1      46.068   5.154   8.811  0.00  0.00    +0.000 NA
ATOM     28  H   UNL     1      43.585   4.689  10.570  0.00  0.00    +0.000 HD
BRANCH  25  29
ATOM     29  C   UNL     1      47.195   2.727   6.188  0.00  0.00    +0.000 C 
ATOM     30  N   UNL     1      48.530   2.484   6.325  0.00  0.00    +0.000 N 
ATOM     31  O   UNL     1      46.599   2.512   5.141  0.00  0.00    +0.000 OA
ATOM     32  H   UNL     1      48.995   2.676   7.209  0.00  0.00    +0.000 HD
ATOM     33  H   UNL     1      49.049   2.119   5.544  0.00  0.00    +0.000 HD
ENDBRANCH  25  29
ENDBRANCH  20  21
ENDBRANCH  19  20
ENDBRANCH   5  19
TORSDOF 7
ENDMDL
MODEL 8
REMARK VINA RESULT:    -6.797      4.644      6.816
REMARK INTER + INTRA:         -10.514
REMARK INTER:                  -9.621
REMARK INTRA:                  -0.894
REMARK UNBOUND:                -0.936
REMARK  Name = 
REMARK  8 active torsions:
REMARK  status: ('A' for Active; 'I' for Inactive)
REMARK    1  A    between atoms: C_1  and  C_2
REMARK    2  A    between atoms: C_2  and  C_3
REMARK    3  A    between atoms: C_7  and  C_8
REMARK    4  A    between atoms: C_8  and  C_9
REMARK    5  A    between atoms: C_9  and  N_10
REMARK    6  A    between atoms: C_14  and  C_15
REMARK    7  A    between atoms: N_24  and  C_25
REMARK    8  A    between atoms: C_25  and  C_26
REMARK                            x       y       z     vdW  Elec       q    Type
REMARK                         _______ _______ _______ _____ _____    ______ ____
ROOT
ATOM      1  C   UNL     1      47.037   7.583  12.052  0.00  0.00    +0.000 A 
ATOM      2  C   UNL     1      46.522   8.888  12.053  0.00  0.00    +0.000 A 
ATOM      3  C   UNL     1      47.367   9.998  12.144  0.00  0.00    +0.000 A 
ATOM      4  C   UNL     1      48.749   9.830  12.261  0.00  0.00    +0.000 A 
ATOM      5  C   UNL     1      49.302   8.547  12.264  0.00  0.00    +0.000 A 
ATOM      6  C   UNL     1      48.432   7.451  12.119  0.00  0.00    +0.000 A 
ENDROOT
BRANCH   1   8
ATOM      7  C   UNL     1      46.906   5.208  12.769  0.00  0.00    +0.000 C 
ATOM      8  C   UNL     1      46.109   6.347  12.082  0.00  0.00    +0.000 C 
ATOM      9  C   UNL     1      44.814   6.678  12.861  0.00  0.00    +0.000 C 
ATOM     10  C   UNL     1      43.806   5.529  12.828  0.00  0.00    +0.000 C 
ATOM     11  C   UNL     1      43.508   5.067  11.401  0.00  0.00    +0.000 C 
ATOM     12  N   UNL     1      44.743   4.699  10.698  0.00  0.00    +0.000 NA
ATOM     13  C   UNL     1      45.674   5.844  10.662  0.00  0.00    +0.000 C 
BRANCH  12  14
ATOM     14  C   UNL     1      44.468   4.215   9.315  0.00  0.00    +0.000 C 
BRANCH  14  15
ATOM     15  C   UNL     1      45.040   2.848   8.864  0.00  0.00    +0.000 C 
ATOM     16  F   UNL     1      44.109   2.017   8.349  0.00  0.00    +0.000 F 
ATOM     17  F   UNL     1      45.993   3.024   7.917  0.00  0.00    +0.000 F 
ATOM     18  F   UNL     1      45.623   2.204   9.904  0.00  0.00    +0.000 F 
ENDBRANCH  14  15
ENDBRANCH  12  14
ENDBRANCH   1   8
BRANCH   5  19
ATOM     19  C   UNL     1      50.797   8.357  12.491  0.00  0.00    +0.000 C 
BRANCH  19  20
ATOM     20  C   UNL     1      51.603   8.283  11.187  0.00  0.00    +0.000 C 
BRANCH  20  21
ATOM     21  N   UNL     1      52.814   7.463  11.270  0.00  0.00    +0.000 N 
ATOM     22  C   UNL     1      53.017   6.758  10.056  0.00  0.00    +0.000 A 
ATOM     23  C   UNL     1      54.103   5.884   9.923  0.00  0.00    +0.000 A 
ATOM     24  N   UNL     1      54.372   5.161   8.801  0.00  0.00    +0.000 NA
ATOM     25  C   UNL     1      53.495   5.362   7.777  0.00  0.00    +0.000 A 
ATOM     26  C   UNL     1      52.426   6.231   7.881  0.00  0.00    +0.000 A 
ATOM     27  N   UNL     1      52.173   6.941   9.010  0.00  0.00    +0.000 NA
ATOM     28  H   UNL     1      52.757   6.786  12.029  0.00  0.00    +0.000 HD
BRANCH  25  29
ATOM     29  C   UNL     1      53.699   4.604   6.512  0.00  0.00    +0.000 C 
ATOM     30  N   UNL     1      53.543   3.251   6.597  0.00  0.00    +0.000 N 
ATOM     31  O   UNL     1      53.986   5.160   5.461  0.00  0.00    +0.000 OA
ATOM     32  H   UNL     1      53.305   2.820   7.486  0.00  0.00    +0.000 HD
ATOM     33  H   UNL     1      53.669   2.686   5.773  0.00  0.00    +0.000 HD
ENDBRANCH  25  29
ENDBRANCH  20  21
ENDBRANCH  19  20
ENDBRANCH   5  19
TORSDOF 7
ENDMDL
MODEL 9
REMARK VINA RESULT:    -6.735      1.808      3.029
REMARK INTER + INTRA:         -10.428
REMARK INTER:                  -9.503
REMARK INTRA:                  -0.925
REMARK UNBOUND:                -0.936
REMARK  Name = 
REMARK  8 active torsions:
REMARK  status: ('A' for Active; 'I' for Inactive)
REMARK    1  A    between atoms: C_1  and  C_2
REMARK    2  A    between atoms: C_2  and  C_3
REMARK    3  A    between atoms: C_7  and  C_8
REMARK    4  A    between atoms: C_8  and  C_9
REMARK    5  A    between atoms: C_9  and  N_10
REMARK    6  A    between atoms: C_14  and  C_15
REMARK    7  A    between atoms: N_24  and  C_25
REMARK    8  A    between atoms: C_25  and  C_26
REMARK                            x       y       z     vdW  Elec       q    Type
REMARK                         _______ _______ _______ _____ _____    ______ ____
ROOT
ATOM      1  C   UNL     1      48.965   7.831  14.331  0.00  0.00    +0.000 A 
ATOM      2  C   UNL     1      49.796   7.762  13.203  0.00  0.00    +0.000 A 
ATOM      3  C   UNL     1      49.328   8.135  11.939  0.00  0.00    +0.000 A 
ATOM      4  C   UNL     1      48.010   8.563  11.767  0.00  0.00    +0.000 A 
ATOM      5  C   UNL     1      47.151   8.647  12.867  0.00  0.00    +0.000 A 
ATOM      6  C   UNL     1      47.664   8.315  14.134  0.00  0.00    +0.000 A 
ENDROOT
BRANCH   1   8
ATOM      7  C   UNL     1      50.977   7.276  15.680  0.00  0.00    +0.000 C 
ATOM      8  C   UNL     1      49.427   7.302  15.708  0.00  0.00    +0.000 C 
ATOM      9  C   UNL     1      48.899   8.224  16.833  0.00  0.00    +0.000 C 
ATOM     10  C   UNL     1      49.227   7.689  18.227  0.00  0.00    +0.000 C 
ATOM     11  C   UNL     1      48.761   6.244  18.411  0.00  0.00    +0.000 C 
ATOM     12  N   UNL     1      49.321   5.372  17.372  0.00  0.00    +0.000 NA
ATOM     13  C   UNL     1      48.925   5.851  16.033  0.00  0.00    +0.000 C 
BRANCH  12  14
ATOM     14  C   UNL     1      48.902   3.953  17.556  0.00  0.00    +0.000 C 
BRANCH  14  15
ATOM     15  C   UNL     1      47.485   3.519  17.106  0.00  0.00    +0.000 C 
ATOM     16  F   UNL     1      47.014   2.444  17.772  0.00  0.00    +0.000 F 
ATOM     17  F   UNL     1      46.600   4.529  17.290  0.00  0.00    +0.000 F 
ATOM     18  F   UNL     1      47.472   3.212  15.786  0.00  0.00    +0.000 F 
ENDBRANCH  14  15
ENDBRANCH  12  14
ENDBRANCH   1   8
BRANCH   5  19
ATOM     19  C   UNL     1      45.686   9.020  12.668  0.00  0.00    +0.000 C 
BRANCH  19  20
ATOM     20  C   UNL     1      44.912   7.999  11.823  0.00  0.00    +0.000 C 
BRANCH  20  21
ATOM     21  N   UNL     1      44.615   6.743  12.516  0.00  0.00    +0.000 N 
ATOM     22  C   UNL     1      44.756   5.644  11.629  0.00  0.00    +0.000 A 
ATOM     23  C   UNL     1      44.490   4.343  12.073  0.00  0.00    +0.000 A 
ATOM     24  N   UNL     1      44.590   3.232  11.292  0.00  0.00    +0.000 NA
ATOM     25  C   UNL     1      44.996   3.475  10.013  0.00  0.00    +0.000 A 
ATOM     26  C   UNL     1      45.280   4.749   9.560  0.00  0.00    +0.000 A 
ATOM     27  N   UNL     1      45.171   5.845  10.353  0.00  0.00    +0.000 NA
ATOM     28  H   UNL     1      43.668   6.734  12.888  0.00  0.00    +0.000 HD
BRANCH  25  29
ATOM     29  C   UNL     1      45.121   2.322   9.080  0.00  0.00    +0.000 C 
ATOM     30  N   UNL     1      46.131   2.401   8.167  0.00  0.00    +0.000 N 
ATOM     31  O   UNL     1      44.366   1.361   9.131  0.00  0.00    +0.000 OA
ATOM     32  H   UNL     1      46.741   3.215   8.151  0.00  0.00    +0.000 HD
ATOM     33  H   UNL     1      46.265   1.651   7.509  0.00  0.00    +0.000 HD
ENDBRANCH  25  29
ENDBRANCH  20  21
ENDBRANCH  19  20
ENDBRANCH   5  19
TORSDOF 7
ENDMDL
