MODEL 1
REMARK VINA RESULT:    -8.023      0.000      0.000
REMARK INTER + INTRA:         -12.501
REMARK INTER:                 -11.306
REMARK INTRA:                  -1.195
REMARK UNBOUND:                -1.195
REMARK  Name = 
REMARK  7 active torsions:
REMARK  status: ('A' for Active; 'I' for Inactive)
REMARK    1  A    between atoms: C_2  and  C_19
REMARK    2  A    between atoms: N_3  and  C_4
REMARK    3  A    between atoms: C_4  and  C_5
REMARK    4  A    between atoms: C_8  and  C_9
REMARK    5  A    between atoms: C_9  and  C_10
REMARK    6  A    between atoms: C_10  and  N_11
REMARK    7  A    between atoms: N_11  and  C_12
REMARK                            x       y       z     vdW  Elec       q    Type
REMARK                         _______ _______ _______ _____ _____    ______ ____
ROOT
ATOM      1  C   UNL     1      46.489   7.018  12.732  0.00  0.00    +0.000 C 
ENDROOT
BRANCH   1   2
ATOM      2  C   UNL     1      45.919   5.813  12.048  0.00  0.00    +0.000 A 
ATOM      3  C   UNL     1      45.524   4.666  12.742  0.00  0.00    +0.000 A 
ATOM      4  C   UNL     1      44.995   3.574  12.047  0.00  0.00    +0.000 A 
ATOM      5  C   UNL     1      44.854   3.666  10.667  0.00  0.00    +0.000 A 
ATOM      6  N   UNL     1      45.210   4.785   9.988  0.00  0.00    +0.000 NA
ATOM      7  C   UNL     1      45.726   5.822  10.678  0.00  0.00    +0.000 A 
BRANCH   5   8
ATOM      8  C   UNL     1      44.300   2.510   9.855  0.00  0.00    +0.000 C 
BRANCH   8   9
ATOM      9  C   UNL     1      45.361   1.984   8.875  0.00  0.00    +0.000 C 
BRANCH   9  10
ATOM     10  N   UNL     1      45.478   2.734   7.614  0.00  0.00    +0.000 NA
ATOM     11  H   UNL     1      45.011   3.635   7.718  0.00  0.00    +0.000 HD
BRANCH  10  12
ATOM     12  C   UNL     1      46.908   2.967   7.309  0.00  0.00    +0.000 C 
ATOM     13  C   UNL     1      47.098   3.617   5.939  0.00  0.00    +0.000 C 
ATOM     14  C   UNL     1      47.491   2.462   5.042  0.00  0.00    +0.000 C 
ATOM     15  N   UNL     1      48.404   1.675   5.879  0.00  0.00    +0.000 NA
ATOM     16  C   UNL     1      47.757   1.674   7.203  0.00  0.00    +0.000 C 
ATOM     17  H   UNL     1      49.293   2.168   5.953  0.00  0.00    +0.000 HD
ENDBRANCH  10  12
ENDBRANCH   9  10
ENDBRANCH   8   9
ENDBRANCH   5   8
ENDBRANCH   1   2
BRANCH   1  20
ATOM     18  O   UNL     1      49.175   6.624  13.488  0.00  0.00    +0.000 OA
ATOM     19  C   UNL     1      48.302   6.564  14.347  0.00  0.00    +0.000 C 
ATOM     20  N   UNL     1      46.968   6.689  14.051  0.00  0.00    +0.000 N 
ATOM     21  H   UNL     1      46.304   6.810  14.806  0.00  0.00    +0.000 HD
BRANCH  19  22
ATOM     22  C   UNL     1      48.625   6.300  15.757  0.00  0.00    +0.000 A 
ATOM     23  C   UNL     1      49.217   7.293  16.527  0.00  0.00    +0.000 A 
ATOM     24  S   UNL     1      49.553   6.806  18.127  0.00  0.00    +0.000 S 
ATOM     25  C   UNL     1      48.871   5.269  17.863  0.00  0.00    +0.000 A 
ATOM     26  N   UNL     1      48.808   4.350  18.863  0.00  0.00    +0.000 NA
ATOM     27  C   UNL     1      48.216   3.249  18.541  0.00  0.00    +0.000 A 
ATOM     28  N   UNL     1      47.693   2.979  17.302  0.00  0.00    +0.000 N 
ATOM     29  C   UNL     1      47.808   3.842  16.241  0.00  0.00    +0.000 A 
ATOM     30  O   UNL     1      47.460   3.508  15.113  0.00  0.00    +0.000 OA
ATOM     31  C   UNL     1      48.416   5.120  16.564  0.00  0.00    +0.000 A 
ATOM     32  H   UNL     1      47.273   2.083  17.105  0.00  0.00    +0.000 HD
ENDBRANCH  19  22
ENDBRANCH   1  20
TORSDOF 7
ENDMDL
MODEL 2
REMARK VINA RESULT:    -7.370      3.017      8.542
REMARK INTER + INTRA:         -11.580
REMARK INTER:                 -10.169
REMARK INTRA:                  -1.411
REMARK UNBOUND:                -1.195
REMARK  Name = 
REMARK  7 active torsions:
REMARK  status: ('A' for Active; 'I' for Inactive)
REMARK    1  A    between atoms: C_2  and  C_19
REMARK    2  A    between atoms: N_3  and  C_4
REMARK    3  A    between atoms: C_4  and  C_5
REMARK    4  A    between atoms: C_8  and  C_9
REMARK    5  A    between atoms: C_9  and  C_10
REMARK    6  A    between atoms: C_10  and  N_11
REMARK    7  A    between atoms: N_11  and  C_12
REMARK                            x       y       z     vdW  Elec       q    Type
REMARK                         _______ _______ _______ _____ _____    ______ ____
ROOT
ATOM      1  C   UNL     1      47.466   7.672  12.211  0.00  0.00    +0.000 C 
ENDROOT
BRANCH   1   2
ATOM      2  C   UNL     1      48.473   7.482  13.304  0.00  0.00    +0.000 A 
ATOM      3  C   UNL     1      49.671   8.200  13.361  0.00  0.00    +0.000 A 
ATOM      4  C   UNL     1      50.570   7.980  14.409  0.00  0.00    +0.000 A 
ATOM      5  C   UNL     1      50.236   7.055  15.391  0.00  0.00    +0.000 A 
ATOM      6  N   UNL     1      49.065   6.372  15.358  0.00  0.00    +0.000 NA
ATOM      7  C   UNL     1      48.217   6.595  14.334  0.00  0.00    +0.000 A 
BRANCH   5   8
ATOM      8  C   UNL     1      51.176   6.762  16.546  0.00  0.00    +0.000 C 
BRANCH   8   9
ATOM      9  C   UNL     1      50.515   5.799  17.547  0.00  0.00    +0.000 C 
BRANCH   9  10
ATOM     10  N   UNL     1      50.368   4.411  17.078  0.00  0.00    +0.000 NA
ATOM     11  H   UNL     1      51.251   3.919  17.212  0.00  0.00    +0.000 HD
BRANCH  10  12
ATOM     12  C   UNL     1      49.314   3.732  17.865  0.00  0.00    +0.000 C 
ATOM     13  C   UNL     1      48.402   2.883  16.981  0.00  0.00    +0.000 C 
ATOM     14  C   UNL     1      47.171   3.746  16.797  0.00  0.00    +0.000 C 
ATOM     15  N   UNL     1      46.964   4.333  18.126  0.00  0.00    +0.000 NA
ATOM     16  C   UNL     1      48.323   4.695  18.568  0.00  0.00    +0.000 C 
ATOM     17  H   UNL     1      46.601   3.614  18.751  0.00  0.00    +0.000 HD
ENDBRANCH  10  12
ENDBRANCH   9  10
ENDBRANCH   8   9
ENDBRANCH   5   8
ENDBRANCH   1   2
BRANCH   1  20
ATOM     18  O   UNL     1      44.683   7.432  11.840  0.00  0.00    +0.000 OA
ATOM     19  C   UNL     1      45.383   6.430  11.737  0.00  0.00    +0.000 C 
ATOM     20  N   UNL     1      46.738   6.454  11.958  0.00  0.00    +0.000 N 
ATOM     21  H   UNL     1      47.295   5.652  11.690  0.00  0.00    +0.000 HD
BRANCH  19  22
ATOM     22  C   UNL     1      44.807   5.116  11.418  0.00  0.00    +0.000 A 
ATOM     23  C   UNL     1      44.017   4.462  12.353  0.00  0.00    +0.000 A 
ATOM     24  S   UNL     1      43.461   2.936  11.831  0.00  0.00    +0.000 S 
ATOM     25  C   UNL     1      44.212   3.119  10.315  0.00  0.00    +0.000 A 
ATOM     26  N   UNL     1      44.098   2.160   9.357  0.00  0.00    +0.000 NA
ATOM     27  C   UNL     1      44.670   2.453   8.237  0.00  0.00    +0.000 A 
ATOM     28  N   UNL     1      45.358   3.613   7.993  0.00  0.00    +0.000 N 
ATOM     29  C   UNL     1      45.570   4.570   8.955  0.00  0.00    +0.000 A 
ATOM     30  O   UNL     1      46.313   5.524   8.746  0.00  0.00    +0.000 OA
ATOM     31  C   UNL     1      44.900   4.316  10.218  0.00  0.00    +0.000 A 
ATOM     32  H   UNL     1      45.813   3.765   7.105  0.00  0.00    +0.000 HD
ENDBRANCH  19  22
ENDBRANCH   1  20
TORSDOF 7
ENDMDL
MODEL 3
REMARK VINA RESULT:    -7.360      3.474      8.157
REMARK INTER + INTRA:         -11.566
REMARK INTER:                 -10.121
REMARK INTRA:                  -1.445
REMARK UNBOUND:                -1.195
REMARK  Name = 
REMARK  7 active torsions:
REMARK  status: ('A' for Active; 'I' for Inactive)
REMARK    1  A    between atoms: C_2  and  C_19
REMARK    2  A    between atoms: N_3  and  C_4
REMARK    3  A    between atoms: C_4  and  C_5
REMARK    4  A    between atoms: C_8  and  C_9
REMARK    5  A    between atoms: C_9  and  C_10
REMARK    6  A    between atoms: C_10  and  N_11
REMARK    7  A    between atoms: N_11  and  C_12
REMARK                            x       y       z     vdW  Elec       q    Type
REMARK                         _______ _______ _______ _____ _____    ______ ____
ROOT
ATOM      1  C   UNL     1      48.245   8.162  12.107  0.00  0.00    +0.000 C 
ENDROOT
BRANCH   1   2
ATOM      2  C   UNL     1      49.072   7.779  13.296  0.00  0.00    +0.000 A 
ATOM      3  C   UNL     1      50.319   8.351  13.564  0.00  0.00    +0.000 A 
ATOM      4  C   UNL     1      51.042   7.954  14.693  0.00  0.00    +0.000 A 
ATOM      5  C   UNL     1      50.487   7.003  15.542  0.00  0.00    +0.000 A 
ATOM      6  N   UNL     1      49.267   6.462  15.303  0.00  0.00    +0.000 NA
ATOM      7  C   UNL     1      48.591   6.853  14.204  0.00  0.00    +0.000 A 
BRANCH   5   8
ATOM      8  C   UNL     1      51.229   6.521  16.775  0.00  0.00    +0.000 C 
BRANCH   8   9
ATOM      9  C   UNL     1      50.347   5.561  17.592  0.00  0.00    +0.000 C 
BRANCH   9  10
ATOM     10  N   UNL     1      50.329   4.169  17.115  0.00  0.00    +0.000 NA
ATOM     11  H   UNL     1      51.191   3.706  17.402  0.00  0.00    +0.000 HD
BRANCH  10  12
ATOM     12  C   UNL     1      49.178   3.456  17.718  0.00  0.00    +0.000 C 
ATOM     13  C   UNL     1      48.234   2.900  16.653  0.00  0.00    +0.000 C 
ATOM     14  C   UNL     1      47.100   3.902  16.616  0.00  0.00    +0.000 C 
ATOM     15  N   UNL     1      46.886   4.228  18.030  0.00  0.00    +0.000 NA
ATOM     16  C   UNL     1      48.249   4.354  18.575  0.00  0.00    +0.000 C 
ATOM     17  H   UNL     1      46.427   3.439  18.485  0.00  0.00    +0.000 HD
ENDBRANCH  10  12
ENDBRANCH   9  10
ENDBRANCH   8   9
ENDBRANCH   5   8
ENDBRANCH   1   2
BRANCH   1  20
ATOM     18  O   UNL     1      45.452   7.921  11.829  0.00  0.00    +0.000 OA
ATOM     19  C   UNL     1      46.168   7.007  11.432  0.00  0.00    +0.000 C 
ATOM     20  N   UNL     1      47.532   7.024  11.582  0.00  0.00    +0.000 N 
ATOM     21  H   UNL     1      48.091   6.341  11.086  0.00  0.00    +0.000 HD
BRANCH  19  22
ATOM     22  C   UNL     1      45.604   5.800  10.811  0.00  0.00    +0.000 A 
ATOM     23  C   UNL     1      45.849   5.535   9.470  0.00  0.00    +0.000 A 
ATOM     24  S   UNL     1      45.092   4.114   8.906  0.00  0.00    +0.000 S 
ATOM     25  C   UNL     1      44.455   3.774  10.447  0.00  0.00    +0.000 A 
ATOM     26  N   UNL     1      43.717   2.653  10.667  0.00  0.00    +0.000 NA
ATOM     27  C   UNL     1      43.345   2.491  11.893  0.00  0.00    +0.000 A 
ATOM     28  N   UNL     1      43.633   3.356  12.916  0.00  0.00    +0.000 N 
ATOM     29  C   UNL     1      44.303   4.540  12.724  0.00  0.00    +0.000 A 
ATOM     30  O   UNL     1      44.416   5.357  13.633  0.00  0.00    +0.000 OA
ATOM     31  C   UNL     1      44.794   4.745  11.374  0.00  0.00    +0.000 A 
ATOM     32  H   UNL     1      43.282   3.189  13.847  0.00  0.00    +0.000 HD
ENDBRANCH  19  22
ENDBRANCH   1  20
TORSDOF 7
ENDMDL
MODEL 4
REMARK VINA RESULT:    -7.067      1.948      2.892
REMARK INTER + INTRA:         -11.153
REMARK INTER:                  -9.861
REMARK INTRA:                  -1.292
REMARK UNBOUND:                -1.195
REMARK  Name = 
REMARK  7 active torsions:
REMARK  status: ('A' for Active; 'I' for Inactive)
REMARK    1  A    between atoms: C_2  and  C_19
REMARK    2  A    between atoms: N_3  and  C_4
REMARK    3  A    between atoms: C_4  and  C_5
REMARK    4  A    between atoms: C_8  and  C_9
REMARK    5  A    between atoms: C_9  and  C_10
REMARK    6  A    between atoms: C_10  and  N_11
REMARK    7  A    between atoms: N_11  and  C_12
REMARK                            x       y       z     vdW  Elec       q    Type
REMARK                         _______ _______ _______ _____ _____    ______ ____
ROOT
ATOM      1  C   UNL     1      48.452   6.973  13.461  0.00  0.00    +0.000 C 
ENDROOT
BRANCH   1   2
ATOM      2  C   UNL     1      47.118   6.309  13.306  0.00  0.00    +0.000 A 
ATOM      3  C   UNL     1      46.017   6.950  12.731  0.00  0.00    +0.000 A 
ATOM      4  C   UNL     1      44.799   6.275  12.612  0.00  0.00    +0.000 A 
ATOM      5  C   UNL     1      44.717   4.960  13.055  0.00  0.00    +0.000 A 
ATOM      6  N   UNL     1      45.787   4.322  13.590  0.00  0.00    +0.000 NA
ATOM      7  C   UNL     1      46.950   4.995  13.703  0.00  0.00    +0.000 A 
BRANCH   5   8
ATOM      8  C   UNL     1      43.419   4.180  12.965  0.00  0.00    +0.000 C 
BRANCH   8   9
ATOM      9  C   UNL     1      43.639   2.854  12.216  0.00  0.00    +0.000 C 
BRANCH   9  10
ATOM     10  N   UNL     1      44.769   2.848  11.274  0.00  0.00    +0.000 NA
ATOM     11  H   UNL     1      45.226   1.937  11.306  0.00  0.00    +0.000 HD
BRANCH  10  12
ATOM     12  C   UNL     1      44.269   3.085   9.900  0.00  0.00    +0.000 C 
ATOM     13  C   UNL     1      44.710   1.985   8.936  0.00  0.00    +0.000 C 
ATOM     14  C   UNL     1      45.883   2.598   8.201  0.00  0.00    +0.000 C 
ATOM     15  N   UNL     1      45.454   3.981   7.966  0.00  0.00    +0.000 NA
ATOM     16  C   UNL     1      44.816   4.374   9.235  0.00  0.00    +0.000 C 
ATOM     17  H   UNL     1      44.746   3.987   7.232  0.00  0.00    +0.000 HD
ENDBRANCH  10  12
ENDBRANCH   9  10
ENDBRANCH   8   9
ENDBRANCH   5   8
ENDBRANCH   1   2
BRANCH   1  20
ATOM     18  O   UNL     1      48.109   8.838  15.546  0.00  0.00    +0.000 OA
ATOM     19  C   UNL     1      48.686   7.782  15.784  0.00  0.00    +0.000 C 
ATOM     20  N   UNL     1      48.942   6.848  14.811  0.00  0.00    +0.000 N 
ATOM     21  H   UNL     1      49.258   5.925  15.084  0.00  0.00    +0.000 HD
BRANCH  19  22
ATOM     22  C   UNL     1      49.193   7.466  17.127  0.00  0.00    +0.000 A 
ATOM     23  C   UNL     1      50.047   8.352  17.769  0.00  0.00    +0.000 A 
ATOM     24  S   UNL     1      50.564   7.812  19.303  0.00  0.00    +0.000 S 
ATOM     25  C   UNL     1      49.622   6.400  19.186  0.00  0.00    +0.000 A 
ATOM     26  N   UNL     1      49.585   5.497  20.202  0.00  0.00    +0.000 NA
ATOM     27  C   UNL     1      48.787   4.501  20.003  0.00  0.00    +0.000 A 
ATOM     28  N   UNL     1      48.033   4.320  18.873  0.00  0.00    +0.000 N 
ATOM     29  C   UNL     1      48.101   5.161  17.789  0.00  0.00    +0.000 A 
ATOM     30  O   UNL     1      47.525   4.889  16.740  0.00  0.00    +0.000 OA
ATOM     31  C   UNL     1      48.942   6.328  17.982  0.00  0.00    +0.000 A 
ATOM     32  H   UNL     1      47.454   3.500  18.765  0.00  0.00    +0.000 HD
ENDBRANCH  19  22
ENDBRANCH   1  20
TORSDOF 7
ENDMDL
MODEL 5
REMARK VINA RESULT:    -7.014      3.242      5.187
REMARK INTER + INTRA:         -11.079
REMARK INTER:                 -10.005
REMARK INTRA:                  -1.074
REMARK UNBOUND:                -1.195
REMARK  Name = 
REMARK  7 active torsions:
REMARK  status: ('A' for Active; 'I' for Inactive)
REMARK    1  A    between atoms: C_2  and  C_19
REMARK    2  A    between atoms: N_3  and  C_4
REMARK    3  A    between atoms: C_4  and  C_5
REMARK    4  A    between atoms: C_8  and  C_9
REMARK    5  A    between atoms: C_9  and  C_10
REMARK    6  A    between atoms: C_10  and  N_11
REMARK    7  A    between atoms: N_11  and  C_12
REMARK                            x       y       z     vdW  Elec       q    Type
REMARK                         _______ _______ _______ _____ _____    ______ ____
ROOT
ATOM      1  C   UNL     1      49.149   6.192  17.594  0.00  0.00    +0.000 C 
ENDROOT
BRANCH   1   2
ATOM      2  C   UNL     1      48.447   5.847  16.316  0.00  0.00    +0.000 A 
ATOM      3  C   UNL     1      48.561   6.621  15.158  0.00  0.00    +0.000 A 
ATOM      4  C   UNL     1      47.883   6.244  13.995  0.00  0.00    +0.000 A 
ATOM      5  C   UNL     1      47.119   5.083  14.013  0.00  0.00    +0.000 A 
ATOM      6  N   UNL     1      47.024   4.311  15.125  0.00  0.00    +0.000 NA
ATOM      7  C   UNL     1      47.679   4.699  16.237  0.00  0.00    +0.000 A 
BRANCH   5   8
ATOM      8  C   UNL     1      46.350   4.628  12.787  0.00  0.00    +0.000 C 
BRANCH   8   9
ATOM      9  C   UNL     1      44.947   4.138  13.184  0.00  0.00    +0.000 C 
BRANCH   9  10
ATOM     10  N   UNL     1      44.529   2.868  12.569  0.00  0.00    +0.000 NA
ATOM     11  H   UNL     1      44.076   2.289  13.275  0.00  0.00    +0.000 HD
BRANCH  10  12
ATOM     12  C   UNL     1      43.564   3.141  11.479  0.00  0.00    +0.000 C 
ATOM     13  C   UNL     1      44.165   2.854  10.104  0.00  0.00    +0.000 C 
ATOM     14  C   UNL     1      44.550   4.223   9.584  0.00  0.00    +0.000 C 
ATOM     15  N   UNL     1      43.426   5.072   9.997  0.00  0.00    +0.000 NA
ATOM     16  C   UNL     1      43.129   4.624  11.368  0.00  0.00    +0.000 C 
ATOM     17  H   UNL     1      42.622   4.865   9.406  0.00  0.00    +0.000 HD
ENDBRANCH  10  12
ENDBRANCH   9  10
ENDBRANCH   8   9
ENDBRANCH   5   8
ENDBRANCH   1   2
BRANCH   1  20
ATOM     18  O   UNL     1      51.780   6.192  16.587  0.00  0.00    +0.000 OA
ATOM     19  C   UNL     1      51.457   5.334  17.401  0.00  0.00    +0.000 C 
ATOM     20  N   UNL     1      50.181   5.233  17.896  0.00  0.00    +0.000 N 
ATOM     21  H   UNL     1      50.007   4.629  18.691  0.00  0.00    +0.000 HD
BRANCH  19  22
ATOM     22  C   UNL     1      52.410   4.316  17.868  0.00  0.00    +0.000 A 
ATOM     23  C   UNL     1      53.611   4.706  18.444  0.00  0.00    +0.000 A 
ATOM     24  S   UNL     1      54.609   3.398  18.896  0.00  0.00    +0.000 S 
ATOM     25  C   UNL     1      53.448   2.263  18.386  0.00  0.00    +0.000 A 
ATOM     26  N   UNL     1      53.666   0.928  18.525  0.00  0.00    +0.000 NA
ATOM     27  C   UNL     1      52.680   0.184  18.150  0.00  0.00    +0.000 A 
ATOM     28  N   UNL     1      51.500   0.654  17.633  0.00  0.00    +0.000 N 
ATOM     29  C   UNL     1      51.270   1.987  17.398  0.00  0.00    +0.000 A 
ATOM     30  O   UNL     1      50.264   2.360  16.801  0.00  0.00    +0.000 OA
ATOM     31  C   UNL     1      52.324   2.874  17.854  0.00  0.00    +0.000 A 
ATOM     32  H   UNL     1      50.781   0.016  17.325  0.00  0.00    +0.000 HD
ENDBRANCH  19  22
ENDBRANCH   1  20
TORSDOF 7
ENDMDL
MODEL 6
REMARK VINA RESULT:    -6.803      4.231      9.002
REMARK INTER + INTRA:         -10.782
REMARK INTER:                  -9.763
REMARK INTRA:                  -1.019
REMARK UNBOUND:                -1.195
REMARK  Name = 
REMARK  7 active torsions:
REMARK  status: ('A' for Active; 'I' for Inactive)
REMARK    1  A    between atoms: C_2  and  C_19
REMARK    2  A    between atoms: N_3  and  C_4
REMARK    3  A    between atoms: C_4  and  C_5
REMARK    4  A    between atoms: C_8  and  C_9
REMARK    5  A    between atoms: C_9  and  C_10
REMARK    6  A    between atoms: C_10  and  N_11
REMARK    7  A    between atoms: N_11  and  C_12
REMARK                            x       y       z     vdW  Elec       q    Type
REMARK                         _______ _______ _______ _____ _____    ______ ____
ROOT
ATOM      1  C   UNL     1      47.163   3.458  16.794  0.00  0.00    +0.000 C 
ENDROOT
BRANCH   1   2
ATOM      2  C   UNL     1      48.611   3.596  17.154  0.00  0.00    +0.000 A 
ATOM      3  C   UNL     1      49.144   4.764  17.706  0.00  0.00    +0.000 A 
ATOM      4  C   UNL     1      50.504   4.830  18.024  0.00  0.00    +0.000 A 
ATOM      5  C   UNL     1      51.298   3.711  17.800  0.00  0.00    +0.000 A 
ATOM      6  N   UNL     1      50.783   2.564  17.289  0.00  0.00    +0.000 NA
ATOM      7  C   UNL     1      49.471   2.526  16.982  0.00  0.00    +0.000 A 
BRANCH   5   8
ATOM      8  C   UNL     1      52.783   3.725  18.112  0.00  0.00    +0.000 C 
BRANCH   8   9
ATOM      9  C   UNL     1      53.444   2.419  17.639  0.00  0.00    +0.000 C 
BRANCH   9  10
ATOM     10  N   UNL     1      53.255   1.262  18.528  0.00  0.00    +0.000 NA
ATOM     11  H   UNL     1      52.422   0.751  18.238  0.00  0.00    +0.000 HD
BRANCH  10  12
ATOM     12  C   UNL     1      54.429   0.365  18.429  0.00  0.00    +0.000 C 
ATOM     13  C   UNL     1      55.110   0.471  17.065  0.00  0.00    +0.000 C 
ATOM     14  C   UNL     1      54.604  -0.743  16.314  0.00  0.00    +0.000 C 
ATOM     15  N   UNL     1      54.618  -1.803  17.328  0.00  0.00    +0.000 NA
ATOM     16  C   UNL     1      54.091  -1.144  18.536  0.00  0.00    +0.000 C 
ATOM     17  H   UNL     1      55.583  -2.078  17.504  0.00  0.00    +0.000 HD
ENDBRANCH  10  12
ENDBRANCH   9  10
ENDBRANCH   8   9
ENDBRANCH   5   8
ENDBRANCH   1   2
BRANCH   1  20
ATOM     18  O   UNL     1      47.225   3.109  13.998  0.00  0.00    +0.000 OA
ATOM     19  C   UNL     1      46.792   4.161  14.455  0.00  0.00    +0.000 C 
ATOM     20  N   UNL     1      46.780   4.430  15.801  0.00  0.00    +0.000 N 
ATOM     21  H   UNL     1      46.255   5.227  16.140  0.00  0.00    +0.000 HD
BRANCH  19  22
ATOM     22  C   UNL     1      46.298   5.235  13.581  0.00  0.00    +0.000 A 
ATOM     23  C   UNL     1      47.115   6.319  13.290  0.00  0.00    +0.000 A 
ATOM     24  S   UNL     1      46.372   7.486  12.292  0.00  0.00    +0.000 S 
ATOM     25  C   UNL     1      44.951   6.559  12.169  0.00  0.00    +0.000 A 
ATOM     26  N   UNL     1      43.902   6.981  11.412  0.00  0.00    +0.000 NA
ATOM     27  C   UNL     1      42.912   6.154  11.363  0.00  0.00    +0.000 A 
ATOM     28  N   UNL     1      42.870   4.948  12.013  0.00  0.00    +0.000 N 
ATOM     29  C   UNL     1      43.869   4.519  12.852  0.00  0.00    +0.000 A 
ATOM     30  O   UNL     1      43.734   3.505  13.530  0.00  0.00    +0.000 OA
ATOM     31  C   UNL     1      45.032   5.386  12.900  0.00  0.00    +0.000 A 
ATOM     32  H   UNL     1      42.050   4.363  11.961  0.00  0.00    +0.000 HD
ENDBRANCH  19  22
ENDBRANCH   1  20
TORSDOF 7
ENDMDL
MODEL 7
REMARK VINA RESULT:    -6.783      4.135      8.548
REMARK INTER + INTRA:         -10.753
REMARK INTER:                  -9.383
REMARK INTRA:                  -1.370
REMARK UNBOUND:                -1.195
REMARK  Name = 
REMARK  7 active torsions:
REMARK  status: ('A' for Active; 'I' for Inactive)
REMARK    1  A    between atoms: C_2  and  C_19
REMARK    2  A    between atoms: N_3  and  C_4
REMARK    3  A    between atoms: C_4  and  C_5
REMARK    4  A    between atoms: C_8  and  C_9
REMARK    5  A    between atoms: C_9  and  C_10
REMARK    6  A    between atoms: C_10  and  N_11
REMARK    7  A    between atoms: N_11  and  C_12
REMARK                            x       y       z     vdW  Elec       q    Type
REMARK                         _______ _______ _______ _____ _____    ______ ____
ROOT
ATOM      1  C   UNL     1      47.175   3.427  16.868  0.00  0.00    +0.000 C 
ENDROOT
BRANCH   1   2
ATOM      2  C   UNL     1      48.643   3.466  17.169  0.00  0.00    +0.000 A 
ATOM      3  C   UNL     1      49.473   2.351  17.024  0.00  0.00    +0.000 A 
ATOM      4  C   UNL     1      50.837   2.452  17.318  0.00  0.00    +0.000 A 
ATOM      5  C   UNL     1      51.342   3.679  17.732  0.00  0.00    +0.000 A 
ATOM      6  N   UNL     1      50.548   4.772  17.850  0.00  0.00    +0.000 NA
ATOM      7  C   UNL     1      49.235   4.650  17.570  0.00  0.00    +0.000 A 
BRANCH   5   8
ATOM      8  C   UNL     1      52.810   3.849  18.079  0.00  0.00    +0.000 C 
BRANCH   8   9
ATOM      9  C   UNL     1      53.379   5.108  17.404  0.00  0.00    +0.000 C 
BRANCH   9  10
ATOM     10  N   UNL     1      53.014   6.382  18.043  0.00  0.00    +0.000 NA
ATOM     11  H   UNL     1      53.684   6.589  18.783  0.00  0.00    +0.000 HD
BRANCH  10  12
ATOM     12  C   UNL     1      53.056   7.469  17.038  0.00  0.00    +0.000 C 
ATOM     13  C   UNL     1      51.689   8.128  16.857  0.00  0.00    +0.000 C 
ATOM     14  C   UNL     1      51.149   7.500  15.590  0.00  0.00    +0.000 C 
ATOM     15  N   UNL     1      52.324   7.440  14.712  0.00  0.00    +0.000 NA
ATOM     16  C   UNL     1      53.410   6.999  15.604  0.00  0.00    +0.000 C 
ATOM     17  H   UNL     1      52.537   8.380  14.381  0.00  0.00    +0.000 HD
ENDBRANCH  10  12
ENDBRANCH   9  10
ENDBRANCH   8   9
ENDBRANCH   5   8
ENDBRANCH   1   2
BRANCH   1  20
ATOM     18  O   UNL     1      47.287   3.079  14.074  0.00  0.00    +0.000 OA
ATOM     19  C   UNL     1      46.858   4.136  14.523  0.00  0.00    +0.000 C 
ATOM     20  N   UNL     1      46.823   4.404  15.868  0.00  0.00    +0.000 N 
ATOM     21  H   UNL     1      46.302   5.207  16.198  0.00  0.00    +0.000 HD
BRANCH  19  22
ATOM     22  C   UNL     1      46.395   5.217  13.640  0.00  0.00    +0.000 A 
ATOM     23  C   UNL     1      47.219   6.305  13.390  0.00  0.00    +0.000 A 
ATOM     24  S   UNL     1      46.511   7.479  12.374  0.00  0.00    +0.000 S 
ATOM     25  C   UNL     1      45.098   6.549  12.190  0.00  0.00    +0.000 A 
ATOM     26  N   UNL     1      44.077   6.976  11.398  0.00  0.00    +0.000 NA
ATOM     27  C   UNL     1      43.092   6.147  11.304  0.00  0.00    +0.000 A 
ATOM     28  N   UNL     1      43.029   4.935  11.942  0.00  0.00    +0.000 N 
ATOM     29  C   UNL     1      43.997   4.501  12.815  0.00  0.00    +0.000 A 
ATOM     30  O   UNL     1      43.839   3.481  13.478  0.00  0.00    +0.000 OA
ATOM     31  C   UNL     1      45.155   5.370  12.914  0.00  0.00    +0.000 A 
ATOM     32  H   UNL     1      42.213   4.348  11.854  0.00  0.00    +0.000 HD
ENDBRANCH  19  22
ENDBRANCH   1  20
TORSDOF 7
ENDMDL
MODEL 8
REMARK VINA RESULT:    -6.763      3.876      8.288
REMARK INTER + INTRA:         -10.726
REMARK INTER:                  -9.147
REMARK INTRA:                  -1.578
REMARK UNBOUND:                -1.195
REMARK  Name = 
REMARK  7 active torsions:
REMARK  status: ('A' for Active; 'I' for Inactive)
REMARK    1  A    between atoms: C_2  and  C_19
REMARK    2  A    between atoms: N_3  and  C_4
REMARK    3  A    between atoms: C_4  and  C_5
REMARK    4  A    between atoms: C_8  and  C_9
REMARK    5  A    between atoms: C_9  and  C_10
REMARK    6  A    between atoms: C_10  and  N_11
REMARK    7  A    between atoms: N_11  and  C_12
REMARK                            x       y       z     vdW  Elec       q    Type
REMARK                         _______ _______ _______ _____ _____    ______ ____
ROOT
ATOM      1  C   UNL     1      48.392   8.316  14.452  0.00  0.00    +0.000 C 
ENDROOT
BRANCH   1   2
ATOM      2  C   UNL     1      49.295   7.629  15.430  0.00  0.00    +0.000 A 
ATOM      3  C   UNL     1      50.661   7.447  15.197  0.00  0.00    +0.000 A 
ATOM      4  C   UNL     1      51.453   6.800  16.151  0.00  0.00    +0.000 A 
ATOM      5  C   UNL     1      50.858   6.367  17.331  0.00  0.00    +0.000 A 
ATOM      6  N   UNL     1      49.539   6.563  17.576  0.00  0.00    +0.000 NA
ATOM      7  C   UNL     1      48.793   7.181  16.639  0.00  0.00    +0.000 A 
BRANCH   5   8
ATOM      8  C   UNL     1      51.662   5.647  18.398  0.00  0.00    +0.000 C 
BRANCH   8   9
ATOM      9  C   UNL     1      51.208   4.182  18.516  0.00  0.00    +0.000 C 
BRANCH   9  10
ATOM     10  N   UNL     1      50.610   3.611  17.298  0.00  0.00    +0.000 NA
ATOM     11  H   UNL     1      51.286   2.990  16.855  0.00  0.00    +0.000 HD
BRANCH  10  12
ATOM     12  C   UNL     1      49.404   2.832  17.659  0.00  0.00    +0.000 C 
ATOM     13  C   UNL     1      48.465   2.655  16.466  0.00  0.00    +0.000 C 
ATOM     14  C   UNL     1      47.389   3.696  16.695  0.00  0.00    +0.000 C 
ATOM     15  N   UNL     1      47.149   3.626  18.141  0.00  0.00    +0.000 NA
ATOM     16  C   UNL     1      48.499   3.510  18.719  0.00  0.00    +0.000 C 
ATOM     17  H   UNL     1      46.633   2.772  18.349  0.00  0.00    +0.000 HD
ENDBRANCH  10  12
ENDBRANCH   9  10
ENDBRANCH   8   9
ENDBRANCH   5   8
ENDBRANCH   1   2
BRANCH   1  20
ATOM     18  O   UNL     1      48.733   6.187  12.638  0.00  0.00    +0.000 OA
ATOM     19  C   UNL     1      47.625   6.375  13.130  0.00  0.00    +0.000 C 
ATOM     20  N   UNL     1      47.365   7.423  13.977  0.00  0.00    +0.000 N 
ATOM     21  H   UNL     1      46.493   7.435  14.493  0.00  0.00    +0.000 HD
BRANCH  19  22
ATOM     22  C   UNL     1      46.480   5.514  12.802  0.00  0.00    +0.000 A 
ATOM     23  C   UNL     1      46.536   4.155  13.079  0.00  0.00    +0.000 A 
ATOM     24  S   UNL     1      45.136   3.303  12.603  0.00  0.00    +0.000 S 
ATOM     25  C   UNL     1      44.385   4.729  12.058  0.00  0.00    +0.000 A 
ATOM     26  N   UNL     1      43.124   4.705  11.549  0.00  0.00    +0.000 NA
ATOM     27  C   UNL     1      42.656   5.864  11.227  0.00  0.00    +0.000 A 
ATOM     28  N   UNL     1      43.341   7.045  11.354  0.00  0.00    +0.000 N 
ATOM     29  C   UNL     1      44.644   7.107  11.784  0.00  0.00    +0.000 A 
ATOM     30  O   UNL     1      45.273   8.160  11.747  0.00  0.00    +0.000 OA
ATOM     31  C   UNL     1      45.200   5.837  12.213  0.00  0.00    +0.000 A 
ATOM     32  H   UNL     1      42.930   7.915  11.050  0.00  0.00    +0.000 HD
ENDBRANCH  19  22
ENDBRANCH   1  20
TORSDOF 7
ENDMDL
MODEL 9
REMARK VINA RESULT:    -6.609      4.153      9.203
REMARK INTER + INTRA:         -10.507
REMARK INTER:                  -8.927
REMARK INTRA:                  -1.581
REMARK UNBOUND:                -1.195
REMARK  Name = 
REMARK  7 active torsions:
REMARK  status: ('A' for Active; 'I' for Inactive)
REMARK    1  A    between atoms: C_2  and  C_19
REMARK    2  A    between atoms: N_3  and  C_4
REMARK    3  A    between atoms: C_4  and  C_5
REMARK    4  A    between atoms: C_8  and  C_9
REMARK    5  A    between atoms: C_9  and  C_10
REMARK    6  A    between atoms: C_10  and  N_11
REMARK    7  A    between atoms: N_11  and  C_12
REMARK                            x       y       z     vdW  Elec       q    Type
REMARK                         _______ _______ _______ _____ _____    ______ ____
ROOT
ATOM      1  C   UNL     1      47.205   3.606  16.712  0.00  0.00    +0.000 C 
ENDROOT
BRANCH   1   2
ATOM      2  C   UNL     1      47.931   4.323  17.808  0.00  0.00    +0.000 A 
ATOM      3  C   UNL     1      48.264   3.711  19.020  0.00  0.00    +0.000 A 
ATOM      4  C   UNL     1      48.946   4.433  20.004  0.00  0.00    +0.000 A 
ATOM      5  C   UNL     1      49.299   5.752  19.742  0.00  0.00    +0.000 A 
ATOM      6  N   UNL     1      49.003   6.345  18.559  0.00  0.00    +0.000 NA
ATOM      7  C   UNL     1      48.338   5.633  17.628  0.00  0.00    +0.000 A 
BRANCH   5   8
ATOM      8  C   UNL     1      50.028   6.591  20.775  0.00  0.00    +0.000 C 
BRANCH   8   9
ATOM      9  C   UNL     1      51.550   6.434  20.618  0.00  0.00    +0.000 C 
BRANCH   9  10
ATOM     10  N   UNL     1      52.063   6.638  19.254  0.00  0.00    +0.000 NA
ATOM     11  H   UNL     1      52.621   7.492  19.232  0.00  0.00    +0.000 HD
BRANCH  10  12
ATOM     12  C   UNL     1      52.922   5.493  18.873  0.00  0.00    +0.000 C 
ATOM     13  C   UNL     1      52.587   4.972  17.477  0.00  0.00    +0.000 C 
ATOM     14  C   UNL     1      51.735   3.748  17.742  0.00  0.00    +0.000 C 
ATOM     15  N   UNL     1      52.400   3.111  18.884  0.00  0.00    +0.000 NA
ATOM     16  C   UNL     1      52.746   4.239  19.767  0.00  0.00    +0.000 C 
ATOM     17  H   UNL     1      53.263   2.674  18.562  0.00  0.00    +0.000 HD
ENDBRANCH  10  12
ENDBRANCH   9  10
ENDBRANCH   8   9
ENDBRANCH   5   8
ENDBRANCH   1   2
BRANCH   1  20
ATOM     18  O   UNL     1      47.272   3.206  13.923  0.00  0.00    +0.000 OA
ATOM     19  C   UNL     1      46.767   4.234  14.362  0.00  0.00    +0.000 C 
ATOM     20  N   UNL     1      46.746   4.528  15.703  0.00  0.00    +0.000 N 
ATOM     21  H   UNL     1      46.167   5.292  16.031  0.00  0.00    +0.000 HD
BRANCH  19  22
ATOM     22  C   UNL     1      46.192   5.252  13.472  0.00  0.00    +0.000 A 
ATOM     23  C   UNL     1      46.937   6.373  13.132  0.00  0.00    +0.000 A 
ATOM     24  S   UNL     1      46.105   7.465  12.120  0.00  0.00    +0.000 S 
ATOM     25  C   UNL     1      44.738   6.453  12.057  0.00  0.00    +0.000 A 
ATOM     26  N   UNL     1      43.650   6.793  11.315  0.00  0.00    +0.000 NA
ATOM     27  C   UNL     1      42.709   5.908  11.312  0.00  0.00    +0.000 A 
ATOM     28  N   UNL     1      42.753   4.721  11.995  0.00  0.00    +0.000 N 
ATOM     29  C   UNL     1      43.794   4.375  12.822  0.00  0.00    +0.000 A 
ATOM     30  O   UNL     1      43.734   3.375  13.530  0.00  0.00    +0.000 OA
ATOM     31  C   UNL     1      44.905   5.309  12.818  0.00  0.00    +0.000 A 
ATOM     32  H   UNL     1      41.967   4.087  11.979  0.00  0.00    +0.000 HD
ENDBRANCH  19  22
ENDBRANCH   1  20
TORSDOF 7
ENDMDL
