MODEL 1
REMARK VINA RESULT:    -7.200      0.000      0.000
REMARK INTER + INTRA:         -11.181
REMARK INTER:                 -10.146
REMARK INTRA:                  -1.035
REMARK UNBOUND:                -1.035
REMARK  Name = 
REMARK  9 active torsions:
REMARK  status: ('A' for Active; 'I' for Inactive)
REMARK    1  A    between atoms: C_1  and  O_2
REMARK    2  A    between atoms: O_2  and  C_3
REMARK    3  A    between atoms: C_10  and  C_11
REMARK    4  A    between atoms: N_13  and  C_14
REMARK    5  A    between atoms: C_14  and  C_15
REMARK    6  A    between atoms: C_18  and  N_19
REMARK    7  A    between atoms: N_19  and  C_20
REMARK    8  A    between atoms: C_20  and  C_21
REMARK    9  A    between atoms: N_24  and  C_25
REMARK                            x       y       z     vdW  Elec       q    Type
REMARK                         _______ _______ _______ _____ _____    ______ ____
ROOT
ATOM      1  C   UNL     1      48.657   7.220  15.196  0.00  0.00    +0.000 C 
ENDROOT
BRANCH   1   2
ATOM      2  C   UNL     1      47.807   6.643  14.097  0.00  0.00    +0.000 A 
ATOM      3  C   UNL     1      47.448   7.406  12.981  0.00  0.00    +0.000 A 
ATOM      4  C   UNL     1      46.627   6.866  11.979  0.00  0.00    +0.000 A 
ATOM      5  C   UNL     1      46.167   5.547  12.048  0.00  0.00    +0.000 A 
ATOM      6  C   UNL     1      46.510   4.805  13.186  0.00  0.00    +0.000 A 
ATOM      7  C   UNL     1      47.317   5.338  14.196  0.00  0.00    +0.000 A 
BRANCH   5   8
ATOM      8  N   UNL     1      45.273   4.984  11.137  0.00  0.00    +0.000 N 
ATOM      9  H   UNL     1      44.378   5.468  11.133  0.00  0.00    +0.000 HD
BRANCH   8  10
ATOM     10  C   UNL     1      45.113   3.540  11.009  0.00  0.00    +0.000 C 
BRANCH  10  11
ATOM     11  C   UNL     1      44.237   3.189   9.790  0.00  0.00    +0.000 C 
ATOM     12  C   UNL     1      44.541   1.813   9.176  0.00  0.00    +0.000 C 
ATOM     13  C   UNL     1      45.935   1.766   8.551  0.00  0.00    +0.000 C 
ATOM     14  N   UNL     1      46.110   2.813   7.536  0.00  0.00    +0.000 NA
ATOM     15  C   UNL     1      47.472   2.769   7.000  0.00  0.00    +0.000 C 
ATOM     16  C   UNL     1      45.801   4.159   8.033  0.00  0.00    +0.000 C 
ATOM     17  C   UNL     1      44.414   4.239   8.684  0.00  0.00    +0.000 C 
ENDBRANCH  10  11
ENDBRANCH   8  10
ENDBRANCH   5   8
ENDBRANCH   1   2
BRANCH   1  20
ATOM     18  C   UNL     1      49.913   6.179  17.017  0.00  0.00    +0.000 C 
ATOM     19  O   UNL     1      49.361   6.921  17.833  0.00  0.00    +0.000 OA
ATOM     20  N   UNL     1      49.621   6.262  15.684  0.00  0.00    +0.000 N 
ATOM     21  H   UNL     1      50.048   5.631  15.021  0.00  0.00    +0.000 HD
BRANCH  18  29
ATOM     22  C   UNL     1      50.058   2.727  16.917  0.00  0.00    +0.000 A 
ATOM     23  N   UNL     1      50.376   1.419  17.028  0.00  0.00    +0.000 NA
ATOM     24  C   UNL     1      51.546   1.095  17.580  0.00  0.00    +0.000 A 
ATOM     25  N   UNL     1      52.464   1.933  18.049  0.00  0.00    +0.000 NA
ATOM     26  C   UNL     1      52.108   3.223  17.934  0.00  0.00    +0.000 A 
ATOM     27  S   UNL     1      53.168   4.428  18.485  0.00  0.00    +0.000 S 
ATOM     28  C   UNL     1      52.089   5.654  18.028  0.00  0.00    +0.000 A 
ATOM     29  C   UNL     1      50.910   5.187  17.452  0.00  0.00    +0.000 A 
ATOM     30  C   UNL     1      50.927   3.725  17.393  0.00  0.00    +0.000 A 
BRANCH  22  32
ATOM     31  C   UNL     1      47.783   3.074  17.307  0.00  0.00    +0.000 C 
ATOM     32  O   UNL     1      48.842   3.051  16.350  0.00  0.00    +0.000 OA
ENDBRANCH  22  32
ENDBRANCH  18  29
ENDBRANCH   1  20
TORSDOF 7
ENDMDL
MODEL 2
REMARK VINA RESULT:    -7.149      2.036      2.409
REMARK INTER + INTRA:         -11.110
REMARK INTER:                  -9.881
REMARK INTRA:                  -1.228
REMARK UNBOUND:                -1.035
REMARK  Name = 
REMARK  9 active torsions:
REMARK  status: ('A' for Active; 'I' for Inactive)
REMARK    1  A    between atoms: C_1  and  O_2
REMARK    2  A    between atoms: O_2  and  C_3
REMARK    3  A    between atoms: C_10  and  C_11
REMARK    4  A    between atoms: N_13  and  C_14
REMARK    5  A    between atoms: C_14  and  C_15
REMARK    6  A    between atoms: C_18  and  N_19
REMARK    7  A    between atoms: N_19  and  C_20
REMARK    8  A    between atoms: C_20  and  C_21
REMARK    9  A    between atoms: N_24  and  C_25
REMARK                            x       y       z     vdW  Elec       q    Type
REMARK                         _______ _______ _______ _____ _____    ______ ____
ROOT
ATOM      1  C   UNL     1      48.869   7.568  13.777  0.00  0.00    +0.000 C 
ENDROOT
BRANCH   1   2
ATOM      2  C   UNL     1      47.764   6.759  13.154  0.00  0.00    +0.000 A 
ATOM      3  C   UNL     1      47.152   5.711  13.848  0.00  0.00    +0.000 A 
ATOM      4  C   UNL     1      46.146   4.943  13.242  0.00  0.00    +0.000 A 
ATOM      5  C   UNL     1      45.705   5.215  11.943  0.00  0.00    +0.000 A 
ATOM      6  C   UNL     1      46.349   6.248  11.249  0.00  0.00    +0.000 A 
ATOM      7  C   UNL     1      47.361   7.012  11.840  0.00  0.00    +0.000 A 
BRANCH   5   8
ATOM      8  N   UNL     1      44.781   4.431  11.253  0.00  0.00    +0.000 N 
ATOM      9  H   UNL     1      43.880   4.400  11.724  0.00  0.00    +0.000 HD
BRANCH   8  10
ATOM     10  C   UNL     1      45.144   3.136  10.686  0.00  0.00    +0.000 C 
BRANCH  10  11
ATOM     11  C   UNL     1      44.372   2.873   9.378  0.00  0.00    +0.000 C 
ATOM     12  C   UNL     1      44.685   1.516   8.728  0.00  0.00    +0.000 C 
ATOM     13  C   UNL     1      46.129   1.445   8.229  0.00  0.00    +0.000 C 
ATOM     14  N   UNL     1      46.431   2.529   7.286  0.00  0.00    +0.000 NA
ATOM     15  C   UNL     1      47.834   2.459   6.873  0.00  0.00    +0.000 C 
ATOM     16  C   UNL     1      46.122   3.862   7.818  0.00  0.00    +0.000 C 
ATOM     17  C   UNL     1      44.685   3.964   8.344  0.00  0.00    +0.000 C 
ENDBRANCH  10  11
ENDBRANCH   8  10
ENDBRANCH   5   8
ENDBRANCH   1   2
BRANCH   1  20
ATOM     18  C   UNL     1      50.132   7.305  15.854  0.00  0.00    +0.000 C 
ATOM     19  O   UNL     1      51.192   7.403  15.231  0.00  0.00    +0.000 OA
ATOM     20  N   UNL     1      48.929   7.376  15.207  0.00  0.00    +0.000 N 
ATOM     21  H   UNL     1      48.062   7.329  15.722  0.00  0.00    +0.000 HD
BRANCH  18  29
ATOM     22  C   UNL     1      48.971   4.784  17.914  0.00  0.00    +0.000 A 
ATOM     23  N   UNL     1      48.608   3.986  18.941  0.00  0.00    +0.000 NA
ATOM     24  C   UNL     1      48.898   4.378  20.183  0.00  0.00    +0.000 A 
ATOM     25  N   UNL     1      49.520   5.496  20.539  0.00  0.00    +0.000 NA
ATOM     26  C   UNL     1      49.854   6.270  19.493  0.00  0.00    +0.000 A 
ATOM     27  S   UNL     1      50.657   7.739  19.772  0.00  0.00    +0.000 S 
ATOM     28  C   UNL     1      50.711   8.080  18.111  0.00  0.00    +0.000 A 
ATOM     29  C   UNL     1      50.129   7.100  17.312  0.00  0.00    +0.000 A 
ATOM     30  C   UNL     1      49.618   6.011  18.145  0.00  0.00    +0.000 A 
BRANCH  22  32
ATOM     31  C   UNL     1      47.846   3.200  16.622  0.00  0.00    +0.000 C 
ATOM     32  O   UNL     1      48.661   4.372  16.634  0.00  0.00    +0.000 OA
ENDBRANCH  22  32
ENDBRANCH  18  29
ENDBRANCH   1  20
TORSDOF 7
ENDMDL
MODEL 3
REMARK VINA RESULT:    -7.016      3.353      9.645
REMARK INTER + INTRA:         -10.922
REMARK INTER:                  -9.875
REMARK INTRA:                  -1.048
REMARK UNBOUND:                -1.035
REMARK  Name = 
REMARK  9 active torsions:
REMARK  status: ('A' for Active; 'I' for Inactive)
REMARK    1  A    between atoms: C_1  and  O_2
REMARK    2  A    between atoms: O_2  and  C_3
REMARK    3  A    between atoms: C_10  and  C_11
REMARK    4  A    between atoms: N_13  and  C_14
REMARK    5  A    between atoms: C_14  and  C_15
REMARK    6  A    between atoms: C_18  and  N_19
REMARK    7  A    between atoms: N_19  and  C_20
REMARK    8  A    between atoms: C_20  and  C_21
REMARK    9  A    between atoms: N_24  and  C_25
REMARK                            x       y       z     vdW  Elec       q    Type
REMARK                         _______ _______ _______ _____ _____    ______ ____
ROOT
ATOM      1  C   UNL     1      47.315   3.333  16.764  0.00  0.00    +0.000 C 
ENDROOT
BRANCH   1   2
ATOM      2  C   UNL     1      48.788   3.399  17.065  0.00  0.00    +0.000 A 
ATOM      3  C   UNL     1      49.584   2.250  17.052  0.00  0.00    +0.000 A 
ATOM      4  C   UNL     1      50.949   2.322  17.368  0.00  0.00    +0.000 A 
ATOM      5  C   UNL     1      51.562   3.541  17.677  0.00  0.00    +0.000 A 
ATOM      6  C   UNL     1      50.745   4.679  17.717  0.00  0.00    +0.000 A 
ATOM      7  C   UNL     1      49.380   4.615  17.415  0.00  0.00    +0.000 A 
BRANCH   5   8
ATOM      8  N   UNL     1      52.888   3.663  18.092  0.00  0.00    +0.000 N 
ATOM      9  H   UNL     1      53.483   4.041  17.359  0.00  0.00    +0.000 HD
BRANCH   8  10
ATOM     10  C   UNL     1      53.556   2.611  18.850  0.00  0.00    +0.000 C 
BRANCH  10  11
ATOM     11  C   UNL     1      54.853   2.164  18.146  0.00  0.00    +0.000 C 
ATOM     12  C   UNL     1      54.624   1.231  16.947  0.00  0.00    +0.000 C 
ATOM     13  C   UNL     1      54.053  -0.120  17.379  0.00  0.00    +0.000 C 
ATOM     14  N   UNL     1      54.915  -0.781  18.368  0.00  0.00    +0.000 NA
ATOM     15  C   UNL     1      54.309  -2.044  18.797  0.00  0.00    +0.000 C 
ATOM     16  C   UNL     1      55.214   0.062  19.532  0.00  0.00    +0.000 C 
ATOM     17  C   UNL     1      55.773   1.433  19.133  0.00  0.00    +0.000 C 
ENDBRANCH  10  11
ENDBRANCH   8  10
ENDBRANCH   5   8
ENDBRANCH   1   2
BRANCH   1  20
ATOM     18  C   UNL     1      46.915   4.211  14.517  0.00  0.00    +0.000 C 
ATOM     19  O   UNL     1      47.277   3.139  14.026  0.00  0.00    +0.000 OA
ATOM     20  N   UNL     1      46.905   4.392  15.873  0.00  0.00    +0.000 N 
ATOM     21  H   UNL     1      46.576   5.258  16.276  0.00  0.00    +0.000 HD
BRANCH  18  29
ATOM     22  C   UNL     1      44.077   4.864  12.657  0.00  0.00    +0.000 A 
ATOM     23  N   UNL     1      43.121   5.367  11.845  0.00  0.00    +0.000 NA
ATOM     24  C   UNL     1      43.332   6.558  11.280  0.00  0.00    +0.000 A 
ATOM     25  N   UNL     1      44.403   7.329  11.425  0.00  0.00    +0.000 NA
ATOM     26  C   UNL     1      45.336   6.790  12.227  0.00  0.00    +0.000 A 
ATOM     27  S   UNL     1      46.771   7.647  12.521  0.00  0.00    +0.000 S 
ATOM     28  C   UNL     1      47.360   6.412  13.524  0.00  0.00    +0.000 A 
ATOM     29  C   UNL     1      46.493   5.331  13.661  0.00  0.00    +0.000 A 
ATOM     30  C   UNL     1      45.275   5.563  12.884  0.00  0.00    +0.000 A 
BRANCH  22  32
ATOM     31  C   UNL     1      43.550   2.625  12.263  0.00  0.00    +0.000 C 
ATOM     32  O   UNL     1      43.852   3.629  13.231  0.00  0.00    +0.000 OA
ENDBRANCH  22  32
ENDBRANCH  18  29
ENDBRANCH   1  20
TORSDOF 7
ENDMDL
MODEL 4
REMARK VINA RESULT:    -6.597      3.287      9.517
REMARK INTER + INTRA:         -10.331
REMARK INTER:                  -9.234
REMARK INTRA:                  -1.098
REMARK UNBOUND:                -1.035
REMARK  Name = 
REMARK  9 active torsions:
REMARK  status: ('A' for Active; 'I' for Inactive)
REMARK    1  A    between atoms: C_1  and  O_2
REMARK    2  A    between atoms: O_2  and  C_3
REMARK    3  A    between atoms: C_10  and  C_11
REMARK    4  A    between atoms: N_13  and  C_14
REMARK    5  A    between atoms: C_14  and  C_15
REMARK    6  A    between atoms: C_18  and  N_19
REMARK    7  A    between atoms: N_19  and  C_20
REMARK    8  A    between atoms: C_20  and  C_21
REMARK    9  A    between atoms: N_24  and  C_25
REMARK                            x       y       z     vdW  Elec       q    Type
REMARK                         _______ _______ _______ _____ _____    ______ ____
ROOT
ATOM      1  C   UNL     1      47.262   3.331  16.926  0.00  0.00    +0.000 C 
ENDROOT
BRANCH   1   2
ATOM      2  C   UNL     1      48.737   3.308  17.223  0.00  0.00    +0.000 A 
ATOM      3  C   UNL     1      49.407   4.454  17.663  0.00  0.00    +0.000 A 
ATOM      4  C   UNL     1      50.788   4.427  17.904  0.00  0.00    +0.000 A 
ATOM      5  C   UNL     1      51.533   3.255  17.741  0.00  0.00    +0.000 A 
ATOM      6  C   UNL     1      50.854   2.123  17.269  0.00  0.00    +0.000 A 
ATOM      7  C   UNL     1      49.479   2.143  17.015  0.00  0.00    +0.000 A 
BRANCH   5   8
ATOM      8  N   UNL     1      52.920   3.188  17.870  0.00  0.00    +0.000 N 
ATOM      9  H   UNL     1      53.253   2.227  17.912  0.00  0.00    +0.000 HD
BRANCH   8  10
ATOM     10  C   UNL     1      53.650   4.058  18.786  0.00  0.00    +0.000 C 
BRANCH  10  11
ATOM     11  C   UNL     1      54.878   4.681  18.092  0.00  0.00    +0.000 C 
ATOM     12  C   UNL     1      55.650   5.682  18.966  0.00  0.00    +0.000 C 
ATOM     13  C   UNL     1      54.823   6.933  19.263  0.00  0.00    +0.000 C 
ATOM     14  N   UNL     1      54.375   7.592  18.029  0.00  0.00    +0.000 NA
ATOM     15  C   UNL     1      53.543   8.752  18.354  0.00  0.00    +0.000 C 
ATOM     16  C   UNL     1      53.659   6.691  17.118  0.00  0.00    +0.000 C 
ATOM     17  C   UNL     1      54.454   5.415  16.812  0.00  0.00    +0.000 C 
ENDBRANCH  10  11
ENDBRANCH   8  10
ENDBRANCH   5   8
ENDBRANCH   1   2
BRANCH   1  20
ATOM     18  C   UNL     1      46.986   4.216  14.663  0.00  0.00    +0.000 C 
ATOM     19  O   UNL     1      47.345   3.136  14.189  0.00  0.00    +0.000 OA
ATOM     20  N   UNL     1      46.918   4.399  16.017  0.00  0.00    +0.000 N 
ATOM     21  H   UNL     1      46.592   5.273  16.404  0.00  0.00    +0.000 HD
BRANCH  18  29
ATOM     22  C   UNL     1      44.254   4.932  12.671  0.00  0.00    +0.000 A 
ATOM     23  N   UNL     1      43.350   5.457  11.816  0.00  0.00    +0.000 NA
ATOM     24  C   UNL     1      43.613   6.641  11.262  0.00  0.00    +0.000 A 
ATOM     25  N   UNL     1      44.694   7.389  11.458  0.00  0.00    +0.000 NA
ATOM     26  C   UNL     1      45.576   6.829  12.302  0.00  0.00    +0.000 A 
ATOM     27  S   UNL     1      47.014   7.653  12.664  0.00  0.00    +0.000 S 
ATOM     28  C   UNL     1      47.527   6.406  13.693  0.00  0.00    +0.000 A 
ATOM     29  C   UNL     1      46.630   5.345  13.788  0.00  0.00    +0.000 A 
ATOM     30  C   UNL     1      45.456   5.605  12.955  0.00  0.00    +0.000 A 
BRANCH  22  32
ATOM     31  C   UNL     1      43.518   2.754  12.270  0.00  0.00    +0.000 C 
ATOM     32  O   UNL     1      43.974   3.703  13.234  0.00  0.00    +0.000 OA
ENDBRANCH  22  32
ENDBRANCH  18  29
ENDBRANCH   1  20
TORSDOF 7
ENDMDL
MODEL 5
REMARK VINA RESULT:    -6.546      1.795      2.487
REMARK INTER + INTRA:         -10.260
REMARK INTER:                  -9.222
REMARK INTRA:                  -1.038
REMARK UNBOUND:                -1.035
REMARK  Name = 
REMARK  9 active torsions:
REMARK  status: ('A' for Active; 'I' for Inactive)
REMARK    1  A    between atoms: C_1  and  O_2
REMARK    2  A    between atoms: O_2  and  C_3
REMARK    3  A    between atoms: C_10  and  C_11
REMARK    4  A    between atoms: N_13  and  C_14
REMARK    5  A    between atoms: C_14  and  C_15
REMARK    6  A    between atoms: C_18  and  N_19
REMARK    7  A    between atoms: N_19  and  C_20
REMARK    8  A    between atoms: C_20  and  C_21
REMARK    9  A    between atoms: N_24  and  C_25
REMARK                            x       y       z     vdW  Elec       q    Type
REMARK                         _______ _______ _______ _____ _____    ______ ____
ROOT
ATOM      1  C   UNL     1      47.190   8.657  13.599  0.00  0.00    +0.000 C 
ENDROOT
BRANCH   1   2
ATOM      2  C   UNL     1      46.432   7.545  12.926  0.00  0.00    +0.000 A 
ATOM      3  C   UNL     1      46.710   6.203  13.207  0.00  0.00    +0.000 A 
ATOM      4  C   UNL     1      46.019   5.176  12.547  0.00  0.00    +0.000 A 
ATOM      5  C   UNL     1      45.016   5.456  11.614  0.00  0.00    +0.000 A 
ATOM      6  C   UNL     1      44.770   6.804  11.320  0.00  0.00    +0.000 A 
ATOM      7  C   UNL     1      45.462   7.835  11.963  0.00  0.00    +0.000 A 
BRANCH   5   8
ATOM      8  N   UNL     1      44.362   4.484  10.856  0.00  0.00    +0.000 N 
ATOM      9  H   UNL     1      43.444   4.262  11.232  0.00  0.00    +0.000 HD
BRANCH   8  10
ATOM     10  C   UNL     1      45.054   3.296  10.369  0.00  0.00    +0.000 C 
BRANCH  10  11
ATOM     11  C   UNL     1      44.393   2.764   9.082  0.00  0.00    +0.000 C 
ATOM     12  C   UNL     1      44.896   1.378   8.647  0.00  0.00    +0.000 C 
ATOM     13  C   UNL     1      46.364   1.415   8.221  0.00  0.00    +0.000 C 
ATOM     14  N   UNL     1      46.592   2.388   7.144  0.00  0.00    +0.000 NA
ATOM     15  C   UNL     1      48.016   2.432   6.802  0.00  0.00    +0.000 C 
ATOM     16  C   UNL     1      46.103   3.734   7.467  0.00  0.00    +0.000 C 
ATOM     17  C   UNL     1      44.636   3.732   7.916  0.00  0.00    +0.000 C 
ENDBRANCH  10  11
ENDBRANCH   8  10
ENDBRANCH   5   8
ENDBRANCH   1   2
BRANCH   1  20
ATOM     18  C   UNL     1      48.709   8.395  15.497  0.00  0.00    +0.000 C 
ATOM     19  O   UNL     1      47.913   8.991  16.226  0.00  0.00    +0.000 OA
ATOM     20  N   UNL     1      48.428   8.186  14.175  0.00  0.00    +0.000 N 
ATOM     21  H   UNL     1      49.065   7.667  13.587  0.00  0.00    +0.000 HD
BRANCH  18  29
ATOM     22  C   UNL     1      49.778   5.334  16.694  0.00  0.00    +0.000 A 
ATOM     23  N   UNL     1      50.455   4.288  17.218  0.00  0.00    +0.000 NA
ATOM     24  C   UNL     1      51.734   4.464  17.553  0.00  0.00    +0.000 A 
ATOM     25  N   UNL     1      52.443   5.581  17.430  0.00  0.00    +0.000 NA
ATOM     26  C   UNL     1      51.735   6.601  16.919  0.00  0.00    +0.000 A 
ATOM     27  S   UNL     1      52.490   8.104  16.693  0.00  0.00    +0.000 S 
ATOM     28  C   UNL     1      51.064   8.783  16.076  0.00  0.00    +0.000 A 
ATOM     29  C   UNL     1      49.990   7.897  16.025  0.00  0.00    +0.000 A 
ATOM     30  C   UNL     1      50.398   6.585  16.528  0.00  0.00    +0.000 A 
BRANCH  22  32
ATOM     31  C   UNL     1      47.658   4.750  17.475  0.00  0.00    +0.000 C 
ATOM     32  O   UNL     1      48.454   5.143  16.357  0.00  0.00    +0.000 OA
ENDBRANCH  22  32
ENDBRANCH  18  29
ENDBRANCH   1  20
TORSDOF 7
ENDMDL
MODEL 6
REMARK VINA RESULT:    -6.530      5.560      7.240
REMARK INTER + INTRA:         -10.237
REMARK INTER:                  -9.314
REMARK INTRA:                  -0.923
REMARK UNBOUND:                -1.035
REMARK  Name = 
REMARK  9 active torsions:
REMARK  status: ('A' for Active; 'I' for Inactive)
REMARK    1  A    between atoms: C_1  and  O_2
REMARK    2  A    between atoms: O_2  and  C_3
REMARK    3  A    between atoms: C_10  and  C_11
REMARK    4  A    between atoms: N_13  and  C_14
REMARK    5  A    between atoms: C_14  and  C_15
REMARK    6  A    between atoms: C_18  and  N_19
REMARK    7  A    between atoms: N_19  and  C_20
REMARK    8  A    between atoms: C_20  and  C_21
REMARK    9  A    between atoms: N_24  and  C_25
REMARK                            x       y       z     vdW  Elec       q    Type
REMARK                         _______ _______ _______ _____ _____    ______ ____
ROOT
ATOM      1  C   UNL     1      51.402   8.428  11.946  0.00  0.00    +0.000 C 
ENDROOT
BRANCH   1   2
ATOM      2  C   UNL     1      50.046   7.907  12.339  0.00  0.00    +0.000 A 
ATOM      3  C   UNL     1      49.018   7.778  11.399  0.00  0.00    +0.000 A 
ATOM      4  C   UNL     1      47.748   7.324  11.786  0.00  0.00    +0.000 A 
ATOM      5  C   UNL     1      47.477   6.960  13.109  0.00  0.00    +0.000 A 
ATOM      6  C   UNL     1      48.507   7.125  14.045  0.00  0.00    +0.000 A 
ATOM      7  C   UNL     1      49.773   7.588  13.672  0.00  0.00    +0.000 A 
BRANCH   5   8
ATOM      8  N   UNL     1      46.214   6.595  13.575  0.00  0.00    +0.000 N 
ATOM      9  H   UNL     1      46.069   6.872  14.543  0.00  0.00    +0.000 HD
BRANCH   8  10
ATOM     10  C   UNL     1      45.640   5.284  13.291  0.00  0.00    +0.000 C 
BRANCH  10  11
ATOM     11  C   UNL     1      44.172   5.412  12.836  0.00  0.00    +0.000 C 
ATOM     12  C   UNL     1      43.371   4.104  12.930  0.00  0.00    +0.000 C 
ATOM     13  C   UNL     1      43.885   3.052  11.947  0.00  0.00    +0.000 C 
ATOM     14  N   UNL     1      43.869   3.547  10.564  0.00  0.00    +0.000 NA
ATOM     15  C   UNL     1      44.418   2.533   9.661  0.00  0.00    +0.000 C 
ATOM     16  C   UNL     1      44.583   4.819  10.396  0.00  0.00    +0.000 C 
ATOM     17  C   UNL     1      44.104   5.894  11.380  0.00  0.00    +0.000 C 
ENDBRANCH  10  11
ENDBRANCH   8  10
ENDBRANCH   5   8
ENDBRANCH   1   2
BRANCH   1  20
ATOM     18  C   UNL     1      52.900   7.576  10.212  0.00  0.00    +0.000 C 
ATOM     19  O   UNL     1      52.809   8.642   9.598  0.00  0.00    +0.000 OA
ATOM     20  N   UNL     1      52.232   7.385  11.389  0.00  0.00    +0.000 N 
ATOM     21  H   UNL     1      52.334   6.525  11.908  0.00  0.00    +0.000 HD
BRANCH  18  29
ATOM     22  C   UNL     1      53.143   6.012   7.139  0.00  0.00    +0.000 A 
ATOM     23  N   UNL     1      53.435   5.221   6.084  0.00  0.00    +0.000 NA
ATOM     24  C   UNL     1      54.371   4.282   6.234  0.00  0.00    +0.000 A 
ATOM     25  N   UNL     1      55.071   4.025   7.334  0.00  0.00    +0.000 NA
ATOM     26  C   UNL     1      54.743   4.822   8.365  0.00  0.00    +0.000 A 
ATOM     27  S   UNL     1      55.543   4.627   9.849  0.00  0.00    +0.000 S 
ATOM     28  C   UNL     1      54.644   5.881  10.553  0.00  0.00    +0.000 A 
ATOM     29  C   UNL     1      53.725   6.473   9.691  0.00  0.00    +0.000 A 
ATOM     30  C   UNL     1      53.790   5.837   8.375  0.00  0.00    +0.000 A 
BRANCH  22  32
ATOM     31  C   UNL     1      52.654   8.129   6.287  0.00  0.00    +0.000 C 
ATOM     32  O   UNL     1      52.168   6.975   6.974  0.00  0.00    +0.000 OA
ENDBRANCH  22  32
ENDBRANCH  18  29
ENDBRANCH   1  20
TORSDOF 7
ENDMDL
MODEL 7
REMARK VINA RESULT:    -6.506      2.317      4.193
REMARK INTER + INTRA:         -10.204
REMARK INTER:                  -8.981
REMARK INTRA:                  -1.223
REMARK UNBOUND:                -1.035
REMARK  Name = 
REMARK  9 active torsions:
REMARK  status: ('A' for Active; 'I' for Inactive)
REMARK    1  A    between atoms: C_1  and  O_2
REMARK    2  A    between atoms: O_2  and  C_3
REMARK    3  A    between atoms: C_10  and  C_11
REMARK    4  A    between atoms: N_13  and  C_14
REMARK    5  A    between atoms: C_14  and  C_15
REMARK    6  A    between atoms: C_18  and  N_19
REMARK    7  A    between atoms: N_19  and  C_20
REMARK    8  A    between atoms: C_20  and  C_21
REMARK    9  A    between atoms: N_24  and  C_25
REMARK                            x       y       z     vdW  Elec       q    Type
REMARK                         _______ _______ _______ _____ _____    ______ ____
ROOT
ATOM      1  C   UNL     1      48.398   3.179  18.000  0.00  0.00    +0.000 C 
ENDROOT
BRANCH   1   2
ATOM      2  C   UNL     1      48.120   4.077  16.825  0.00  0.00    +0.000 A 
ATOM      3  C   UNL     1      48.656   5.367  16.756  0.00  0.00    +0.000 A 
ATOM      4  C   UNL     1      48.362   6.206  15.670  0.00  0.00    +0.000 A 
ATOM      5  C   UNL     1      47.552   5.774  14.615  0.00  0.00    +0.000 A 
ATOM      6  C   UNL     1      46.997   4.491  14.714  0.00  0.00    +0.000 A 
ATOM      7  C   UNL     1      47.275   3.651  15.798  0.00  0.00    +0.000 A 
BRANCH   5   8
ATOM      8  N   UNL     1      47.145   6.591  13.560  0.00  0.00    +0.000 N 
ATOM      9  H   UNL     1      46.380   7.205  13.827  0.00  0.00    +0.000 HD
BRANCH   8  10
ATOM     10  C   UNL     1      46.980   6.072  12.206  0.00  0.00    +0.000 C 
BRANCH  10  11
ATOM     11  C   UNL     1      45.689   6.614  11.563  0.00  0.00    +0.000 C 
ATOM     12  C   UNL     1      44.458   6.554  12.481  0.00  0.00    +0.000 C 
ATOM     13  C   UNL     1      44.046   5.114  12.785  0.00  0.00    +0.000 C 
ATOM     14  N   UNL     1      43.785   4.354  11.555  0.00  0.00    +0.000 NA
ATOM     15  C   UNL     1      43.446   2.968  11.884  0.00  0.00    +0.000 C 
ATOM     16  C   UNL     1      44.902   4.393  10.603  0.00  0.00    +0.000 C 
ATOM     17  C   UNL     1      45.354   5.825  10.289  0.00  0.00    +0.000 C 
ENDBRANCH  10  11
ENDBRANCH   8  10
ENDBRANCH   5   8
ENDBRANCH   1   2
BRANCH   1  20
ATOM     18  C   UNL     1      50.541   2.190  17.362  0.00  0.00    +0.000 C 
ATOM     19  O   UNL     1      50.002   1.614  16.414  0.00  0.00    +0.000 OA
ATOM     20  N   UNL     1      49.815   2.988  18.202  0.00  0.00    +0.000 N 
ATOM     21  H   UNL     1      50.264   3.486  18.958  0.00  0.00    +0.000 HD
BRANCH  18  29
ATOM     22  C   UNL     1      53.155   4.405  17.814  0.00  0.00    +0.000 A 
ATOM     23  N   UNL     1      54.344   5.017  18.004  0.00  0.00    +0.000 NA
ATOM     24  C   UNL     1      55.423   4.259  18.206  0.00  0.00    +0.000 A 
ATOM     25  N   UNL     1      55.467   2.932  18.243  0.00  0.00    +0.000 NA
ATOM     26  C   UNL     1      54.270   2.358  18.037  0.00  0.00    +0.000 A 
ATOM     27  S   UNL     1      54.148   0.666  18.052  0.00  0.00    +0.000 S 
ATOM     28  C   UNL     1      52.482   0.735  17.744  0.00  0.00    +0.000 A 
ATOM     29  C   UNL     1      51.980   2.028  17.624  0.00  0.00    +0.000 A 
ATOM     30  C   UNL     1      53.057   3.002  17.805  0.00  0.00    +0.000 A 
BRANCH  22  32
ATOM     31  C   UNL     1      52.314   6.278  16.704  0.00  0.00    +0.000 C 
ATOM     32  O   UNL     1      52.047   5.199  17.599  0.00  0.00    +0.000 OA
ENDBRANCH  22  32
ENDBRANCH  18  29
ENDBRANCH   1  20
TORSDOF 7
ENDMDL
MODEL 8
REMARK VINA RESULT:    -6.371      5.737      7.512
REMARK INTER + INTRA:         -10.013
REMARK INTER:                  -8.757
REMARK INTRA:                  -1.257
REMARK UNBOUND:                -1.035
REMARK  Name = 
REMARK  9 active torsions:
REMARK  status: ('A' for Active; 'I' for Inactive)
REMARK    1  A    between atoms: C_1  and  O_2
REMARK    2  A    between atoms: O_2  and  C_3
REMARK    3  A    between atoms: C_10  and  C_11
REMARK    4  A    between atoms: N_13  and  C_14
REMARK    5  A    between atoms: C_14  and  C_15
REMARK    6  A    between atoms: C_18  and  N_19
REMARK    7  A    between atoms: N_19  and  C_20
REMARK    8  A    between atoms: C_20  and  C_21
REMARK    9  A    between atoms: N_24  and  C_25
REMARK                            x       y       z     vdW  Elec       q    Type
REMARK                         _______ _______ _______ _____ _____    ______ ____
ROOT
ATOM      1  C   UNL     1      51.372   8.482  11.896  0.00  0.00    +0.000 C 
ENDROOT
BRANCH   1   2
ATOM      2  C   UNL     1      50.046   7.912  12.322  0.00  0.00    +0.000 A 
ATOM      3  C   UNL     1      49.006   7.732  11.405  0.00  0.00    +0.000 A 
ATOM      4  C   UNL     1      47.763   7.231  11.822  0.00  0.00    +0.000 A 
ATOM      5  C   UNL     1      47.534   6.871  13.154  0.00  0.00    +0.000 A 
ATOM      6  C   UNL     1      48.575   7.086  14.067  0.00  0.00    +0.000 A 
ATOM      7  C   UNL     1      49.813   7.596  13.663  0.00  0.00    +0.000 A 
BRANCH   5   8
ATOM      8  N   UNL     1      46.295   6.460  13.648  0.00  0.00    +0.000 N 
ATOM      9  H   UNL     1      46.207   6.634  14.646  0.00  0.00    +0.000 HD
BRANCH   8  10
ATOM     10  C   UNL     1      45.698   5.187  13.261  0.00  0.00    +0.000 C 
BRANCH  10  11
ATOM     11  C   UNL     1      44.258   5.388  12.748  0.00  0.00    +0.000 C 
ATOM     12  C   UNL     1      43.393   4.119  12.796  0.00  0.00    +0.000 C 
ATOM     13  C   UNL     1      43.897   3.051  11.826  0.00  0.00    +0.000 C 
ATOM     14  N   UNL     1      43.962   3.556  10.448  0.00  0.00    +0.000 NA
ATOM     15  C   UNL     1      44.498   2.524   9.559  0.00  0.00    +0.000 C 
ATOM     16  C   UNL     1      44.741   4.794  10.322  0.00  0.00    +0.000 C 
ATOM     17  C   UNL     1      44.273   5.883  11.295  0.00  0.00    +0.000 C 
ENDBRANCH  10  11
ENDBRANCH   8  10
ENDBRANCH   5   8
ENDBRANCH   1   2
BRANCH   1  20
ATOM     18  C   UNL     1      52.585   8.809   9.799  0.00  0.00    +0.000 C 
ATOM     19  O   UNL     1      53.072   9.855  10.234  0.00  0.00    +0.000 OA
ATOM     20  N   UNL     1      51.728   8.064  10.561  0.00  0.00    +0.000 N 
ATOM     21  H   UNL     1      51.357   7.190  10.216  0.00  0.00    +0.000 HD
BRANCH  18  29
ATOM     22  C   UNL     1      53.542   5.755   8.494  0.00  0.00    +0.000 A 
ATOM     23  N   UNL     1      53.935   4.717   7.723  0.00  0.00    +0.000 NA
ATOM     24  C   UNL     1      54.079   4.919   6.412  0.00  0.00    +0.000 A 
ATOM     25  N   UNL     1      53.874   6.055   5.755  0.00  0.00    +0.000 NA
ATOM     26  C   UNL     1      53.498   7.066   6.555  0.00  0.00    +0.000 A 
ATOM     27  S   UNL     1      53.195   8.591   5.875  0.00  0.00    +0.000 S 
ATOM     28  C   UNL     1      52.813   9.245   7.393  0.00  0.00    +0.000 A 
ATOM     29  C   UNL     1      52.904   8.334   8.442  0.00  0.00    +0.000 A 
ATOM     30  C   UNL     1      53.311   7.024   7.934  0.00  0.00    +0.000 A 
BRANCH  22  32
ATOM     31  C   UNL     1      54.643   5.643  10.548  0.00  0.00    +0.000 C 
ATOM     32  O   UNL     1      53.403   5.536   9.849  0.00  0.00    +0.000 OA
ENDBRANCH  22  32
ENDBRANCH  18  29
ENDBRANCH   1  20
TORSDOF 7
ENDMDL
MODEL 9
REMARK VINA RESULT:    -6.069      1.788      2.771
REMARK INTER + INTRA:          -9.588
REMARK INTER:                  -8.383
REMARK INTRA:                  -1.205
REMARK UNBOUND:                -1.035
REMARK  Name = 
REMARK  9 active torsions:
REMARK  status: ('A' for Active; 'I' for Inactive)
REMARK    1  A    between atoms: C_1  and  O_2
REMARK    2  A    between atoms: O_2  and  C_3
REMARK    3  A    between atoms: C_10  and  C_11
REMARK    4  A    between atoms: N_13  and  C_14
REMARK    5  A    between atoms: C_14  and  C_15
REMARK    6  A    between atoms: C_18  and  N_19
REMARK    7  A    between atoms: N_19  and  C_20
REMARK    8  A    between atoms: C_20  and  C_21
REMARK    9  A    between atoms: N_24  and  C_25
REMARK                            x       y       z     vdW  Elec       q    Type
REMARK                         _______ _______ _______ _____ _____    ______ ____
ROOT
ATOM      1  C   UNL     1      49.302   7.387  17.766  0.00  0.00    +0.000 C 
ENDROOT
BRANCH   1   2
ATOM      2  C   UNL     1      48.778   7.491  16.360  0.00  0.00    +0.000 A 
ATOM      3  C   UNL     1      48.344   8.713  15.836  0.00  0.00    +0.000 A 
ATOM      4  C   UNL     1      47.826   8.790  14.534  0.00  0.00    +0.000 A 
ATOM      5  C   UNL     1      47.753   7.660  13.712  0.00  0.00    +0.000 A 
ATOM      6  C   UNL     1      48.163   6.438  14.261  0.00  0.00    +0.000 A 
ATOM      7  C   UNL     1      48.669   6.349  15.562  0.00  0.00    +0.000 A 
BRANCH   5   8
ATOM      8  N   UNL     1      47.161   7.652  12.449  0.00  0.00    +0.000 N 
ATOM      9  H   UNL     1      46.584   8.475  12.293  0.00  0.00    +0.000 HD
BRANCH   8  10
ATOM     10  C   UNL     1      46.555   6.448  11.892  0.00  0.00    +0.000 C 
BRANCH  10  11
ATOM     11  C   UNL     1      45.198   6.155  12.562  0.00  0.00    +0.000 C 
ATOM     12  C   UNL     1      45.113   4.773  13.229  0.00  0.00    +0.000 C 
ATOM     13  C   UNL     1      45.176   3.643  12.201  0.00  0.00    +0.000 C 
ATOM     14  N   UNL     1      44.120   3.771  11.188  0.00  0.00    +0.000 NA
ATOM     15  C   UNL     1      44.246   2.703  10.194  0.00  0.00    +0.000 C 
ATOM     16  C   UNL     1      44.107   5.083  10.529  0.00  0.00    +0.000 C 
ATOM     17  C   UNL     1      44.063   6.242  11.532  0.00  0.00    +0.000 C 
ENDBRANCH  10  11
ENDBRANCH   8  10
ENDBRANCH   5   8
ENDBRANCH   1   2
BRANCH   1  20
ATOM     18  C   UNL     1      51.454   6.228  17.824  0.00  0.00    +0.000 C 
ATOM     19  O   UNL     1      52.036   7.278  17.543  0.00  0.00    +0.000 OA
ATOM     20  N   UNL     1      50.093   6.193  17.953  0.00  0.00    +0.000 N 
ATOM     21  H   UNL     1      49.620   5.340  18.216  0.00  0.00    +0.000 HD
BRANCH  18  29
ATOM     22  C   UNL     1      50.706   2.888  17.343  0.00  0.00    +0.000 A 
ATOM     23  N   UNL     1      50.691   1.539  17.274  0.00  0.00    +0.000 NA
ATOM     24  C   UNL     1      51.789   0.872  17.633  0.00  0.00    +0.000 A 
ATOM     25  N   UNL     1      52.932   1.395  18.064  0.00  0.00    +0.000 NA
ATOM     26  C   UNL     1      52.905   2.736  18.133  0.00  0.00    +0.000 A 
ATOM     27  S   UNL     1      54.286   3.567  18.664  0.00  0.00    +0.000 S 
ATOM     28  C   UNL     1      53.515   5.066  18.483  0.00  0.00    +0.000 A 
ATOM     29  C   UNL     1      52.205   4.977  18.019  0.00  0.00    +0.000 A 
ATOM     30  C   UNL     1      51.843   3.575  17.805  0.00  0.00    +0.000 A 
BRANCH  22  32
ATOM     31  C   UNL     1      48.490   2.686  16.641  0.00  0.00    +0.000 C 
ATOM     32  O   UNL     1      49.562   3.567  16.976  0.00  0.00    +0.000 OA
ENDBRANCH  22  32
ENDBRANCH  18  29
ENDBRANCH   1  20
TORSDOF 7
ENDMDL
