MODEL 1
REMARK VINA RESULT:    -6.964      0.000      0.000
REMARK INTER + INTRA:          -9.428
REMARK INTER:                  -8.796
REMARK INTRA:                  -0.632
REMARK UNBOUND:                -0.632
REMARK  Name = 
REMARK  5 active torsions:
REMARK  status: ('A' for Active; 'I' for Inactive)
REMARK    1  A    between atoms: N_1  and  C_2
REMARK    2  A    between atoms: C_2  and  C_3
REMARK    3  A    between atoms: C_6  and  O_7
REMARK    4  A    between atoms: O_7  and  C_8
REMARK    5  A    between atoms: C_8  and  C_9
REMARK                            x       y       z     vdW  Elec       q    Type
REMARK                         _______ _______ _______ _____ _____    ______ ____
ROOT
ATOM      1  C   UNL     1      46.552   2.269   7.634  0.00  0.00    +0.000 A 
ATOM      2  C   UNL     1      45.691   1.539   8.466  0.00  0.00    +0.000 A 
ATOM      3  C   UNL     1      44.717   2.192   9.228  0.00  0.00    +0.000 A 
ATOM      4  C   UNL     1      44.600   3.581   9.174  0.00  0.00    +0.000 A 
ATOM      5  C   UNL     1      45.408   4.305   8.294  0.00  0.00    +0.000 A 
ATOM      6  C   UNL     1      46.385   3.654   7.540  0.00  0.00    +0.000 A 
ENDROOT
BRANCH   1   7
ATOM      7  C   UNL     1      47.660   1.586   6.874  0.00  0.00    +0.000 C 
BRANCH   7   8
ATOM      8  N   UNL     1      48.624   2.539   6.339  0.00  0.00    +0.000 NA
ATOM      9  H   UNL     1      48.759   2.349   5.348  0.00  0.00    +0.000 HD
ATOM     10  H   UNL     1      49.523   2.379   6.789  0.00  0.00    +0.000 HD
ENDBRANCH   7   8
ENDBRANCH   1   7
BRANCH   4  11
ATOM     11  O   UNL     1      43.681   4.140  10.025  0.00  0.00    +0.000 OA
BRANCH  11  12
ATOM     12  C   UNL     1      43.762   3.663  11.370  0.00  0.00    +0.000 C 
BRANCH  12  13
ATOM     13  C   UNL     1      44.910   4.291  12.122  0.00  0.00    +0.000 A 
ATOM     14  C   UNL     1      45.074   5.674  12.205  0.00  0.00    +0.000 A 
ATOM     15  C   UNL     1      46.103   6.175  12.986  0.00  0.00    +0.000 A 
ATOM     16  N   UNL     1      46.961   5.402  13.688  0.00  0.00    +0.000 NA
ATOM     17  C   UNL     1      46.778   4.068  13.606  0.00  0.00    +0.000 A 
ATOM     18  C   UNL     1      45.781   3.473  12.851  0.00  0.00    +0.000 A 
ENDBRANCH  12  13
ENDBRANCH  11  12
ENDBRANCH   4  11
TORSDOF 5
ENDMDL
MODEL 2
REMARK VINA RESULT:    -6.772      1.234      5.838
REMARK INTER + INTRA:          -9.185
REMARK INTER:                  -8.674
REMARK INTRA:                  -0.511
REMARK UNBOUND:                -0.632
REMARK  Name = 
REMARK  5 active torsions:
REMARK  status: ('A' for Active; 'I' for Inactive)
REMARK    1  A    between atoms: N_1  and  C_2
REMARK    2  A    between atoms: C_2  and  C_3
REMARK    3  A    between atoms: C_6  and  O_7
REMARK    4  A    between atoms: O_7  and  C_8
REMARK    5  A    between atoms: C_8  and  C_9
REMARK                            x       y       z     vdW  Elec       q    Type
REMARK                         _______ _______ _______ _____ _____    ______ ____
ROOT
ATOM      1  C   UNL     1      46.294   4.926  13.045  0.00  0.00    +0.000 A 
ATOM      2  C   UNL     1      46.496   5.956  12.114  0.00  0.00    +0.000 A 
ATOM      3  C   UNL     1      45.970   5.857  10.822  0.00  0.00    +0.000 A 
ATOM      4  C   UNL     1      45.247   4.726  10.444  0.00  0.00    +0.000 A 
ATOM      5  C   UNL     1      44.983   3.732  11.388  0.00  0.00    +0.000 A 
ATOM      6  C   UNL     1      45.514   3.826  12.675  0.00  0.00    +0.000 A 
ENDROOT
BRANCH   1   7
ATOM      7  C   UNL     1      46.926   4.982  14.412  0.00  0.00    +0.000 C 
BRANCH   7   8
ATOM      8  N   UNL     1      47.320   3.661  14.885  0.00  0.00    +0.000 NA
ATOM      9  H   UNL     1      46.534   3.241  15.378  0.00  0.00    +0.000 HD
ATOM     10  H   UNL     1      48.066   3.770  15.570  0.00  0.00    +0.000 HD
ENDBRANCH   7   8
ENDBRANCH   1   7
BRANCH   4  11
ATOM     11  O   UNL     1      44.852   4.677   9.131  0.00  0.00    +0.000 OA
BRANCH  11  12
ATOM     12  C   UNL     1      44.545   3.361   8.662  0.00  0.00    +0.000 C 
BRANCH  12  13
ATOM     13  C   UNL     1      45.754   2.677   8.075  0.00  0.00    +0.000 A 
ATOM     14  C   UNL     1      45.979   1.307   8.225  0.00  0.00    +0.000 A 
ATOM     15  C   UNL     1      47.066   0.739   7.583  0.00  0.00    +0.000 A 
ATOM     16  N   UNL     1      47.928   1.430   6.805  0.00  0.00    +0.000 NA
ATOM     17  C   UNL     1      47.687   2.749   6.660  0.00  0.00    +0.000 A 
ATOM     18  C   UNL     1      46.629   3.408   7.263  0.00  0.00    +0.000 A 
ENDBRANCH  12  13
ENDBRANCH  11  12
ENDBRANCH   4  11
TORSDOF 5
ENDMDL
MODEL 3
REMARK VINA RESULT:    -5.584      1.246      5.774
REMARK INTER + INTRA:          -7.685
REMARK INTER:                  -7.203
REMARK INTRA:                  -0.481
REMARK UNBOUND:                -0.632
REMARK  Name = 
REMARK  5 active torsions:
REMARK  status: ('A' for Active; 'I' for Inactive)
REMARK    1  A    between atoms: N_1  and  C_2
REMARK    2  A    between atoms: C_2  and  C_3
REMARK    3  A    between atoms: C_6  and  O_7
REMARK    4  A    between atoms: O_7  and  C_8
REMARK    5  A    between atoms: C_8  and  C_9
REMARK                            x       y       z     vdW  Elec       q    Type
REMARK                         _______ _______ _______ _____ _____    ______ ____
ROOT
ATOM      1  C   UNL     1      45.199   4.938  12.443  0.00  0.00    +0.000 A 
ATOM      2  C   UNL     1      44.420   5.508  11.425  0.00  0.00    +0.000 A 
ATOM      3  C   UNL     1      44.030   4.746  10.319  0.00  0.00    +0.000 A 
ATOM      4  C   UNL     1      44.423   3.412  10.213  0.00  0.00    +0.000 A 
ATOM      5  C   UNL     1      45.139   2.821  11.257  0.00  0.00    +0.000 A 
ATOM      6  C   UNL     1      45.534   3.583  12.357  0.00  0.00    +0.000 A 
ENDROOT
BRANCH   1   7
ATOM      7  C   UNL     1      45.696   5.770  13.597  0.00  0.00    +0.000 C 
BRANCH   7   8
ATOM      8  N   UNL     1      46.096   7.106  13.175  0.00  0.00    +0.000 NA
ATOM      9  H   UNL     1      45.978   7.180  12.166  0.00  0.00    +0.000 HD
ATOM     10  H   UNL     1      47.091   7.221  13.359  0.00  0.00    +0.000 HD
ENDBRANCH   7   8
ENDBRANCH   1   7
BRANCH   4  11
ATOM     11  O   UNL     1      44.073   2.773   9.051  0.00  0.00    +0.000 OA
BRANCH  11  12
ATOM     12  C   UNL     1      44.589   3.388   7.867  0.00  0.00    +0.000 C 
BRANCH  12  13
ATOM     13  C   UNL     1      45.831   2.693   7.367  0.00  0.00    +0.000 A 
ATOM     14  C   UNL     1      46.741   3.320   6.515  0.00  0.00    +0.000 A 
ATOM     15  C   UNL     1      47.901   2.646   6.170  0.00  0.00    +0.000 A 
ATOM     16  N   UNL     1      48.216   1.410   6.618  0.00  0.00    +0.000 NA
ATOM     17  C   UNL     1      47.331   0.826   7.451  0.00  0.00    +0.000 A 
ATOM     18  C   UNL     1      46.145   1.418   7.852  0.00  0.00    +0.000 A 
ENDBRANCH  12  13
ENDBRANCH  11  12
ENDBRANCH   4  11
TORSDOF 5
ENDMDL
MODEL 4
REMARK VINA RESULT:    -5.432      1.739      5.531
REMARK INTER + INTRA:          -7.492
REMARK INTER:                  -6.991
REMARK INTRA:                  -0.502
REMARK UNBOUND:                -0.632
REMARK  Name = 
REMARK  5 active torsions:
REMARK  status: ('A' for Active; 'I' for Inactive)
REMARK    1  A    between atoms: N_1  and  C_2
REMARK    2  A    between atoms: C_2  and  C_3
REMARK    3  A    between atoms: C_6  and  O_7
REMARK    4  A    between atoms: O_7  and  C_8
REMARK    5  A    between atoms: C_8  and  C_9
REMARK                            x       y       z     vdW  Elec       q    Type
REMARK                         _______ _______ _______ _____ _____    ______ ____
ROOT
ATOM      1  C   UNL     1      47.735   6.465  13.040  0.00  0.00    +0.000 A 
ATOM      2  C   UNL     1      47.259   5.272  13.604  0.00  0.00    +0.000 A 
ATOM      3  C   UNL     1      46.121   4.647  13.087  0.00  0.00    +0.000 A 
ATOM      4  C   UNL     1      45.439   5.212  12.009  0.00  0.00    +0.000 A 
ATOM      5  C   UNL     1      45.949   6.361  11.399  0.00  0.00    +0.000 A 
ATOM      6  C   UNL     1      47.080   6.989  11.921  0.00  0.00    +0.000 A 
ENDROOT
BRANCH   1   7
ATOM      7  C   UNL     1      48.910   7.193  13.640  0.00  0.00    +0.000 C 
BRANCH   7   8
ATOM      8  N   UNL     1      48.987   8.575  13.185  0.00  0.00    +0.000 NA
ATOM      9  H   UNL     1      48.875   8.594  12.173  0.00  0.00    +0.000 HD
ATOM     10  H   UNL     1      49.921   8.930  13.379  0.00  0.00    +0.000 HD
ENDBRANCH   7   8
ENDBRANCH   1   7
BRANCH   4  11
ATOM     11  O   UNL     1      44.282   4.580  11.631  0.00  0.00    +0.000 OA
BRANCH  11  12
ATOM     12  C   UNL     1      43.932   4.771  10.258  0.00  0.00    +0.000 C 
BRANCH  12  13
ATOM     13  C   UNL     1      44.708   3.853   9.346  0.00  0.00    +0.000 A 
ATOM     14  C   UNL     1      45.578   4.338   8.368  0.00  0.00    +0.000 A 
ATOM     15  C   UNL     1      46.319   3.430   7.630  0.00  0.00    +0.000 A 
ATOM     16  N   UNL     1      46.262   2.092   7.804  0.00  0.00    +0.000 NA
ATOM     17  C   UNL     1      45.427   1.643   8.763  0.00  0.00    +0.000 A 
ATOM     18  C   UNL     1      44.644   2.470   9.550  0.00  0.00    +0.000 A 
ENDBRANCH  12  13
ENDBRANCH  11  12
ENDBRANCH   4  11
TORSDOF 5
ENDMDL
MODEL 5
REMARK VINA RESULT:    -5.177      3.971      7.948
REMARK INTER + INTRA:          -7.171
REMARK INTER:                  -6.864
REMARK INTRA:                  -0.307
REMARK UNBOUND:                -0.632
REMARK  Name = 
REMARK  5 active torsions:
REMARK  status: ('A' for Active; 'I' for Inactive)
REMARK    1  A    between atoms: N_1  and  C_2
REMARK    2  A    between atoms: C_2  and  C_3
REMARK    3  A    between atoms: C_6  and  O_7
REMARK    4  A    between atoms: O_7  and  C_8
REMARK    5  A    between atoms: C_8  and  C_9
REMARK                            x       y       z     vdW  Elec       q    Type
REMARK                         _______ _______ _______ _____ _____    ______ ____
ROOT
ATOM      1  C   UNL     1      48.721   4.329  18.293  0.00  0.00    +0.000 A 
ATOM      2  C   UNL     1      48.504   3.036  17.793  0.00  0.00    +0.000 A 
ATOM      3  C   UNL     1      47.917   2.850  16.538  0.00  0.00    +0.000 A 
ATOM      4  C   UNL     1      47.529   3.952  15.775  0.00  0.00    +0.000 A 
ATOM      5  C   UNL     1      47.807   5.240  16.238  0.00  0.00    +0.000 A 
ATOM      6  C   UNL     1      48.386   5.426  17.493  0.00  0.00    +0.000 A 
ENDROOT
BRANCH   1   7
ATOM      7  C   UNL     1      49.275   4.542  19.678  0.00  0.00    +0.000 C 
BRANCH   7   8
ATOM      8  N   UNL     1      48.455   3.903  20.699  0.00  0.00    +0.000 NA
ATOM      9  H   UNL     1      48.042   3.059  20.306  0.00  0.00    +0.000 HD
ATOM     10  H   UNL     1      47.682   4.522  20.930  0.00  0.00    +0.000 HD
ENDBRANCH   7   8
ENDBRANCH   1   7
BRANCH   4  11
ATOM     11  O   UNL     1      46.877   3.671  14.602  0.00  0.00    +0.000 OA
BRANCH  11  12
ATOM     12  C   UNL     1      46.369   4.824  13.924  0.00  0.00    +0.000 C 
BRANCH  12  13
ATOM     13  C   UNL     1      45.223   4.477  13.006  0.00  0.00    +0.000 A 
ATOM     14  C   UNL     1      45.206   3.302  12.251  0.00  0.00    +0.000 A 
ATOM     15  C   UNL     1      44.080   3.014  11.498  0.00  0.00    +0.000 A 
ATOM     16  N   UNL     1      42.981   3.799  11.454  0.00  0.00    +0.000 NA
ATOM     17  C   UNL     1      43.011   4.922  12.201  0.00  0.00    +0.000 A 
ATOM     18  C   UNL     1      44.090   5.297  12.983  0.00  0.00    +0.000 A 
ENDBRANCH  12  13
ENDBRANCH  11  12
ENDBRANCH   4  11
TORSDOF 5
ENDMDL
MODEL 6
REMARK VINA RESULT:    -4.924      2.946      4.342
REMARK INTER + INTRA:          -6.851
REMARK INTER:                  -6.537
REMARK INTRA:                  -0.313
REMARK UNBOUND:                -0.632
REMARK  Name = 
REMARK  5 active torsions:
REMARK  status: ('A' for Active; 'I' for Inactive)
REMARK    1  A    between atoms: N_1  and  C_2
REMARK    2  A    between atoms: C_2  and  C_3
REMARK    3  A    between atoms: C_6  and  O_7
REMARK    4  A    between atoms: O_7  and  C_8
REMARK    5  A    between atoms: C_8  and  C_9
REMARK                            x       y       z     vdW  Elec       q    Type
REMARK                         _______ _______ _______ _____ _____    ______ ____
ROOT
ATOM      1  C   UNL     1      45.068   4.359   9.981  0.00  0.00    +0.000 A 
ATOM      2  C   UNL     1      44.835   3.422  10.998  0.00  0.00    +0.000 A 
ATOM      3  C   UNL     1      45.189   3.708  12.321  0.00  0.00    +0.000 A 
ATOM      4  C   UNL     1      45.788   4.926  12.638  0.00  0.00    +0.000 A 
ATOM      5  C   UNL     1      45.957   5.890  11.641  0.00  0.00    +0.000 A 
ATOM      6  C   UNL     1      45.612   5.602  10.320  0.00  0.00    +0.000 A 
ENDROOT
BRANCH   1   7
ATOM      7  C   UNL     1      44.769   4.030   8.541  0.00  0.00    +0.000 C 
BRANCH   7   8
ATOM      8  N   UNL     1      45.921   4.261   7.678  0.00  0.00    +0.000 NA
ATOM      9  H   UNL     1      45.625   4.177   6.707  0.00  0.00    +0.000 HD
ATOM     10  H   UNL     1      46.600   3.520   7.837  0.00  0.00    +0.000 HD
ENDBRANCH   7   8
ENDBRANCH   1   7
BRANCH   4  11
ATOM     11  O   UNL     1      46.185   5.080  13.942  0.00  0.00    +0.000 OA
BRANCH  11  12
ATOM     12  C   UNL     1      46.935   3.977  14.459  0.00  0.00    +0.000 C 
BRANCH  12  13
ATOM     13  C   UNL     1      47.499   4.273  15.827  0.00  0.00    +0.000 A 
ATOM     14  C   UNL     1      47.458   3.340  16.865  0.00  0.00    +0.000 A 
ATOM     15  C   UNL     1      48.075   3.654  18.064  0.00  0.00    +0.000 A 
ATOM     16  N   UNL     1      48.729   4.814  18.294  0.00  0.00    +0.000 NA
ATOM     17  C   UNL     1      48.771   5.697  17.275  0.00  0.00    +0.000 A 
ATOM     18  C   UNL     1      48.183   5.475  16.041  0.00  0.00    +0.000 A 
ENDBRANCH  12  13
ENDBRANCH  11  12
ENDBRANCH   4  11
TORSDOF 5
ENDMDL
MODEL 7
REMARK VINA RESULT:    -4.811      2.290      5.925
REMARK INTER + INTRA:          -6.709
REMARK INTER:                  -6.148
REMARK INTRA:                  -0.560
REMARK UNBOUND:                -0.632
REMARK  Name = 
REMARK  5 active torsions:
REMARK  status: ('A' for Active; 'I' for Inactive)
REMARK    1  A    between atoms: N_1  and  C_2
REMARK    2  A    between atoms: C_2  and  C_3
REMARK    3  A    between atoms: C_6  and  O_7
REMARK    4  A    between atoms: O_7  and  C_8
REMARK    5  A    between atoms: C_8  and  C_9
REMARK                            x       y       z     vdW  Elec       q    Type
REMARK                         _______ _______ _______ _____ _____    ______ ____
ROOT
ATOM      1  C   UNL     1      47.509   8.186  12.623  0.00  0.00    +0.000 A 
ATOM      2  C   UNL     1      46.146   8.447  12.419  0.00  0.00    +0.000 A 
ATOM      3  C   UNL     1      45.229   7.396  12.320  0.00  0.00    +0.000 A 
ATOM      4  C   UNL     1      45.666   6.074  12.410  0.00  0.00    +0.000 A 
ATOM      5  C   UNL     1      47.011   5.812  12.683  0.00  0.00    +0.000 A 
ATOM      6  C   UNL     1      47.926   6.861  12.775  0.00  0.00    +0.000 A 
ENDROOT
BRANCH   1   7
ATOM      7  C   UNL     1      48.518   9.306  12.648  0.00  0.00    +0.000 C 
BRANCH   7   8
ATOM      8  N   UNL     1      49.388   9.283  11.480  0.00  0.00    +0.000 NA
ATOM      9  H   UNL     1      49.421  10.217  11.076  0.00  0.00    +0.000 HD
ATOM     10  H   UNL     1      48.971   8.678  10.775  0.00  0.00    +0.000 HD
ENDBRANCH   7   8
ENDBRANCH   1   7
BRANCH   4  11
ATOM     11  O   UNL     1      44.712   5.110  12.207  0.00  0.00    +0.000 OA
BRANCH  11  12
ATOM     12  C   UNL     1      44.103   5.153  10.913  0.00  0.00    +0.000 C 
BRANCH  12  13
ATOM     13  C   UNL     1      44.778   4.216   9.943  0.00  0.00    +0.000 A 
ATOM     14  C   UNL     1      44.576   2.835   9.982  0.00  0.00    +0.000 A 
ATOM     15  C   UNL     1      45.162   2.050   9.003  0.00  0.00    +0.000 A 
ATOM     16  N   UNL     1      45.918   2.541   7.996  0.00  0.00    +0.000 NA
ATOM     17  C   UNL     1      46.090   3.878   7.967  0.00  0.00    +0.000 A 
ATOM     18  C   UNL     1      45.547   4.745   8.900  0.00  0.00    +0.000 A 
ENDBRANCH  12  13
ENDBRANCH  11  12
ENDBRANCH   4  11
TORSDOF 5
ENDMDL
MODEL 8
REMARK VINA RESULT:    -4.794      4.084      6.195
REMARK INTER + INTRA:          -6.687
REMARK INTER:                  -6.270
REMARK INTRA:                  -0.417
REMARK UNBOUND:                -0.632
REMARK  Name = 
REMARK  5 active torsions:
REMARK  status: ('A' for Active; 'I' for Inactive)
REMARK    1  A    between atoms: N_1  and  C_2
REMARK    2  A    between atoms: C_2  and  C_3
REMARK    3  A    between atoms: C_6  and  O_7
REMARK    4  A    between atoms: O_7  and  C_8
REMARK    5  A    between atoms: C_8  and  C_9
REMARK                            x       y       z     vdW  Elec       q    Type
REMARK                         _______ _______ _______ _____ _____    ______ ____
ROOT
ATOM      1  C   UNL     1      45.469   5.688  12.154  0.00  0.00    +0.000 A 
ATOM      2  C   UNL     1      46.469   6.157  13.019  0.00  0.00    +0.000 A 
ATOM      3  C   UNL     1      47.165   5.269  13.846  0.00  0.00    +0.000 A 
ATOM      4  C   UNL     1      46.862   3.908  13.825  0.00  0.00    +0.000 A 
ATOM      5  C   UNL     1      45.917   3.427  12.915  0.00  0.00    +0.000 A 
ATOM      6  C   UNL     1      45.218   4.314  12.096  0.00  0.00    +0.000 A 
ENDROOT
BRANCH   1   7
ATOM      7  C   UNL     1      44.654   6.644  11.321  0.00  0.00    +0.000 C 
BRANCH   7   8
ATOM      8  N   UNL     1      43.513   5.988  10.697  0.00  0.00    +0.000 NA
ATOM      9  H   UNL     1      43.835   5.478   9.876  0.00  0.00    +0.000 HD
ATOM     10  H   UNL     1      42.871   6.702  10.359  0.00  0.00    +0.000 HD
ENDBRANCH   7   8
ENDBRANCH   1   7
BRANCH   4  11
ATOM     11  O   UNL     1      47.530   3.129  14.736  0.00  0.00    +0.000 OA
BRANCH  11  12
ATOM     12  C   UNL     1      47.362   3.544  16.094  0.00  0.00    +0.000 C 
BRANCH  12  13
ATOM     13  C   UNL     1      48.684   3.692  16.804  0.00  0.00    +0.000 A 
ATOM     14  C   UNL     1      49.492   2.595  17.108  0.00  0.00    +0.000 A 
ATOM     15  C   UNL     1      50.731   2.821  17.683  0.00  0.00    +0.000 A 
ATOM     16  N   UNL     1      51.219   4.050  17.964  0.00  0.00    +0.000 NA
ATOM     17  C   UNL     1      50.430   5.098  17.651  0.00  0.00    +0.000 A 
ATOM     18  C   UNL     1      49.177   4.974  17.076  0.00  0.00    +0.000 A 
ENDBRANCH  12  13
ENDBRANCH  11  12
ENDBRANCH   4  11
TORSDOF 5
ENDMDL
MODEL 9
REMARK VINA RESULT:    -4.744      3.771      5.588
REMARK INTER + INTRA:          -6.624
REMARK INTER:                  -6.201
REMARK INTRA:                  -0.423
REMARK UNBOUND:                -0.632
REMARK  Name = 
REMARK  5 active torsions:
REMARK  status: ('A' for Active; 'I' for Inactive)
REMARK    1  A    between atoms: N_1  and  C_2
REMARK    2  A    between atoms: C_2  and  C_3
REMARK    3  A    between atoms: C_6  and  O_7
REMARK    4  A    between atoms: O_7  and  C_8
REMARK    5  A    between atoms: C_8  and  C_9
REMARK                            x       y       z     vdW  Elec       q    Type
REMARK                         _______ _______ _______ _____ _____    ______ ____
ROOT
ATOM      1  C   UNL     1      44.777   3.912  11.347  0.00  0.00    +0.000 A 
ATOM      2  C   UNL     1      45.161   5.089  10.686  0.00  0.00    +0.000 A 
ATOM      3  C   UNL     1      46.023   6.001  11.303  0.00  0.00    +0.000 A 
ATOM      4  C   UNL     1      46.500   5.753  12.590  0.00  0.00    +0.000 A 
ATOM      5  C   UNL     1      46.177   4.551  13.224  0.00  0.00    +0.000 A 
ATOM      6  C   UNL     1      45.311   3.644  12.611  0.00  0.00    +0.000 A 
ENDROOT
BRANCH   1   7
ATOM      7  C   UNL     1      43.783   2.964  10.727  0.00  0.00    +0.000 C 
BRANCH   7   8
ATOM      8  N   UNL     1      43.090   2.167  11.731  0.00  0.00    +0.000 NA
ATOM      9  H   UNL     1      42.086   2.304  11.623  0.00  0.00    +0.000 HD
ATOM     10  H   UNL     1      43.332   2.522  12.653  0.00  0.00    +0.000 HD
ENDBRANCH   7   8
ENDBRANCH   1   7
BRANCH   4  11
ATOM     11  O   UNL     1      47.262   6.746  13.150  0.00  0.00    +0.000 OA
BRANCH  11  12
ATOM     12  C   UNL     1      48.654   6.668  12.828  0.00  0.00    +0.000 C 
BRANCH  12  13
ATOM     13  C   UNL     1      49.143   7.919  12.141  0.00  0.00    +0.000 A 
ATOM     14  C   UNL     1      48.328   9.038  11.967  0.00  0.00    +0.000 A 
ATOM     15  C   UNL     1      48.877  10.179  11.405  0.00  0.00    +0.000 A 
ATOM     16  N   UNL     1      50.167  10.282  11.018  0.00  0.00    +0.000 NA
ATOM     17  C   UNL     1      50.943   9.195  11.207  0.00  0.00    +0.000 A 
ATOM     18  C   UNL     1      50.486   8.010  11.759  0.00  0.00    +0.000 A 
ENDBRANCH  12  13
ENDBRANCH  11  12
ENDBRANCH   4  11
TORSDOF 5
ENDMDL
