MODEL 1
REMARK VINA RESULT:    -7.922      0.000      0.000
REMARK INTER + INTRA:         -12.095
REMARK INTER:                 -10.701
REMARK INTRA:                  -1.394
REMARK UNBOUND:                -1.394
REMARK  Name = 
REMARK  7 active torsions:
REMARK  status: ('A' for Active; 'I' for Inactive)
REMARK    1  A    between atoms: C_1  and  O_2
REMARK    2  A    between atoms: O_2  and  C_3
REMARK    3  A    between atoms: C_5  and  C_6
REMARK    4  A    between atoms: C_11  and  O_12
REMARK    5  A    between atoms: O_12  and  C_13
REMARK    6  A    between atoms: C_13  and  C_14
REMARK    7  A    between atoms: C_18  and  C_19
REMARK                            x       y       z     vdW  Elec       q    Type
REMARK                         _______ _______ _______ _____ _____    ______ ____
ROOT
ATOM      1  O   UNL     1      44.465   6.760  12.738  0.00  0.00    +0.000 OA
ENDROOT
BRANCH   1   7
ATOM      2  C   UNL     1      46.777   6.020  13.368  0.00  0.00    +0.000 A 
ATOM      3  C   UNL     1      48.145   6.312  13.254  0.00  0.00    +0.000 A 
ATOM      4  C   UNL     1      48.605   7.424  12.534  0.00  0.00    +0.000 A 
ATOM      5  C   UNL     1      47.673   8.256  11.908  0.00  0.00    +0.000 A 
ATOM      6  C   UNL     1      46.303   7.972  12.015  0.00  0.00    +0.000 A 
ATOM      7  C   UNL     1      45.839   6.863  12.740  0.00  0.00    +0.000 A 
BRANCH   4   8
ATOM      8  C   UNL     1      50.079   7.636  12.481  0.00  0.00    +0.000 C 
ATOM      9  N   UNL     1      50.779   7.714  13.650  0.00  0.00    +0.000 N 
ATOM     10  O   UNL     1      50.674   7.742  11.409  0.00  0.00    +0.000 OA
ATOM     11  H   UNL     1      50.380   7.668  14.573  0.00  0.00    +0.000 HD
ATOM     12  H   UNL     1      51.775   7.872  13.572  0.00  0.00    +0.000 HD
ENDBRANCH   4   8
BRANCH   2  14
ATOM     13  C   UNL     1      46.678   3.634  13.488  0.00  0.00    +0.000 C 
ATOM     14  O   UNL     1      46.334   4.905  14.026  0.00  0.00    +0.000 OA
ENDBRANCH   2  14
ENDBRANCH   1   7
BRANCH   1  15
ATOM     15  C   UNL     1      43.846   6.392  11.506  0.00  0.00    +0.000 C 
BRANCH  15  16
ATOM     16  C   UNL     1      44.033   4.929  11.162  0.00  0.00    +0.000 A 
ATOM     17  C   UNL     1      43.256   3.973  11.829  0.00  0.00    +0.000 A 
ATOM     18  C   UNL     1      43.314   2.634  11.461  0.00  0.00    +0.000 A 
ATOM     19  C   UNL     1      44.129   2.240  10.400  0.00  0.00    +0.000 A 
ATOM     20  C   UNL     1      44.890   3.173   9.670  0.00  0.00    +0.000 A 
ATOM     21  C   UNL     1      44.842   4.519  10.091  0.00  0.00    +0.000 A 
BRANCH  20  22
ATOM     22  C   UNL     1      45.632   2.776   8.450  0.00  0.00    +0.000 A 
ATOM     23  C   UNL     1      45.877   3.706   7.420  0.00  0.00    +0.000 A 
ATOM     24  C   UNL     1      46.648   3.376   6.302  0.00  0.00    +0.000 A 
ATOM     25  C   UNL     1      47.200   2.106   6.190  0.00  0.00    +0.000 A 
ATOM     26  C   UNL     1      46.963   1.161   7.183  0.00  0.00    +0.000 A 
ATOM     27  C   UNL     1      46.178   1.490   8.296  0.00  0.00    +0.000 A 
ENDBRANCH  20  22
ENDBRANCH  15  16
ENDBRANCH   1  15
TORSDOF 6
ENDMDL
MODEL 2
REMARK VINA RESULT:    -7.459      1.144      2.184
REMARK INTER + INTRA:         -11.470
REMARK INTER:                 -10.448
REMARK INTRA:                  -1.022
REMARK UNBOUND:                -1.394
REMARK  Name = 
REMARK  7 active torsions:
REMARK  status: ('A' for Active; 'I' for Inactive)
REMARK    1  A    between atoms: C_1  and  O_2
REMARK    2  A    between atoms: O_2  and  C_3
REMARK    3  A    between atoms: C_5  and  C_6
REMARK    4  A    between atoms: C_11  and  O_12
REMARK    5  A    between atoms: O_12  and  C_13
REMARK    6  A    between atoms: C_13  and  C_14
REMARK    7  A    between atoms: C_18  and  C_19
REMARK                            x       y       z     vdW  Elec       q    Type
REMARK                         _______ _______ _______ _____ _____    ______ ____
ROOT
ATOM      1  O   UNL     1      44.745   6.959  12.668  0.00  0.00    +0.000 OA
ENDROOT
BRANCH   1   7
ATOM      2  C   UNL     1      46.489   8.718  12.280  0.00  0.00    +0.000 A 
ATOM      3  C   UNL     1      47.867   8.962  12.172  0.00  0.00    +0.000 A 
ATOM      4  C   UNL     1      48.811   7.935  12.307  0.00  0.00    +0.000 A 
ATOM      5  C   UNL     1      48.364   6.636  12.565  0.00  0.00    +0.000 A 
ATOM      6  C   UNL     1      46.989   6.382  12.678  0.00  0.00    +0.000 A 
ATOM      7  C   UNL     1      46.041   7.408  12.536  0.00  0.00    +0.000 A 
BRANCH   4   8
ATOM      8  C   UNL     1      50.248   8.310  12.172  0.00  0.00    +0.000 C 
ATOM      9  N   UNL     1      51.089   7.471  11.500  0.00  0.00    +0.000 N 
ATOM     10  O   UNL     1      50.686   9.354  12.651  0.00  0.00    +0.000 OA
ATOM     11  H   UNL     1      50.832   6.584  11.099  0.00  0.00    +0.000 HD
ATOM     12  H   UNL     1      52.059   7.755  11.441  0.00  0.00    +0.000 HD
ENDBRANCH   4   8
BRANCH   2  14
ATOM     13  C   UNL     1      45.942  10.909  11.493  0.00  0.00    +0.000 C 
ATOM     14  O   UNL     1      45.573   9.732  12.201  0.00  0.00    +0.000 OA
ENDBRANCH   2  14
ENDBRANCH   1   7
BRANCH   1  15
ATOM     15  C   UNL     1      44.057   6.604  11.469  0.00  0.00    +0.000 C 
BRANCH  15  16
ATOM     16  C   UNL     1      44.156   5.128  11.144  0.00  0.00    +0.000 A 
ATOM     17  C   UNL     1      43.306   4.232  11.805  0.00  0.00    +0.000 A 
ATOM     18  C   UNL     1      43.284   2.889  11.451  0.00  0.00    +0.000 A 
ATOM     19  C   UNL     1      44.093   2.431  10.410  0.00  0.00    +0.000 A 
ATOM     20  C   UNL     1      44.926   3.305   9.687  0.00  0.00    +0.000 A 
ATOM     21  C   UNL     1      44.958   4.656  10.093  0.00  0.00    +0.000 A 
BRANCH  20  22
ATOM     22  C   UNL     1      45.665   2.847   8.487  0.00  0.00    +0.000 A 
ATOM     23  C   UNL     1      45.966   3.742   7.440  0.00  0.00    +0.000 A 
ATOM     24  C   UNL     1      46.735   3.351   6.340  0.00  0.00    +0.000 A 
ATOM     25  C   UNL     1      47.229   2.055   6.263  0.00  0.00    +0.000 A 
ATOM     26  C   UNL     1      46.935   1.144   7.273  0.00  0.00    +0.000 A 
ATOM     27  C   UNL     1      46.153   1.533   8.367  0.00  0.00    +0.000 A 
ENDBRANCH  20  22
ENDBRANCH  15  16
ENDBRANCH   1  15
TORSDOF 6
ENDMDL
MODEL 3
REMARK VINA RESULT:    -7.219      3.007      6.525
REMARK INTER + INTRA:         -11.145
REMARK INTER:                 -10.855
REMARK INTRA:                  -0.290
REMARK UNBOUND:                -1.394
REMARK  Name = 
REMARK  7 active torsions:
REMARK  status: ('A' for Active; 'I' for Inactive)
REMARK    1  A    between atoms: C_1  and  O_2
REMARK    2  A    between atoms: O_2  and  C_3
REMARK    3  A    between atoms: C_5  and  C_6
REMARK    4  A    between atoms: C_11  and  O_12
REMARK    5  A    between atoms: O_12  and  C_13
REMARK    6  A    between atoms: C_13  and  C_14
REMARK    7  A    between atoms: C_18  and  C_19
REMARK                            x       y       z     vdW  Elec       q    Type
REMARK                         _______ _______ _______ _____ _____    ______ ____
ROOT
ATOM      1  O   UNL     1      43.948   4.918  10.326  0.00  0.00    +0.000 OA
ENDROOT
BRANCH   1   7
ATOM      2  C   UNL     1      44.670   2.654   9.527  0.00  0.00    +0.000 A 
ATOM      3  C   UNL     1      45.542   1.965   8.670  0.00  0.00    +0.000 A 
ATOM      4  C   UNL     1      46.452   2.640   7.845  0.00  0.00    +0.000 A 
ATOM      5  C   UNL     1      46.482   4.037   7.874  0.00  0.00    +0.000 A 
ATOM      6  C   UNL     1      45.612   4.735   8.725  0.00  0.00    +0.000 A 
ATOM      7  C   UNL     1      44.705   4.061   9.558  0.00  0.00    +0.000 A 
BRANCH   4   8
ATOM      8  C   UNL     1      47.330   1.806   6.976  0.00  0.00    +0.000 C 
ATOM      9  N   UNL     1      48.380   2.397   6.336  0.00  0.00    +0.000 N 
ATOM     10  O   UNL     1      47.127   0.602   6.827  0.00  0.00    +0.000 OA
ATOM     11  H   UNL     1      48.610   3.376   6.372  0.00  0.00    +0.000 HD
ATOM     12  H   UNL     1      48.945   1.799   5.745  0.00  0.00    +0.000 HD
ENDBRANCH   4   8
BRANCH   2  14
ATOM     13  C   UNL     1      43.473   2.502  11.592  0.00  0.00    +0.000 C 
ATOM     14  O   UNL     1      43.746   1.994  10.292  0.00  0.00    +0.000 OA
ENDBRANCH   2  14
ENDBRANCH   1   7
BRANCH   1  15
ATOM     15  C   UNL     1      44.542   6.165  10.682  0.00  0.00    +0.000 C 
BRANCH  15  16
ATOM     16  C   UNL     1      45.512   6.051  11.839  0.00  0.00    +0.000 A 
ATOM     17  C   UNL     1      45.273   5.088  12.828  0.00  0.00    +0.000 A 
ATOM     18  C   UNL     1      46.199   4.873  13.842  0.00  0.00    +0.000 A 
ATOM     19  C   UNL     1      47.390   5.599  13.861  0.00  0.00    +0.000 A 
ATOM     20  C   UNL     1      47.693   6.542  12.860  0.00  0.00    +0.000 A 
ATOM     21  C   UNL     1      46.719   6.768  11.865  0.00  0.00    +0.000 A 
BRANCH  20  22
ATOM     22  C   UNL     1      49.021   7.197  12.796  0.00  0.00    +0.000 A 
ATOM     23  C   UNL     1      49.583   7.569  11.559  0.00  0.00    +0.000 A 
ATOM     24  C   UNL     1      50.793   8.265  11.482  0.00  0.00    +0.000 A 
ATOM     25  C   UNL     1      51.470   8.612  12.645  0.00  0.00    +0.000 A 
ATOM     26  C   UNL     1      50.947   8.244  13.882  0.00  0.00    +0.000 A 
ATOM     27  C   UNL     1      49.742   7.535  13.955  0.00  0.00    +0.000 A 
ENDBRANCH  20  22
ENDBRANCH  15  16
ENDBRANCH   1  15
TORSDOF 6
ENDMDL
MODEL 4
REMARK VINA RESULT:    -6.970      2.624      3.710
REMARK INTER + INTRA:         -10.808
REMARK INTER:                 -10.003
REMARK INTRA:                  -0.806
REMARK UNBOUND:                -1.394
REMARK  Name = 
REMARK  7 active torsions:
REMARK  status: ('A' for Active; 'I' for Inactive)
REMARK    1  A    between atoms: C_1  and  O_2
REMARK    2  A    between atoms: O_2  and  C_3
REMARK    3  A    between atoms: C_5  and  C_6
REMARK    4  A    between atoms: C_11  and  O_12
REMARK    5  A    between atoms: O_12  and  C_13
REMARK    6  A    between atoms: C_13  and  C_14
REMARK    7  A    between atoms: C_18  and  C_19
REMARK                            x       y       z     vdW  Elec       q    Type
REMARK                         _______ _______ _______ _____ _____    ______ ____
ROOT
ATOM      1  O   UNL     1      47.369   6.703  12.753  0.00  0.00    +0.000 OA
ENDROOT
BRANCH   1   7
ATOM      2  C   UNL     1      48.447   6.650  15.017  0.00  0.00    +0.000 A 
ATOM      3  C   UNL     1      48.593   5.909  16.200  0.00  0.00    +0.000 A 
ATOM      4  C   UNL     1      47.954   4.674  16.381  0.00  0.00    +0.000 A 
ATOM      5  C   UNL     1      47.145   4.176  15.356  0.00  0.00    +0.000 A 
ATOM      6  C   UNL     1      46.991   4.910  14.170  0.00  0.00    +0.000 A 
ATOM      7  C   UNL     1      47.635   6.143  13.984  0.00  0.00    +0.000 A 
BRANCH   4   8
ATOM      8  C   UNL     1      48.181   3.975  17.677  0.00  0.00    +0.000 C 
ATOM      9  N   UNL     1      47.289   3.025  18.082  0.00  0.00    +0.000 N 
ATOM     10  O   UNL     1      49.152   4.236  18.385  0.00  0.00    +0.000 OA
ATOM     11  H   UNL     1      46.452   2.762  17.588  0.00  0.00    +0.000 HD
ATOM     12  H   UNL     1      47.471   2.583  18.974  0.00  0.00    +0.000 HD
ENDBRANCH   4   8
BRANCH   2  14
ATOM     13  C   UNL     1      48.292   9.021  15.285  0.00  0.00    +0.000 C 
ATOM     14  O   UNL     1      49.029   7.879  14.864  0.00  0.00    +0.000 OA
ENDBRANCH   2  14
ENDBRANCH   1   7
BRANCH   1  15
ATOM     15  C   UNL     1      46.036   7.153  12.520  0.00  0.00    +0.000 C 
BRANCH  15  16
ATOM     16  C   UNL     1      45.187   6.136  11.785  0.00  0.00    +0.000 A 
ATOM     17  C   UNL     1      43.794   6.191  11.925  0.00  0.00    +0.000 A 
ATOM     18  C   UNL     1      42.976   5.353  11.176  0.00  0.00    +0.000 A 
ATOM     19  C   UNL     1      43.542   4.470  10.257  0.00  0.00    +0.000 A 
ATOM     20  C   UNL     1      44.933   4.415  10.049  0.00  0.00    +0.000 A 
ATOM     21  C   UNL     1      45.742   5.249  10.849  0.00  0.00    +0.000 A 
BRANCH  20  22
ATOM     22  C   UNL     1      45.518   3.590   8.965  0.00  0.00    +0.000 A 
ATOM     23  C   UNL     1      46.126   4.194   7.846  0.00  0.00    +0.000 A 
ATOM     24  C   UNL     1      46.758   3.435   6.858  0.00  0.00    +0.000 A 
ATOM     25  C   UNL     1      46.805   2.051   6.967  0.00  0.00    +0.000 A 
ATOM     26  C   UNL     1      46.199   1.425   8.053  0.00  0.00    +0.000 A 
ATOM     27  C   UNL     1      45.554   2.186   9.035  0.00  0.00    +0.000 A 
ENDBRANCH  20  22
ENDBRANCH  15  16
ENDBRANCH   1  15
TORSDOF 6
ENDMDL
MODEL 5
REMARK VINA RESULT:    -6.838      2.271      2.585
REMARK INTER + INTRA:         -10.630
REMARK INTER:                  -9.516
REMARK INTRA:                  -1.114
REMARK UNBOUND:                -1.394
REMARK  Name = 
REMARK  7 active torsions:
REMARK  status: ('A' for Active; 'I' for Inactive)
REMARK    1  A    between atoms: C_1  and  O_2
REMARK    2  A    between atoms: O_2  and  C_3
REMARK    3  A    between atoms: C_5  and  C_6
REMARK    4  A    between atoms: C_11  and  O_12
REMARK    5  A    between atoms: O_12  and  C_13
REMARK    6  A    between atoms: C_13  and  C_14
REMARK    7  A    between atoms: C_18  and  C_19
REMARK                            x       y       z     vdW  Elec       q    Type
REMARK                         _______ _______ _______ _____ _____    ______ ____
ROOT
ATOM      1  O   UNL     1      47.107   7.550  11.870  0.00  0.00    +0.000 OA
ENDROOT
BRANCH   1   7
ATOM      2  C   UNL     1      47.917   6.304  13.889  0.00  0.00    +0.000 A 
ATOM      3  C   UNL     1      48.392   6.435  15.203  0.00  0.00    +0.000 A 
ATOM      4  C   UNL     1      48.547   7.690  15.810  0.00  0.00    +0.000 A 
ATOM      5  C   UNL     1      48.228   8.838  15.079  0.00  0.00    +0.000 A 
ATOM      6  C   UNL     1      47.755   8.717  13.764  0.00  0.00    +0.000 A 
ATOM      7  C   UNL     1      47.592   7.462  13.156  0.00  0.00    +0.000 A 
BRANCH   4   8
ATOM      8  C   UNL     1      49.058   7.709  17.210  0.00  0.00    +0.000 C 
ATOM      9  N   UNL     1      48.164   7.661  18.240  0.00  0.00    +0.000 N 
ATOM     10  O   UNL     1      50.262   7.768  17.453  0.00  0.00    +0.000 OA
ATOM     11  H   UNL     1      47.162   7.640  18.144  0.00  0.00    +0.000 HD
ATOM     12  H   UNL     1      48.549   7.689  19.176  0.00  0.00    +0.000 HD
ENDBRANCH   4   8
BRANCH   2  14
ATOM     13  C   UNL     1      46.789   4.202  13.720  0.00  0.00    +0.000 C 
ATOM     14  O   UNL     1      47.817   5.082  13.281  0.00  0.00    +0.000 OA
ENDBRANCH   2  14
ENDBRANCH   1   7
BRANCH   1  15
ATOM     15  C   UNL     1      45.695   7.688  11.718  0.00  0.00    +0.000 C 
BRANCH  15  16
ATOM     16  C   UNL     1      45.017   6.403  11.288  0.00  0.00    +0.000 A 
ATOM     17  C   UNL     1      43.685   6.184  11.662  0.00  0.00    +0.000 A 
ATOM     18  C   UNL     1      42.992   5.076  11.189  0.00  0.00    +0.000 A 
ATOM     19  C   UNL     1      43.617   4.188  10.313  0.00  0.00    +0.000 A 
ATOM     20  C   UNL     1      44.938   4.395   9.872  0.00  0.00    +0.000 A 
ATOM     21  C   UNL     1      45.630   5.507  10.398  0.00  0.00    +0.000 A 
BRANCH  20  22
ATOM     22  C   UNL     1      45.543   3.540   8.825  0.00  0.00    +0.000 A 
ATOM     23  C   UNL     1      46.163   4.111   7.696  0.00  0.00    +0.000 A 
ATOM     24  C   UNL     1      46.815   3.326   6.741  0.00  0.00    +0.000 A 
ATOM     25  C   UNL     1      46.869   1.946   6.896  0.00  0.00    +0.000 A 
ATOM     26  C   UNL     1      46.252   1.351   7.992  0.00  0.00    +0.000 A 
ATOM     27  C   UNL     1      45.587   2.139   8.940  0.00  0.00    +0.000 A 
ENDBRANCH  20  22
ENDBRANCH  15  16
ENDBRANCH   1  15
TORSDOF 6
ENDMDL
MODEL 6
REMARK VINA RESULT:    -6.666      2.263      2.841
REMARK INTER + INTRA:         -10.398
REMARK INTER:                  -9.449
REMARK INTRA:                  -0.949
REMARK UNBOUND:                -1.394
REMARK  Name = 
REMARK  7 active torsions:
REMARK  status: ('A' for Active; 'I' for Inactive)
REMARK    1  A    between atoms: C_1  and  O_2
REMARK    2  A    between atoms: O_2  and  C_3
REMARK    3  A    between atoms: C_5  and  C_6
REMARK    4  A    between atoms: C_11  and  O_12
REMARK    5  A    between atoms: O_12  and  C_13
REMARK    6  A    between atoms: C_13  and  C_14
REMARK    7  A    between atoms: C_18  and  C_19
REMARK                            x       y       z     vdW  Elec       q    Type
REMARK                         _______ _______ _______ _____ _____    ______ ____
ROOT
ATOM      1  O   UNL     1      46.336   3.700  13.767  0.00  0.00    +0.000 OA
ENDROOT
BRANCH   1   7
ATOM      2  C   UNL     1      47.466   4.426  15.884  0.00  0.00    +0.000 A 
ATOM      3  C   UNL     1      48.254   5.424  16.479  0.00  0.00    +0.000 A 
ATOM      4  C   UNL     1      48.686   6.549  15.762  0.00  0.00    +0.000 A 
ATOM      5  C   UNL     1      48.328   6.670  14.416  0.00  0.00    +0.000 A 
ATOM      6  C   UNL     1      47.543   5.677  13.812  0.00  0.00    +0.000 A 
ATOM      7  C   UNL     1      47.103   4.553  14.529  0.00  0.00    +0.000 A 
BRANCH   4   8
ATOM      8  C   UNL     1      49.517   7.545  16.496  0.00  0.00    +0.000 C 
ATOM      9  N   UNL     1      49.485   8.851  16.103  0.00  0.00    +0.000 N 
ATOM     10  O   UNL     1      50.228   7.213  17.443  0.00  0.00    +0.000 OA
ATOM     11  H   UNL     1      48.959   9.214  15.324  0.00  0.00    +0.000 HD
ATOM     12  H   UNL     1      50.073   9.494  16.618  0.00  0.00    +0.000 HD
ENDBRANCH   4   8
BRANCH   2  14
ATOM     13  C   UNL     1      47.834   2.954  17.732  0.00  0.00    +0.000 C 
ATOM     14  O   UNL     1      47.090   3.304  16.572  0.00  0.00    +0.000 OA
ENDBRANCH   2  14
ENDBRANCH   1   7
BRANCH   1  15
ATOM     15  C   UNL     1      44.949   4.013  13.642  0.00  0.00    +0.000 C 
BRANCH  15  16
ATOM     16  C   UNL     1      44.506   4.173  12.202  0.00  0.00    +0.000 A 
ATOM     17  C   UNL     1      43.597   5.191  11.885  0.00  0.00    +0.000 A 
ATOM     18  C   UNL     1      43.256   5.446  10.562  0.00  0.00    +0.000 A 
ATOM     19  C   UNL     1      43.844   4.702   9.538  0.00  0.00    +0.000 A 
ATOM     20  C   UNL     1      44.798   3.703   9.807  0.00  0.00    +0.000 A 
ATOM     21  C   UNL     1      45.096   3.440  11.161  0.00  0.00    +0.000 A 
BRANCH  20  22
ATOM     22  C   UNL     1      45.533   3.025   8.714  0.00  0.00    +0.000 A 
ATOM     23  C   UNL     1      46.094   3.764   7.654  0.00  0.00    +0.000 A 
ATOM     24  C   UNL     1      46.863   3.153   6.660  0.00  0.00    +0.000 A 
ATOM     25  C   UNL     1      47.096   1.784   6.705  0.00  0.00    +0.000 A 
ATOM     26  C   UNL     1      46.542   1.024   7.731  0.00  0.00    +0.000 A 
ATOM     27  C   UNL     1      45.760   1.637   8.718  0.00  0.00    +0.000 A 
ENDBRANCH  20  22
ENDBRANCH  15  16
ENDBRANCH   1  15
TORSDOF 6
ENDMDL
MODEL 7
REMARK VINA RESULT:    -6.525      3.339      7.070
REMARK INTER + INTRA:         -10.208
REMARK INTER:                 -10.099
REMARK INTRA:                  -0.109
REMARK UNBOUND:                -1.394
REMARK  Name = 
REMARK  7 active torsions:
REMARK  status: ('A' for Active; 'I' for Inactive)
REMARK    1  A    between atoms: C_1  and  O_2
REMARK    2  A    between atoms: O_2  and  C_3
REMARK    3  A    between atoms: C_5  and  C_6
REMARK    4  A    between atoms: C_11  and  O_12
REMARK    5  A    between atoms: O_12  and  C_13
REMARK    6  A    between atoms: C_13  and  C_14
REMARK    7  A    between atoms: C_18  and  C_19
REMARK                            x       y       z     vdW  Elec       q    Type
REMARK                         _______ _______ _______ _____ _____    ______ ____
ROOT
ATOM      1  O   UNL     1      44.405   5.244  10.994  0.00  0.00    +0.000 OA
ENDROOT
BRANCH   1   7
ATOM      2  C   UNL     1      44.647   3.095   9.726  0.00  0.00    +0.000 A 
ATOM      3  C   UNL     1      45.266   2.473   8.631  0.00  0.00    +0.000 A 
ATOM      4  C   UNL     1      46.135   3.172   7.780  0.00  0.00    +0.000 A 
ATOM      5  C   UNL     1      46.380   4.525   8.029  0.00  0.00    +0.000 A 
ATOM      6  C   UNL     1      45.764   5.156   9.121  0.00  0.00    +0.000 A 
ATOM      7  C   UNL     1      44.900   4.457   9.978  0.00  0.00    +0.000 A 
BRANCH   4   8
ATOM      8  C   UNL     1      46.736   2.410   6.649  0.00  0.00    +0.000 C 
ATOM      9  N   UNL     1      47.098   3.082   5.518  0.00  0.00    +0.000 N 
ATOM     10  O   UNL     1      46.911   1.195   6.715  0.00  0.00    +0.000 OA
ATOM     11  H   UNL     1      46.969   4.068   5.357  0.00  0.00    +0.000 HD
ATOM     12  H   UNL     1      47.491   2.528   4.767  0.00  0.00    +0.000 HD
ENDBRANCH   4   8
BRANCH   2  14
ATOM     13  C   UNL     1      43.725   2.754  11.906  0.00  0.00    +0.000 C 
ATOM     14  O   UNL     1      43.758   2.425  10.523  0.00  0.00    +0.000 OA
ENDBRANCH   2  14
ENDBRANCH   1   7
BRANCH   1  15
ATOM     15  C   UNL     1      44.987   6.537  11.154  0.00  0.00    +0.000 C 
BRANCH  15  16
ATOM     16  C   UNL     1      46.317   6.503  11.878  0.00  0.00    +0.000 A 
ATOM     17  C   UNL     1      47.378   7.270  11.379  0.00  0.00    +0.000 A 
ATOM     18  C   UNL     1      48.575   7.358  12.079  0.00  0.00    +0.000 A 
ATOM     19  C   UNL     1      48.715   6.702  13.302  0.00  0.00    +0.000 A 
ATOM     20  C   UNL     1      47.659   5.961  13.865  0.00  0.00    +0.000 A 
ATOM     21  C   UNL     1      46.469   5.856  13.115  0.00  0.00    +0.000 A 
BRANCH  20  22
ATOM     22  C   UNL     1      47.757   5.396  15.231  0.00  0.00    +0.000 A 
ATOM     23  C   UNL     1      47.091   4.201  15.568  0.00  0.00    +0.000 A 
ATOM     24  C   UNL     1      47.240   3.607  16.824  0.00  0.00    +0.000 A 
ATOM     25  C   UNL     1      48.066   4.192  17.776  0.00  0.00    +0.000 A 
ATOM     26  C   UNL     1      48.725   5.381  17.478  0.00  0.00    +0.000 A 
ATOM     27  C   UNL     1      48.564   5.982  16.224  0.00  0.00    +0.000 A 
ENDBRANCH  20  22
ENDBRANCH  15  16
ENDBRANCH   1  15
TORSDOF 6
ENDMDL
MODEL 8
REMARK VINA RESULT:    -6.456      1.960      2.484
REMARK INTER + INTRA:         -10.115
REMARK INTER:                  -9.254
REMARK INTRA:                  -0.861
REMARK UNBOUND:                -1.394
REMARK  Name = 
REMARK  7 active torsions:
REMARK  status: ('A' for Active; 'I' for Inactive)
REMARK    1  A    between atoms: C_1  and  O_2
REMARK    2  A    between atoms: O_2  and  C_3
REMARK    3  A    between atoms: C_5  and  C_6
REMARK    4  A    between atoms: C_11  and  O_12
REMARK    5  A    between atoms: O_12  and  C_13
REMARK    6  A    between atoms: C_13  and  C_14
REMARK    7  A    between atoms: C_18  and  C_19
REMARK                            x       y       z     vdW  Elec       q    Type
REMARK                         _______ _______ _______ _____ _____    ______ ____
ROOT
ATOM      1  O   UNL     1      47.397   4.993  13.667  0.00  0.00    +0.000 OA
ENDROOT
BRANCH   1   7
ATOM      2  C   UNL     1      48.837   6.939  14.318  0.00  0.00    +0.000 A 
ATOM      3  C   UNL     1      49.202   8.255  13.994  0.00  0.00    +0.000 A 
ATOM      4  C   UNL     1      48.645   8.925  12.894  0.00  0.00    +0.000 A 
ATOM      5  C   UNL     1      47.711   8.257  12.099  0.00  0.00    +0.000 A 
ATOM      6  C   UNL     1      47.342   6.940  12.413  0.00  0.00    +0.000 A 
ATOM      7  C   UNL     1      47.892   6.269  13.517  0.00  0.00    +0.000 A 
BRANCH   4   8
ATOM      8  C   UNL     1      49.105  10.321  12.646  0.00  0.00    +0.000 C 
ATOM      9  N   UNL     1      49.116  10.795  11.367  0.00  0.00    +0.000 N 
ATOM     10  O   UNL     1      49.473  11.048  13.567  0.00  0.00    +0.000 OA
ATOM     11  H   UNL     1      48.862  10.269  10.546  0.00  0.00    +0.000 HD
ATOM     12  H   UNL     1      49.447  11.743  11.238  0.00  0.00    +0.000 HD
ENDBRANCH   4   8
BRANCH   2  14
ATOM     13  C   UNL     1      48.724   6.227  16.598  0.00  0.00    +0.000 C 
ATOM     14  O   UNL     1      49.421   6.269  15.359  0.00  0.00    +0.000 OA
ENDBRANCH   2  14
ENDBRANCH   1   7
BRANCH   1  15
ATOM     15  C   UNL     1      46.025   4.869  14.039  0.00  0.00    +0.000 C 
BRANCH  15  16
ATOM     16  C   UNL     1      45.109   4.637  12.855  0.00  0.00    +0.000 A 
ATOM     17  C   UNL     1      43.839   5.228  12.858  0.00  0.00    +0.000 A 
ATOM     18  C   UNL     1      43.015   5.136  11.743  0.00  0.00    +0.000 A 
ATOM     19  C   UNL     1      43.465   4.474  10.600  0.00  0.00    +0.000 A 
ATOM     20  C   UNL     1      44.752   3.908  10.535  0.00  0.00    +0.000 A 
ATOM     21  C   UNL     1      45.552   3.982  11.695  0.00  0.00    +0.000 A 
BRANCH  20  22
ATOM     22  C   UNL     1      45.283   3.344   9.272  0.00  0.00    +0.000 A 
ATOM     23  C   UNL     1      45.716   4.189   8.230  0.00  0.00    +0.000 A 
ATOM     24  C   UNL     1      46.299   3.679   7.067  0.00  0.00    +0.000 A 
ATOM     25  C   UNL     1      46.470   2.307   6.919  0.00  0.00    +0.000 A 
ATOM     26  C   UNL     1      46.038   1.447   7.924  0.00  0.00    +0.000 A 
ATOM     27  C   UNL     1      45.441   1.959   9.082  0.00  0.00    +0.000 A 
ENDBRANCH  20  22
ENDBRANCH  15  16
ENDBRANCH   1  15
TORSDOF 6
ENDMDL
MODEL 9
REMARK VINA RESULT:    -6.382      3.599      5.209
REMARK INTER + INTRA:         -10.015
REMARK INTER:                  -9.039
REMARK INTRA:                  -0.977
REMARK UNBOUND:                -1.394
REMARK  Name = 
REMARK  7 active torsions:
REMARK  status: ('A' for Active; 'I' for Inactive)
REMARK    1  A    between atoms: C_1  and  O_2
REMARK    2  A    between atoms: O_2  and  C_3
REMARK    3  A    between atoms: C_5  and  C_6
REMARK    4  A    between atoms: C_11  and  O_12
REMARK    5  A    between atoms: O_12  and  C_13
REMARK    6  A    between atoms: C_13  and  C_14
REMARK    7  A    between atoms: C_18  and  C_19
REMARK                            x       y       z     vdW  Elec       q    Type
REMARK                         _______ _______ _______ _____ _____    ______ ____
ROOT
ATOM      1  O   UNL     1      48.880   6.266  14.453  0.00  0.00    +0.000 OA
ENDROOT
BRANCH   1   7
ATOM      2  C   UNL     1      48.272   5.144  16.612  0.00  0.00    +0.000 A 
ATOM      3  C   UNL     1      48.059   5.339  17.985  0.00  0.00    +0.000 A 
ATOM      4  C   UNL     1      48.195   6.601  18.581  0.00  0.00    +0.000 A 
ATOM      5  C   UNL     1      48.560   7.689  17.783  0.00  0.00    +0.000 A 
ATOM      6  C   UNL     1      48.777   7.503  16.409  0.00  0.00    +0.000 A 
ATOM      7  C   UNL     1      48.636   6.242  15.809  0.00  0.00    +0.000 A 
BRANCH   4   8
ATOM      8  C   UNL     1      47.943   6.691  20.047  0.00  0.00    +0.000 C 
ATOM      9  N   UNL     1      47.144   5.756  20.639  0.00  0.00    +0.000 N 
ATOM     10  O   UNL     1      48.438   7.586  20.729  0.00  0.00    +0.000 OA
ATOM     11  H   UNL     1      46.672   5.005  20.163  0.00  0.00    +0.000 HD
ATOM     12  H   UNL     1      46.987   5.859  21.633  0.00  0.00    +0.000 HD
ENDBRANCH   4   8
BRANCH   2  14
ATOM     13  C   UNL     1      48.006   2.785  16.905  0.00  0.00    +0.000 C 
ATOM     14  O   UNL     1      48.192   3.902  16.043  0.00  0.00    +0.000 OA
ENDBRANCH   2  14
ENDBRANCH   1   7
BRANCH   1  15
ATOM     15  C   UNL     1      48.552   7.468  13.757  0.00  0.00    +0.000 C 
BRANCH  15  16
ATOM     16  C   UNL     1      47.228   7.387  13.026  0.00  0.00    +0.000 A 
ATOM     17  C   UNL     1      46.420   8.530  12.962  0.00  0.00    +0.000 A 
ATOM     18  C   UNL     1      45.256   8.530  12.203  0.00  0.00    +0.000 A 
ATOM     19  C   UNL     1      44.902   7.394  11.475  0.00  0.00    +0.000 A 
ATOM     20  C   UNL     1      45.708   6.241  11.471  0.00  0.00    +0.000 A 
ATOM     21  C   UNL     1      46.863   6.254  12.281  0.00  0.00    +0.000 A 
BRANCH  20  22
ATOM     22  C   UNL     1      45.411   5.096  10.577  0.00  0.00    +0.000 A 
ATOM     23  C   UNL     1      44.758   3.948  11.069  0.00  0.00    +0.000 A 
ATOM     24  C   UNL     1      44.393   2.895  10.225  0.00  0.00    +0.000 A 
ATOM     25  C   UNL     1      44.666   2.968   8.865  0.00  0.00    +0.000 A 
ATOM     26  C   UNL     1      45.323   4.082   8.352  0.00  0.00    +0.000 A 
ATOM     27  C   UNL     1      45.701   5.130   9.202  0.00  0.00    +0.000 A 
ENDBRANCH  20  22
ENDBRANCH  15  16
ENDBRANCH   1  15
TORSDOF 6
ENDMDL
