MODEL 1
REMARK VINA RESULT:    -8.118      0.000      0.000
REMARK INTER + INTRA:         -10.636
REMARK INTER:                 -10.016
REMARK INTRA:                  -0.619
REMARK UNBOUND:                -0.619
REMARK  Name = 
REMARK  4 active torsions:
REMARK  status: ('A' for Active; 'I' for Inactive)
REMARK    1  A    between atoms: C_2  and  C_4
REMARK    2  A    between atoms: C_7  and  N_8
REMARK    3  A    between atoms: N_8  and  C_9
REMARK    4  A    between atoms: C_9  and  C_10
REMARK                            x       y       z     vdW  Elec       q    Type
REMARK                         _______ _______ _______ _____ _____    ______ ____
ROOT
ATOM      1  C   UNL     1      46.331   2.236   7.863  0.00  0.00    +0.000 A 
ATOM      2  C   UNL     1      45.373   1.747   8.757  0.00  0.00    +0.000 A 
ATOM      3  C   UNL     1      44.501   2.632   9.405  0.00  0.00    +0.000 A 
ATOM      4  C   UNL     1      44.588   4.012   9.192  0.00  0.00    +0.000 A 
ATOM      5  C   UNL     1      45.518   4.482   8.256  0.00  0.00    +0.000 A 
ATOM      6  C   UNL     1      46.402   3.608   7.615  0.00  0.00    +0.000 A 
ENDROOT
BRANCH   1   8
ATOM      7  N   UNL     1      48.376   1.923   6.576  0.00  0.00    +0.000 N 
ATOM      8  C   UNL     1      47.301   1.339   7.185  0.00  0.00    +0.000 C 
ATOM      9  O   UNL     1      47.169   0.120   7.198  0.00  0.00    +0.000 OA
ATOM     10  H   UNL     1      49.080   1.292   6.215  0.00  0.00    +0.000 HD
ATOM     11  H   UNL     1      48.653   2.874   6.770  0.00  0.00    +0.000 HD
ENDBRANCH   1   8
BRANCH   4  12
ATOM     12  N   UNL     1      43.758   4.948   9.812  0.00  0.00    +0.000 N 
ATOM     13  H   UNL     1      42.871   5.034   9.317  0.00  0.00    +0.000 HD
BRANCH  12  14
ATOM     14  C   UNL     1      43.571   4.866  11.255  0.00  0.00    +0.000 C 
BRANCH  14  15
ATOM     15  C   UNL     1      44.831   5.325  11.950  0.00  0.00    +0.000 A 
ATOM     16  C   UNL     1      45.551   6.420  11.443  0.00  0.00    +0.000 A 
ATOM     17  C   UNL     1      46.742   6.835  12.040  0.00  0.00    +0.000 A 
ATOM     18  C   UNL     1      47.230   6.156  13.155  0.00  0.00    +0.000 A 
ATOM     19  C   UNL     1      46.524   5.067  13.664  0.00  0.00    +0.000 A 
ATOM     20 CL   UNL     1      47.136   4.223  15.035  0.00  0.00    +0.000 Cl
ATOM     21  C   UNL     1      45.332   4.648  13.070  0.00  0.00    +0.000 A 
ENDBRANCH  14  15
ENDBRANCH  12  14
ENDBRANCH   4  12
TORSDOF 4
ENDMDL
MODEL 2
REMARK VINA RESULT:    -7.558      3.447      6.122
REMARK INTER + INTRA:          -9.945
REMARK INTER:                  -9.483
REMARK INTRA:                  -0.462
REMARK UNBOUND:                -0.619
REMARK  Name = 
REMARK  4 active torsions:
REMARK  status: ('A' for Active; 'I' for Inactive)
REMARK    1  A    between atoms: C_2  and  C_4
REMARK    2  A    between atoms: C_7  and  N_8
REMARK    3  A    between atoms: N_8  and  C_9
REMARK    4  A    between atoms: C_9  and  C_10
REMARK                            x       y       z     vdW  Elec       q    Type
REMARK                         _______ _______ _______ _____ _____    ______ ____
ROOT
ATOM      1  C   UNL     1      46.577   4.649  13.636  0.00  0.00    +0.000 A 
ATOM      2  C   UNL     1      46.681   5.897  13.014  0.00  0.00    +0.000 A 
ATOM      3  C   UNL     1      46.083   6.112  11.765  0.00  0.00    +0.000 A 
ATOM      4  C   UNL     1      45.398   5.083  11.110  0.00  0.00    +0.000 A 
ATOM      5  C   UNL     1      45.258   3.854  11.768  0.00  0.00    +0.000 A 
ATOM      6  C   UNL     1      45.864   3.626  13.008  0.00  0.00    +0.000 A 
ENDROOT
BRANCH   1   8
ATOM      7  N   UNL     1      47.485   5.432  15.756  0.00  0.00    +0.000 N 
ATOM      8  C   UNL     1      47.229   4.366  14.940  0.00  0.00    +0.000 C 
ATOM      9  O   UNL     1      47.497   3.223  15.293  0.00  0.00    +0.000 OA
ATOM     10  H   UNL     1      47.828   5.211  16.683  0.00  0.00    +0.000 HD
ATOM     11  H   UNL     1      47.048   6.332  15.620  0.00  0.00    +0.000 HD
ENDBRANCH   1   8
BRANCH   4  12
ATOM     12  N   UNL     1      44.788   5.227   9.863  0.00  0.00    +0.000 N 
ATOM     13  H   UNL     1      45.362   5.790   9.237  0.00  0.00    +0.000 HD
BRANCH  12  14
ATOM     14  C   UNL     1      44.266   4.038   9.201  0.00  0.00    +0.000 C 
BRANCH  14  15
ATOM     15  C   UNL     1      45.380   3.362   8.436  0.00  0.00    +0.000 A 
ATOM     16  C   UNL     1      46.261   4.131   7.655  0.00  0.00    +0.000 A 
ATOM     17  C   UNL     1      47.268   3.525   6.903  0.00  0.00    +0.000 A 
ATOM     18  C   UNL     1      47.408   2.138   6.921  0.00  0.00    +0.000 A 
ATOM     19  C   UNL     1      46.538   1.367   7.691  0.00  0.00    +0.000 A 
ATOM     20 CL   UNL     1      46.705  -0.347   7.702  0.00  0.00    +0.000 Cl
ATOM     21  C   UNL     1      45.527   1.968   8.445  0.00  0.00    +0.000 A 
ENDBRANCH  14  15
ENDBRANCH  12  14
ENDBRANCH   4  12
TORSDOF 4
ENDMDL
MODEL 3
REMARK VINA RESULT:    -7.387      3.572      6.189
REMARK INTER + INTRA:          -9.733
REMARK INTER:                  -9.190
REMARK INTRA:                  -0.543
REMARK UNBOUND:                -0.619
REMARK  Name = 
REMARK  4 active torsions:
REMARK  status: ('A' for Active; 'I' for Inactive)
REMARK    1  A    between atoms: C_2  and  C_4
REMARK    2  A    between atoms: C_7  and  N_8
REMARK    3  A    between atoms: N_8  and  C_9
REMARK    4  A    between atoms: C_9  and  C_10
REMARK                            x       y       z     vdW  Elec       q    Type
REMARK                         _______ _______ _______ _____ _____    ______ ____
ROOT
ATOM      1  C   UNL     1      47.002   5.949  13.395  0.00  0.00    +0.000 A 
ATOM      2  C   UNL     1      46.034   4.952  13.556  0.00  0.00    +0.000 A 
ATOM      3  C   UNL     1      45.176   4.629  12.497  0.00  0.00    +0.000 A 
ATOM      4  C   UNL     1      45.252   5.309  11.277  0.00  0.00    +0.000 A 
ATOM      5  C   UNL     1      46.259   6.268  11.113  0.00  0.00    +0.000 A 
ATOM      6  C   UNL     1      47.111   6.608  12.169  0.00  0.00    +0.000 A 
ENDROOT
BRANCH   1   8
ATOM      7  N   UNL     1      48.044   7.689  14.744  0.00  0.00    +0.000 N 
ATOM      8  C   UNL     1      47.905   6.351  14.503  0.00  0.00    +0.000 C 
ATOM      9  O   UNL     1      48.478   5.522  15.201  0.00  0.00    +0.000 OA
ATOM     10  H   UNL     1      48.576   7.940  15.568  0.00  0.00    +0.000 HD
ATOM     11  H   UNL     1      47.399   8.372  14.375  0.00  0.00    +0.000 HD
ENDBRANCH   1   8
BRANCH   4  12
ATOM     12  N   UNL     1      44.422   5.042  10.186  0.00  0.00    +0.000 N 
ATOM     13  H   UNL     1      44.703   5.586   9.371  0.00  0.00    +0.000 HD
BRANCH  12  14
ATOM     14  C   UNL     1      44.146   3.653   9.844  0.00  0.00    +0.000 C 
BRANCH  14  15
ATOM     15  C   UNL     1      45.187   3.161   8.865  0.00  0.00    +0.000 A 
ATOM     16  C   UNL     1      45.835   4.073   8.016  0.00  0.00    +0.000 A 
ATOM     17  C   UNL     1      46.767   3.637   7.073  0.00  0.00    +0.000 A 
ATOM     18  C   UNL     1      47.060   2.279   6.965  0.00  0.00    +0.000 A 
ATOM     19  C   UNL     1      46.420   1.367   7.802  0.00  0.00    +0.000 A 
ATOM     20 CL   UNL     1      46.776  -0.312   7.659  0.00  0.00    +0.000 Cl
ATOM     21  C   UNL     1      45.487   1.797   8.748  0.00  0.00    +0.000 A 
ENDBRANCH  14  15
ENDBRANCH  12  14
ENDBRANCH   4  12
TORSDOF 4
ENDMDL
MODEL 4
REMARK VINA RESULT:    -6.775      3.796      6.557
REMARK INTER + INTRA:          -8.978
REMARK INTER:                  -8.469
REMARK INTRA:                  -0.509
REMARK UNBOUND:                -0.619
REMARK  Name = 
REMARK  4 active torsions:
REMARK  status: ('A' for Active; 'I' for Inactive)
REMARK    1  A    between atoms: C_2  and  C_4
REMARK    2  A    between atoms: C_7  and  N_8
REMARK    3  A    between atoms: N_8  and  C_9
REMARK    4  A    between atoms: C_9  and  C_10
REMARK                            x       y       z     vdW  Elec       q    Type
REMARK                         _______ _______ _______ _____ _____    ______ ____
ROOT
ATOM      1  C   UNL     1      45.325   8.115  11.825  0.00  0.00    +0.000 A 
ATOM      2  C   UNL     1      44.039   7.630  11.565  0.00  0.00    +0.000 A 
ATOM      3  C   UNL     1      43.834   6.260  11.356  0.00  0.00    +0.000 A 
ATOM      4  C   UNL     1      44.906   5.361  11.378  0.00  0.00    +0.000 A 
ATOM      5  C   UNL     1      46.179   5.854  11.691  0.00  0.00    +0.000 A 
ATOM      6  C   UNL     1      46.396   7.222  11.887  0.00  0.00    +0.000 A 
ENDROOT
BRANCH   1   8
ATOM      7  N   UNL     1      44.570  10.333  12.490  0.00  0.00    +0.000 N 
ATOM      8  C   UNL     1      45.593   9.563  12.013  0.00  0.00    +0.000 C 
ATOM      9  O   UNL     1      46.696  10.050  11.786  0.00  0.00    +0.000 OA
ATOM     10  H   UNL     1      44.802  11.293  12.715  0.00  0.00    +0.000 HD
ATOM     11  H   UNL     1      43.755   9.933  12.931  0.00  0.00    +0.000 HD
ENDBRANCH   1   8
BRANCH   4  12
ATOM     12  N   UNL     1      44.772   3.987  11.170  0.00  0.00    +0.000 N 
ATOM     13  H   UNL     1      44.403   3.525  11.999  0.00  0.00    +0.000 HD
BRANCH  12  14
ATOM     14  C   UNL     1      44.114   3.528   9.953  0.00  0.00    +0.000 C 
BRANCH  14  15
ATOM     15  C   UNL     1      45.158   3.094   8.951  0.00  0.00    +0.000 A 
ATOM     16  C   UNL     1      45.779   4.049   8.127  0.00  0.00    +0.000 A 
ATOM     17  C   UNL     1      46.712   3.666   7.164  0.00  0.00    +0.000 A 
ATOM     18  C   UNL     1      47.038   2.320   7.010  0.00  0.00    +0.000 A 
ATOM     19  C   UNL     1      46.427   1.365   7.822  0.00  0.00    +0.000 A 
ATOM     20 CL   UNL     1      46.821  -0.299   7.622  0.00  0.00    +0.000 Cl
ATOM     21  C   UNL     1      45.490   1.742   8.787  0.00  0.00    +0.000 A 
ENDBRANCH  14  15
ENDBRANCH  12  14
ENDBRANCH   4  12
TORSDOF 4
ENDMDL
MODEL 5
REMARK VINA RESULT:    -6.460      4.022      6.822
REMARK INTER + INTRA:          -8.589
REMARK INTER:                  -8.170
REMARK INTRA:                  -0.420
REMARK UNBOUND:                -0.619
REMARK  Name = 
REMARK  4 active torsions:
REMARK  status: ('A' for Active; 'I' for Inactive)
REMARK    1  A    between atoms: C_2  and  C_4
REMARK    2  A    between atoms: C_7  and  N_8
REMARK    3  A    between atoms: N_8  and  C_9
REMARK    4  A    between atoms: C_9  and  C_10
REMARK                            x       y       z     vdW  Elec       q    Type
REMARK                         _______ _______ _______ _____ _____    ______ ____
ROOT
ATOM      1  C   UNL     1      45.501   7.273  12.398  0.00  0.00    +0.000 A 
ATOM      2  C   UNL     1      44.408   6.490  12.782  0.00  0.00    +0.000 A 
ATOM      3  C   UNL     1      44.107   5.314  12.082  0.00  0.00    +0.000 A 
ATOM      4  C   UNL     1      44.872   4.917  10.980  0.00  0.00    +0.000 A 
ATOM      5  C   UNL     1      45.994   5.683  10.640  0.00  0.00    +0.000 A 
ATOM      6  C   UNL     1      46.294   6.866  11.323  0.00  0.00    +0.000 A 
ENDROOT
BRANCH   1   8
ATOM      7  N   UNL     1      46.846   8.519  14.002  0.00  0.00    +0.000 N 
ATOM      8  C   UNL     1      45.833   8.547  13.085  0.00  0.00    +0.000 C 
ATOM      9  O   UNL     1      45.251   9.593  12.821  0.00  0.00    +0.000 OA
ATOM     10  H   UNL     1      47.130   9.414  14.380  0.00  0.00    +0.000 HD
ATOM     11  H   UNL     1      47.509   7.758  14.049  0.00  0.00    +0.000 HD
ENDBRANCH   1   8
BRANCH   4  12
ATOM     12  N   UNL     1      44.621   3.763  10.235  0.00  0.00    +0.000 N 
ATOM     13  H   UNL     1      43.880   3.208  10.660  0.00  0.00    +0.000 HD
BRANCH  12  14
ATOM     14  C   UNL     1      44.449   3.888   8.793  0.00  0.00    +0.000 C 
BRANCH  14  15
ATOM     15  C   UNL     1      45.375   2.922   8.093  0.00  0.00    +0.000 A 
ATOM     16  C   UNL     1      45.606   1.649   8.644  0.00  0.00    +0.000 A 
ATOM     17  C   UNL     1      46.493   0.757   8.040  0.00  0.00    +0.000 A 
ATOM     18  C   UNL     1      47.163   1.127   6.875  0.00  0.00    +0.000 A 
ATOM     19  C   UNL     1      46.941   2.387   6.323  0.00  0.00    +0.000 A 
ATOM     20 CL   UNL     1      47.780   2.846   4.890  0.00  0.00    +0.000 Cl
ATOM     21  C   UNL     1      46.056   3.285   6.923  0.00  0.00    +0.000 A 
ENDBRANCH  14  15
ENDBRANCH  12  14
ENDBRANCH   4  12
TORSDOF 4
ENDMDL
MODEL 6
REMARK VINA RESULT:    -6.162      3.767      5.896
REMARK INTER + INTRA:          -8.222
REMARK INTER:                  -7.506
REMARK INTRA:                  -0.716
REMARK UNBOUND:                -0.619
REMARK  Name = 
REMARK  4 active torsions:
REMARK  status: ('A' for Active; 'I' for Inactive)
REMARK    1  A    between atoms: C_2  and  C_4
REMARK    2  A    between atoms: C_7  and  N_8
REMARK    3  A    between atoms: N_8  and  C_9
REMARK    4  A    between atoms: C_9  and  C_10
REMARK                            x       y       z     vdW  Elec       q    Type
REMARK                         _______ _______ _______ _____ _____    ______ ____
ROOT
ATOM      1  C   UNL     1      47.430   6.773  12.890  0.00  0.00    +0.000 A 
ATOM      2  C   UNL     1      46.528   7.681  12.329  0.00  0.00    +0.000 A 
ATOM      3  C   UNL     1      45.156   7.395  12.321  0.00  0.00    +0.000 A 
ATOM      4  C   UNL     1      44.670   6.194  12.848  0.00  0.00    +0.000 A 
ATOM      5  C   UNL     1      45.580   5.318  13.454  0.00  0.00    +0.000 A 
ATOM      6  C   UNL     1      46.952   5.588  13.453  0.00  0.00    +0.000 A 
ENDROOT
BRANCH   1   8
ATOM      7  N   UNL     1      49.441   7.522  11.737  0.00  0.00    +0.000 N 
ATOM      8  C   UNL     1      48.895   7.018  12.884  0.00  0.00    +0.000 C 
ATOM      9  O   UNL     1      49.588   6.814  13.875  0.00  0.00    +0.000 OA
ATOM     10  H   UNL     1      50.417   7.785  11.786  0.00  0.00    +0.000 HD
ATOM     11  H   UNL     1      48.877   7.944  11.013  0.00  0.00    +0.000 HD
ENDBRANCH   1   8
BRANCH   4  12
ATOM     12  N   UNL     1      43.318   5.843  12.865  0.00  0.00    +0.000 N 
ATOM     13  H   UNL     1      42.784   6.472  13.462  0.00  0.00    +0.000 HD
BRANCH  12  14
ATOM     14  C   UNL     1      42.647   5.598  11.594  0.00  0.00    +0.000 C 
BRANCH  14  15
ATOM     15  C   UNL     1      43.348   4.473  10.867  0.00  0.00    +0.000 A 
ATOM     16  C   UNL     1      43.299   3.167  11.384  0.00  0.00    +0.000 A 
ATOM     17  C   UNL     1      43.976   2.122  10.756  0.00  0.00    +0.000 A 
ATOM     18  C   UNL     1      44.713   2.369   9.600  0.00  0.00    +0.000 A 
ATOM     19  C   UNL     1      44.769   3.662   9.080  0.00  0.00    +0.000 A 
ATOM     20 CL   UNL     1      45.691   3.967   7.658  0.00  0.00    +0.000 Cl
ATOM     21  C   UNL     1      44.094   4.712   9.705  0.00  0.00    +0.000 A 
ENDBRANCH  14  15
ENDBRANCH  12  14
ENDBRANCH   4  12
TORSDOF 4
ENDMDL
MODEL 7
REMARK VINA RESULT:    -5.565      2.998      4.219
REMARK INTER + INTRA:          -7.485
REMARK INTER:                  -6.922
REMARK INTRA:                  -0.564
REMARK UNBOUND:                -0.619
REMARK  Name = 
REMARK  4 active torsions:
REMARK  status: ('A' for Active; 'I' for Inactive)
REMARK    1  A    between atoms: C_2  and  C_4
REMARK    2  A    between atoms: C_7  and  N_8
REMARK    3  A    between atoms: N_8  and  C_9
REMARK    4  A    between atoms: C_9  and  C_10
REMARK                            x       y       z     vdW  Elec       q    Type
REMARK                         _______ _______ _______ _____ _____    ______ ____
ROOT
ATOM      1  C   UNL     1      45.026   3.827  10.247  0.00  0.00    +0.000 A 
ATOM      2  C   UNL     1      45.033   3.266  11.528  0.00  0.00    +0.000 A 
ATOM      3  C   UNL     1      45.379   4.049  12.637  0.00  0.00    +0.000 A 
ATOM      4  C   UNL     1      45.746   5.390  12.483  0.00  0.00    +0.000 A 
ATOM      5  C   UNL     1      45.684   5.953  11.201  0.00  0.00    +0.000 A 
ATOM      6  C   UNL     1      45.354   5.175  10.087  0.00  0.00    +0.000 A 
ENDROOT
BRANCH   1   8
ATOM      7  N   UNL     1      44.573   1.673   9.204  0.00  0.00    +0.000 N 
ATOM      8  C   UNL     1      44.704   3.024   9.041  0.00  0.00    +0.000 C 
ATOM      9  O   UNL     1      44.526   3.546   7.946  0.00  0.00    +0.000 OA
ATOM     10  H   UNL     1      44.248   1.156   8.397  0.00  0.00    +0.000 HD
ATOM     11  H   UNL     1      44.451   1.250  10.113  0.00  0.00    +0.000 HD
ENDBRANCH   1   8
BRANCH   4  12
ATOM     12  N   UNL     1      46.110   6.223  13.543  0.00  0.00    +0.000 N 
ATOM     13  H   UNL     1      45.507   6.072  14.350  0.00  0.00    +0.000 HD
BRANCH  12  14
ATOM     14  C   UNL     1      47.516   6.297  13.919  0.00  0.00    +0.000 C 
BRANCH  14  15
ATOM     15  C   UNL     1      48.201   7.360  13.092  0.00  0.00    +0.000 A 
ATOM     16  C   UNL     1      47.644   8.648  13.006  0.00  0.00    +0.000 A 
ATOM     17  C   UNL     1      48.233   9.632  12.212  0.00  0.00    +0.000 A 
ATOM     18  C   UNL     1      49.388   9.340  11.489  0.00  0.00    +0.000 A 
ATOM     19  C   UNL     1      49.947   8.065  11.566  0.00  0.00    +0.000 A 
ATOM     20 CL   UNL     1      51.367   7.703  10.663  0.00  0.00    +0.000 Cl
ATOM     21  C   UNL     1      49.361   7.075  12.359  0.00  0.00    +0.000 A 
ENDBRANCH  14  15
ENDBRANCH  12  14
ENDBRANCH   4  12
TORSDOF 4
ENDMDL
MODEL 8
REMARK VINA RESULT:    -5.495      4.894      6.732
REMARK INTER + INTRA:          -7.400
REMARK INTER:                  -6.985
REMARK INTRA:                  -0.415
REMARK UNBOUND:                -0.619
REMARK  Name = 
REMARK  4 active torsions:
REMARK  status: ('A' for Active; 'I' for Inactive)
REMARK    1  A    between atoms: C_2  and  C_4
REMARK    2  A    between atoms: C_7  and  N_8
REMARK    3  A    between atoms: N_8  and  C_9
REMARK    4  A    between atoms: C_9  and  C_10
REMARK                            x       y       z     vdW  Elec       q    Type
REMARK                         _______ _______ _______ _____ _____    ______ ____
ROOT
ATOM      1  C   UNL     1      45.330   6.552  12.462  0.00  0.00    +0.000 A 
ATOM      2  C   UNL     1      46.647   6.747  12.889  0.00  0.00    +0.000 A 
ATOM      3  C   UNL     1      47.273   5.788  13.697  0.00  0.00    +0.000 A 
ATOM      4  C   UNL     1      46.589   4.639  14.110  0.00  0.00    +0.000 A 
ATOM      5  C   UNL     1      45.289   4.433  13.632  0.00  0.00    +0.000 A 
ATOM      6  C   UNL     1      44.651   5.391  12.837  0.00  0.00    +0.000 A 
ENDROOT
BRANCH   1   8
ATOM      7  N   UNL     1      43.361   7.238  11.203  0.00  0.00    +0.000 N 
ATOM      8  C   UNL     1      44.616   7.560  11.639  0.00  0.00    +0.000 C 
ATOM      9  O   UNL     1      45.110   8.654  11.387  0.00  0.00    +0.000 OA
ATOM     10  H   UNL     1      42.848   7.976  10.737  0.00  0.00    +0.000 HD
ATOM     11  H   UNL     1      42.830   6.479  11.604  0.00  0.00    +0.000 HD
ENDBRANCH   1   8
BRANCH   4  12
ATOM     12  N   UNL     1      47.150   3.650  14.920  0.00  0.00    +0.000 N 
ATOM     13  H   UNL     1      48.066   3.370  14.575  0.00  0.00    +0.000 HD
BRANCH  12  14
ATOM     14  C   UNL     1      47.150   3.851  16.364  0.00  0.00    +0.000 C 
BRANCH  14  15
ATOM     15  C   UNL     1      48.569   3.775  16.880  0.00  0.00    +0.000 A 
ATOM     16  C   UNL     1      49.243   4.952  17.248  0.00  0.00    +0.000 A 
ATOM     17  C   UNL     1      50.568   4.913  17.684  0.00  0.00    +0.000 A 
ATOM     18  C   UNL     1      51.238   3.693  17.754  0.00  0.00    +0.000 A 
ATOM     19  C   UNL     1      50.578   2.521  17.389  0.00  0.00    +0.000 A 
ATOM     20 CL   UNL     1      51.413   1.016  17.465  0.00  0.00    +0.000 Cl
ATOM     21  C   UNL     1      49.252   2.554  16.952  0.00  0.00    +0.000 A 
ENDBRANCH  14  15
ENDBRANCH  12  14
ENDBRANCH   4  12
TORSDOF 4
ENDMDL
MODEL 9
REMARK VINA RESULT:    -5.491      3.745      5.373
REMARK INTER + INTRA:          -7.394
REMARK INTER:                  -7.041
REMARK INTRA:                  -0.353
REMARK UNBOUND:                -0.619
REMARK  Name = 
REMARK  4 active torsions:
REMARK  status: ('A' for Active; 'I' for Inactive)
REMARK    1  A    between atoms: C_2  and  C_4
REMARK    2  A    between atoms: C_7  and  N_8
REMARK    3  A    between atoms: N_8  and  C_9
REMARK    4  A    between atoms: C_9  and  C_10
REMARK                            x       y       z     vdW  Elec       q    Type
REMARK                         _______ _______ _______ _____ _____    ______ ____
ROOT
ATOM      1  C   UNL     1      45.044   4.131  11.122  0.00  0.00    +0.000 A 
ATOM      2  C   UNL     1      45.373   5.482  11.263  0.00  0.00    +0.000 A 
ATOM      3  C   UNL     1      46.056   5.923  12.404  0.00  0.00    +0.000 A 
ATOM      4  C   UNL     1      46.398   5.032  13.427  0.00  0.00    +0.000 A 
ATOM      5  C   UNL     1      46.108   3.673  13.248  0.00  0.00    +0.000 A 
ATOM      6  C   UNL     1      45.414   3.226  12.119  0.00  0.00    +0.000 A 
ENDROOT
BRANCH   1   8
ATOM      7  N   UNL     1      44.051   4.507   8.930  0.00  0.00    +0.000 N 
ATOM      8  C   UNL     1      44.286   3.627   9.949  0.00  0.00    +0.000 C 
ATOM      9  O   UNL     1      43.915   2.461   9.872  0.00  0.00    +0.000 OA
ATOM     10  H   UNL     1      43.630   4.120   8.095  0.00  0.00    +0.000 HD
ATOM     11  H   UNL     1      44.558   5.375   8.840  0.00  0.00    +0.000 HD
ENDBRANCH   1   8
BRANCH   4  12
ATOM     12  N   UNL     1      47.070   5.407  14.592  0.00  0.00    +0.000 N 
ATOM     13  H   UNL     1      46.692   6.274  14.969  0.00  0.00    +0.000 HD
BRANCH  12  14
ATOM     14  C   UNL     1      47.274   4.405  15.631  0.00  0.00    +0.000 C 
BRANCH  14  15
ATOM     15  C   UNL     1      48.074   5.011  16.761  0.00  0.00    +0.000 A 
ATOM     16  C   UNL     1      48.938   6.090  16.507  0.00  0.00    +0.000 A 
ATOM     17  C   UNL     1      49.721   6.636  17.524  0.00  0.00    +0.000 A 
ATOM     18  C   UNL     1      49.651   6.108  18.812  0.00  0.00    +0.000 A 
ATOM     19  C   UNL     1      48.798   5.037  19.073  0.00  0.00    +0.000 A 
ATOM     20 CL   UNL     1      48.722   4.378  20.662  0.00  0.00    +0.000 Cl
ATOM     21  C   UNL     1      48.013   4.485  18.058  0.00  0.00    +0.000 A 
ENDBRANCH  14  15
ENDBRANCH  12  14
ENDBRANCH   4  12
TORSDOF 4
ENDMDL
