MODEL 1
REMARK VINA RESULT:    -7.483      0.000      0.000
REMARK INTER + INTRA:         -11.603
REMARK INTER:                 -10.763
REMARK INTRA:                  -0.840
REMARK UNBOUND:                -0.840
REMARK  Name = 
REMARK  12 active torsions:
REMARK  status: ('A' for Active; 'I' for Inactive)
REMARK    1  A    between atoms: C_1  and  O_2
REMARK    2  A    between atoms: O_2  and  C_3
REMARK    3  A    between atoms: C_5  and  C_6
REMARK    4  A    between atoms: C_6  and  N_7
REMARK    5  A    between atoms: C_12  and  C_13
REMARK    6  A    between atoms: C_13  and  C_14
REMARK    7  A    between atoms: C_13  and  C_15
REMARK    8  A    between atoms: C_13  and  O_16
REMARK    9  A    between atoms: C_22  and  C_23
REMARK   10  A    between atoms: N_25  and  C_26
REMARK   11  A    between atoms: N_25  and  C_27
REMARK   12  A    between atoms: C_27  and  C_28
REMARK                            x       y       z     vdW  Elec       q    Type
REMARK                         _______ _______ _______ _____ _____    ______ ____
ROOT
ATOM      1  C   UNL     1      46.876   6.428  13.246  0.00  0.00    +0.000 A 
ATOM      2  C   UNL     1      45.901   5.898  12.373  0.00  0.00    +0.000 A 
ATOM      3  C   UNL     1      45.003   6.717  11.686  0.00  0.00    +0.000 A 
ATOM      4  C   UNL     1      45.175   8.098  11.771  0.00  0.00    +0.000 A 
ATOM      5  C   UNL     1      46.229   8.635  12.523  0.00  0.00    +0.000 A 
ATOM      6  C   UNL     1      47.059   7.830  13.324  0.00  0.00    +0.000 A 
ENDROOT
BRANCH   6   7
ATOM      7  C   UNL     1      48.158   8.464  14.153  0.00  0.00    +0.000 C 
ATOM      8  O   UNL     1      47.864   8.918  15.259  0.00  0.00    +0.000 OA
ATOM      9  N   UNL     1      49.504   8.511  13.712  0.00  0.00    +0.000 N 
ATOM     10  C   UNL     1      50.003   8.041  12.429  0.00  0.00    +0.000 C 
BRANCH   9  11
ATOM     11  C   UNL     1      50.540   8.964  14.671  0.00  0.00    +0.000 C 
BRANCH  11  12
ATOM     12  C   UNL     1      51.221   7.819  15.402  0.00  0.00    +0.000 C 
ATOM     13  N   UNL     1      51.786   6.871  16.009  0.00  0.00    +0.000 NA
ENDBRANCH  11  12
ENDBRANCH   9  11
ENDBRANCH   6   7
BRANCH   1  15
ATOM     14  C   UNL     1      46.994   4.442  14.536  0.00  0.00    +0.000 C 
ATOM     15  O   UNL     1      47.667   5.578  13.984  0.00  0.00    +0.000 OA
ENDBRANCH   1  15
BRANCH   3  16
ATOM     16  C   UNL     1      43.834   6.108  10.948  0.00  0.00    +0.000 C 
BRANCH  16  17
ATOM     17  N   UNL     1      44.104   4.713  10.638  0.00  0.00    +0.000 N 
ATOM     18  C   UNL     1      43.531   3.625  11.261  0.00  0.00    +0.000 A 
ATOM     19  C   UNL     1      43.978   2.487  10.623  0.00  0.00    +0.000 A 
ATOM     20  C   UNL     1      44.865   2.895   9.590  0.00  0.00    +0.000 A 
ATOM     21  C   UNL     1      45.621   2.241   8.606  0.00  0.00    +0.000 A 
ATOM     22  C   UNL     1      46.392   3.010   7.717  0.00  0.00    +0.000 A 
ATOM     23  C   UNL     1      46.355   4.397   7.885  0.00  0.00    +0.000 A 
ATOM     24  N   UNL     1      45.660   5.082   8.826  0.00  0.00    +0.000 NA
ATOM     25  C   UNL     1      44.936   4.283   9.633  0.00  0.00    +0.000 A 
BRANCH  22  26
ATOM     26  C   UNL     1      47.217   2.350   6.623  0.00  0.00    +0.000 C 
ATOM     27  C   UNL     1      47.195   0.821   6.755  0.00  0.00    +0.000 C 
ATOM     28  C   UNL     1      46.718   2.768   5.234  0.00  0.00    +0.000 C 
BRANCH  26  29
ATOM     29  O   UNL     1      48.583   2.776   6.699  0.00  0.00    +0.000 OA
ATOM     30  H   UNL     1      48.861   2.723   7.630  0.00  0.00    +0.000 HD
ENDBRANCH  26  29
ENDBRANCH  22  26
ENDBRANCH  16  17
ENDBRANCH   3  16
TORSDOF 8
ENDMDL
MODEL 2
REMARK VINA RESULT:    -7.069      1.125      2.105
REMARK INTER + INTRA:         -11.009
REMARK INTER:                 -10.153
REMARK INTRA:                  -0.855
REMARK UNBOUND:                -0.840
REMARK  Name = 
REMARK  12 active torsions:
REMARK  status: ('A' for Active; 'I' for Inactive)
REMARK    1  A    between atoms: C_1  and  O_2
REMARK    2  A    between atoms: O_2  and  C_3
REMARK    3  A    between atoms: C_5  and  C_6
REMARK    4  A    between atoms: C_6  and  N_7
REMARK    5  A    between atoms: C_12  and  C_13
REMARK    6  A    between atoms: C_13  and  C_14
REMARK    7  A    between atoms: C_13  and  C_15
REMARK    8  A    between atoms: C_13  and  O_16
REMARK    9  A    between atoms: C_22  and  C_23
REMARK   10  A    between atoms: N_25  and  C_26
REMARK   11  A    between atoms: N_25  and  C_27
REMARK   12  A    between atoms: C_27  and  C_28
REMARK                            x       y       z     vdW  Elec       q    Type
REMARK                         _______ _______ _______ _____ _____    ______ ____
ROOT
ATOM      1  C   UNL     1      46.335   8.524  12.513  0.00  0.00    +0.000 A 
ATOM      2  C   UNL     1      45.178   7.955  11.935  0.00  0.00    +0.000 A 
ATOM      3  C   UNL     1      45.025   6.575  11.800  0.00  0.00    +0.000 A 
ATOM      4  C   UNL     1      45.985   5.746  12.377  0.00  0.00    +0.000 A 
ATOM      5  C   UNL     1      47.067   6.297  13.077  0.00  0.00    +0.000 A 
ATOM      6  C   UNL     1      47.306   7.683  13.110  0.00  0.00    +0.000 A 
ENDROOT
BRANCH   6   7
ATOM      7  C   UNL     1      48.514   8.228  13.844  0.00  0.00    +0.000 C 
ATOM      8  O   UNL     1      48.391   8.514  15.035  0.00  0.00    +0.000 OA
ATOM      9  N   UNL     1      49.775   8.378  13.215  0.00  0.00    +0.000 N 
ATOM     10  C   UNL     1      50.074   8.107  11.817  0.00  0.00    +0.000 C 
BRANCH   9  11
ATOM     11  C   UNL     1      50.943   8.724  14.060  0.00  0.00    +0.000 C 
BRANCH  11  12
ATOM     12  C   UNL     1      51.876   9.732  13.409  0.00  0.00    +0.000 C 
ATOM     13  N   UNL     1      52.650  10.567  12.868  0.00  0.00    +0.000 NA
ENDBRANCH  11  12
ENDBRANCH   9  11
ENDBRANCH   6   7
BRANCH   1  15
ATOM     14  C   UNL     1      45.717  10.603  11.556  0.00  0.00    +0.000 C 
ATOM     15  O   UNL     1      46.490   9.890  12.526  0.00  0.00    +0.000 OA
ENDBRANCH   1  15
BRANCH   3  16
ATOM     16  C   UNL     1      43.889   6.016  10.974  0.00  0.00    +0.000 C 
BRANCH  16  17
ATOM     17  N   UNL     1      44.145   4.623  10.642  0.00  0.00    +0.000 N 
ATOM     18  C   UNL     1      43.563   3.531  11.249  0.00  0.00    +0.000 A 
ATOM     19  C   UNL     1      43.998   2.399  10.593  0.00  0.00    +0.000 A 
ATOM     20  C   UNL     1      44.886   2.814   9.565  0.00  0.00    +0.000 A 
ATOM     21  C   UNL     1      45.633   2.168   8.568  0.00  0.00    +0.000 A 
ATOM     22  C   UNL     1      46.410   2.944   7.689  0.00  0.00    +0.000 A 
ATOM     23  C   UNL     1      46.387   4.328   7.879  0.00  0.00    +0.000 A 
ATOM     24  N   UNL     1      45.700   5.005   8.832  0.00  0.00    +0.000 NA
ATOM     25  C   UNL     1      44.971   4.201   9.629  0.00  0.00    +0.000 A 
BRANCH  22  26
ATOM     26  C   UNL     1      47.226   2.293   6.584  0.00  0.00    +0.000 C 
ATOM     27  C   UNL     1      47.178   0.762   6.684  0.00  0.00    +0.000 C 
ATOM     28  C   UNL     1      46.737   2.747   5.203  0.00  0.00    +0.000 C 
BRANCH  26  29
ATOM     29  O   UNL     1      48.599   2.694   6.670  0.00  0.00    +0.000 OA
ATOM     30  H   UNL     1      49.144   1.888   6.680  0.00  0.00    +0.000 HD
ENDBRANCH  26  29
ENDBRANCH  22  26
ENDBRANCH  16  17
ENDBRANCH   3  16
TORSDOF 8
ENDMDL
MODEL 3
REMARK VINA RESULT:    -5.794      3.170      8.720
REMARK INTER + INTRA:          -9.174
REMARK INTER:                  -8.255
REMARK INTRA:                  -0.919
REMARK UNBOUND:                -0.840
REMARK  Name = 
REMARK  12 active torsions:
REMARK  status: ('A' for Active; 'I' for Inactive)
REMARK    1  A    between atoms: C_1  and  O_2
REMARK    2  A    between atoms: O_2  and  C_3
REMARK    3  A    between atoms: C_5  and  C_6
REMARK    4  A    between atoms: C_6  and  N_7
REMARK    5  A    between atoms: C_12  and  C_13
REMARK    6  A    between atoms: C_13  and  C_14
REMARK    7  A    between atoms: C_13  and  C_15
REMARK    8  A    between atoms: C_13  and  O_16
REMARK    9  A    between atoms: C_22  and  C_23
REMARK   10  A    between atoms: N_25  and  C_26
REMARK   11  A    between atoms: N_25  and  C_27
REMARK   12  A    between atoms: C_27  and  C_28
REMARK                            x       y       z     vdW  Elec       q    Type
REMARK                         _______ _______ _______ _____ _____    ______ ____
ROOT
ATOM      1  C   UNL     1      46.317   8.144  12.374  0.00  0.00    +0.000 A 
ATOM      2  C   UNL     1      47.293   8.855  13.104  0.00  0.00    +0.000 A 
ATOM      3  C   UNL     1      48.499   8.267  13.489  0.00  0.00    +0.000 A 
ATOM      4  C   UNL     1      48.788   6.989  13.017  0.00  0.00    +0.000 A 
ATOM      5  C   UNL     1      47.887   6.326  12.173  0.00  0.00    +0.000 A 
ATOM      6  C   UNL     1      46.614   6.849  11.883  0.00  0.00    +0.000 A 
ENDROOT
BRANCH   6   7
ATOM      7  C   UNL     1      45.658   6.073  11.000  0.00  0.00    +0.000 C 
ATOM      8  O   UNL     1      45.923   5.972   9.802  0.00  0.00    +0.000 OA
ATOM      9  N   UNL     1      44.502   5.436  11.516  0.00  0.00    +0.000 N 
ATOM     10  C   UNL     1      44.042   5.480  12.895  0.00  0.00    +0.000 C 
BRANCH   9  11
ATOM     11  C   UNL     1      43.739   4.535  10.620  0.00  0.00    +0.000 C 
BRANCH  11  12
ATOM     12  C   UNL     1      43.392   3.202  11.263  0.00  0.00    +0.000 C 
ATOM     13  N   UNL     1      43.103   2.098  11.797  0.00  0.00    +0.000 NA
ENDBRANCH  11  12
ENDBRANCH   9  11
ENDBRANCH   6   7
BRANCH   1  15
ATOM     14  C   UNL     1      45.142  10.132  11.838  0.00  0.00    +0.000 C 
ATOM     15  O   UNL     1      45.100   8.729  12.111  0.00  0.00    +0.000 OA
ENDBRANCH   1  15
BRANCH   3  16
ATOM     16  C   UNL     1      49.413   8.978  14.461  0.00  0.00    +0.000 C 
BRANCH  16  17
ATOM     17  N   UNL     1      48.959   8.766  15.827  0.00  0.00    +0.000 N 
ATOM     18  C   UNL     1      48.233   9.662  16.582  0.00  0.00    +0.000 A 
ATOM     19  C   UNL     1      47.927   9.056  17.781  0.00  0.00    +0.000 A 
ATOM     20  C   UNL     1      48.500   7.755  17.763  0.00  0.00    +0.000 A 
ATOM     21  C   UNL     1      48.539   6.668  18.648  0.00  0.00    +0.000 A 
ATOM     22  C   UNL     1      49.212   5.496  18.259  0.00  0.00    +0.000 A 
ATOM     23  C   UNL     1      49.811   5.502  16.996  0.00  0.00    +0.000 A 
ATOM     24  N   UNL     1      49.822   6.526  16.108  0.00  0.00    +0.000 NA
ATOM     25  C   UNL     1      49.149   7.609  16.542  0.00  0.00    +0.000 A 
BRANCH  22  26
ATOM     26  C   UNL     1      49.270   4.285  19.176  0.00  0.00    +0.000 C 
ATOM     27  C   UNL     1      48.713   4.613  20.568  0.00  0.00    +0.000 C 
ATOM     28  C   UNL     1      48.507   3.101  18.568  0.00  0.00    +0.000 C 
BRANCH  26  29
ATOM     29  O   UNL     1      50.623   3.843  19.339  0.00  0.00    +0.000 OA
ATOM     30  H   UNL     1      51.119   4.556  19.778  0.00  0.00    +0.000 HD
ENDBRANCH  26  29
ENDBRANCH  22  26
ENDBRANCH  16  17
ENDBRANCH   3  16
TORSDOF 8
ENDMDL
MODEL 4
REMARK VINA RESULT:    -5.703      2.994      7.983
REMARK INTER + INTRA:          -9.043
REMARK INTER:                  -8.145
REMARK INTRA:                  -0.898
REMARK UNBOUND:                -0.840
REMARK  Name = 
REMARK  12 active torsions:
REMARK  status: ('A' for Active; 'I' for Inactive)
REMARK    1  A    between atoms: C_1  and  O_2
REMARK    2  A    between atoms: O_2  and  C_3
REMARK    3  A    between atoms: C_5  and  C_6
REMARK    4  A    between atoms: C_6  and  N_7
REMARK    5  A    between atoms: C_12  and  C_13
REMARK    6  A    between atoms: C_13  and  C_14
REMARK    7  A    between atoms: C_13  and  C_15
REMARK    8  A    between atoms: C_13  and  O_16
REMARK    9  A    between atoms: C_22  and  C_23
REMARK   10  A    between atoms: N_25  and  C_26
REMARK   11  A    between atoms: N_25  and  C_27
REMARK   12  A    between atoms: C_27  and  C_28
REMARK                            x       y       z     vdW  Elec       q    Type
REMARK                         _______ _______ _______ _____ _____    ______ ____
ROOT
ATOM      1  C   UNL     1      44.515   6.230  11.535  0.00  0.00    +0.000 A 
ATOM      2  C   UNL     1      44.961   7.485  12.003  0.00  0.00    +0.000 A 
ATOM      3  C   UNL     1      46.165   7.629  12.693  0.00  0.00    +0.000 A 
ATOM      4  C   UNL     1      47.001   6.518  12.796  0.00  0.00    +0.000 A 
ATOM      5  C   UNL     1      46.633   5.299  12.212  0.00  0.00    +0.000 A 
ATOM      6  C   UNL     1      45.368   5.103  11.629  0.00  0.00    +0.000 A 
ENDROOT
BRANCH   6   7
ATOM      7  C   UNL     1      45.000   3.752  11.049  0.00  0.00    +0.000 C 
ATOM      8  O   UNL     1      44.570   2.888  11.812  0.00  0.00    +0.000 OA
ATOM      9  N   UNL     1      45.100   3.474   9.663  0.00  0.00    +0.000 N 
ATOM     10  C   UNL     1      45.608   4.377   8.641  0.00  0.00    +0.000 C 
BRANCH   9  11
ATOM     11  C   UNL     1      44.530   2.202   9.161  0.00  0.00    +0.000 C 
BRANCH  11  12
ATOM     12  C   UNL     1      45.567   1.291   8.522  0.00  0.00    +0.000 C 
ATOM     13  N   UNL     1      46.426   0.537   7.992  0.00  0.00    +0.000 NA
ENDBRANCH  11  12
ENDBRANCH   9  11
ENDBRANCH   6   7
BRANCH   1  15
ATOM     14  C   UNL     1      42.260   5.544  11.789  0.00  0.00    +0.000 C 
ATOM     15  O   UNL     1      43.272   6.119  10.957  0.00  0.00    +0.000 OA
ENDBRANCH   1  15
BRANCH   3  16
ATOM     16  C   UNL     1      46.497   8.935  13.377  0.00  0.00    +0.000 C 
BRANCH  16  17
ATOM     17  N   UNL     1      47.156   9.838  12.447  0.00  0.00    +0.000 N 
ATOM     18  C   UNL     1      46.538  10.826  11.710  0.00  0.00    +0.000 A 
ATOM     19  C   UNL     1      47.513  11.516  11.022  0.00  0.00    +0.000 A 
ATOM     20  C   UNL     1      48.764  10.917  11.336  0.00  0.00    +0.000 A 
ATOM     21  C   UNL     1      50.101  11.150  10.982  0.00  0.00    +0.000 A 
ATOM     22  C   UNL     1      51.104  10.330  11.530  0.00  0.00    +0.000 A 
ATOM     23  C   UNL     1      50.688   9.319  12.400  0.00  0.00    +0.000 A 
ATOM     24  N   UNL     1      49.413   9.036  12.764  0.00  0.00    +0.000 NA
ATOM     25  C   UNL     1      48.509   9.867  12.212  0.00  0.00    +0.000 A 
BRANCH  22  26
ATOM     26  C   UNL     1      52.568  10.552  11.189  0.00  0.00    +0.000 C 
ATOM     27  C   UNL     1      53.277  11.368  12.279  0.00  0.00    +0.000 C 
ATOM     28  C   UNL     1      53.290   9.215  10.978  0.00  0.00    +0.000 C 
BRANCH  26  29
ATOM     29  O   UNL     1      52.694  11.269   9.955  0.00  0.00    +0.000 OA
ATOM     30  H   UNL     1      52.705  10.618   9.231  0.00  0.00    +0.000 HD
ENDBRANCH  26  29
ENDBRANCH  22  26
ENDBRANCH  16  17
ENDBRANCH   3  16
TORSDOF 8
ENDMDL
MODEL 5
REMARK VINA RESULT:    -5.622      3.052      8.963
REMARK INTER + INTRA:          -8.926
REMARK INTER:                  -7.887
REMARK INTRA:                  -1.039
REMARK UNBOUND:                -0.840
REMARK  Name = 
REMARK  12 active torsions:
REMARK  status: ('A' for Active; 'I' for Inactive)
REMARK    1  A    between atoms: C_1  and  O_2
REMARK    2  A    between atoms: O_2  and  C_3
REMARK    3  A    between atoms: C_5  and  C_6
REMARK    4  A    between atoms: C_6  and  N_7
REMARK    5  A    between atoms: C_12  and  C_13
REMARK    6  A    between atoms: C_13  and  C_14
REMARK    7  A    between atoms: C_13  and  C_15
REMARK    8  A    between atoms: C_13  and  O_16
REMARK    9  A    between atoms: C_22  and  C_23
REMARK   10  A    between atoms: N_25  and  C_26
REMARK   11  A    between atoms: N_25  and  C_27
REMARK   12  A    between atoms: C_27  and  C_28
REMARK                            x       y       z     vdW  Elec       q    Type
REMARK                         _______ _______ _______ _____ _____    ______ ____
ROOT
ATOM      1  C   UNL     1      47.330   6.188  13.102  0.00  0.00    +0.000 A 
ATOM      2  C   UNL     1      48.053   6.968  14.030  0.00  0.00    +0.000 A 
ATOM      3  C   UNL     1      48.123   8.358  13.930  0.00  0.00    +0.000 A 
ATOM      4  C   UNL     1      47.342   8.987  12.962  0.00  0.00    +0.000 A 
ATOM      5  C   UNL     1      46.510   8.233  12.124  0.00  0.00    +0.000 A 
ATOM      6  C   UNL     1      46.528   6.827  12.125  0.00  0.00    +0.000 A 
ENDROOT
BRANCH   6   7
ATOM      7  C   UNL     1      45.640   6.056  11.169  0.00  0.00    +0.000 C 
ATOM      8  O   UNL     1      46.033   5.891  10.014  0.00  0.00    +0.000 OA
ATOM      9  N   UNL     1      44.404   5.493  11.574  0.00  0.00    +0.000 N 
ATOM     10  C   UNL     1      43.795   5.619  12.889  0.00  0.00    +0.000 C 
BRANCH   9  11
ATOM     11  C   UNL     1      43.703   4.588  10.632  0.00  0.00    +0.000 C 
BRANCH  11  12
ATOM     12  C   UNL     1      43.332   3.250  11.250  0.00  0.00    +0.000 C 
ATOM     13  N   UNL     1      43.025   2.141  11.764  0.00  0.00    +0.000 NA
ENDBRANCH  11  12
ENDBRANCH   9  11
ENDBRANCH   6   7
BRANCH   1  15
ATOM     14  C   UNL     1      46.863   4.251  14.386  0.00  0.00    +0.000 C 
ATOM     15  O   UNL     1      47.379   4.815  13.177  0.00  0.00    +0.000 OA
ENDBRANCH   1  15
BRANCH   3  16
ATOM     16  C   UNL     1      49.087   9.134  14.797  0.00  0.00    +0.000 C 
BRANCH  16  17
ATOM     17  N   UNL     1      48.842   8.851  16.202  0.00  0.00    +0.000 N 
ATOM     18  C   UNL     1      47.900   9.471  16.995  0.00  0.00    +0.000 A 
ATOM     19  C   UNL     1      47.921   8.863  18.232  0.00  0.00    +0.000 A 
ATOM     20  C   UNL     1      48.921   7.853  18.197  0.00  0.00    +0.000 A 
ATOM     21  C   UNL     1      49.413   6.902  19.103  0.00  0.00    +0.000 A 
ATOM     22  C   UNL     1      50.432   6.028  18.686  0.00  0.00    +0.000 A 
ATOM     23  C   UNL     1      50.894   6.175  17.376  0.00  0.00    +0.000 A 
ATOM     24  N   UNL     1      50.471   7.085  16.464  0.00  0.00    +0.000 NA
ATOM     25  C   UNL     1      49.487   7.879  16.927  0.00  0.00    +0.000 A 
BRANCH  22  26
ATOM     26  C   UNL     1      50.988   4.970  19.625  0.00  0.00    +0.000 C 
ATOM     27  C   UNL     1      51.939   4.016  18.889  0.00  0.00    +0.000 C 
ATOM     28  C   UNL     1      51.708   5.617  20.815  0.00  0.00    +0.000 C 
BRANCH  26  29
ATOM     29  O   UNL     1      49.927   4.185  20.183  0.00  0.00    +0.000 OA
ATOM     30  H   UNL     1      49.518   4.702  20.899  0.00  0.00    +0.000 HD
ENDBRANCH  26  29
ENDBRANCH  22  26
ENDBRANCH  16  17
ENDBRANCH   3  16
TORSDOF 8
ENDMDL
MODEL 6
REMARK VINA RESULT:    -5.537      2.542      8.264
REMARK INTER + INTRA:          -8.804
REMARK INTER:                  -8.027
REMARK INTRA:                  -0.777
REMARK UNBOUND:                -0.840
REMARK  Name = 
REMARK  12 active torsions:
REMARK  status: ('A' for Active; 'I' for Inactive)
REMARK    1  A    between atoms: C_1  and  O_2
REMARK    2  A    between atoms: O_2  and  C_3
REMARK    3  A    between atoms: C_5  and  C_6
REMARK    4  A    between atoms: C_6  and  N_7
REMARK    5  A    between atoms: C_12  and  C_13
REMARK    6  A    between atoms: C_13  and  C_14
REMARK    7  A    between atoms: C_13  and  C_15
REMARK    8  A    between atoms: C_13  and  O_16
REMARK    9  A    between atoms: C_22  and  C_23
REMARK   10  A    between atoms: N_25  and  C_26
REMARK   11  A    between atoms: N_25  and  C_27
REMARK   12  A    between atoms: C_27  and  C_28
REMARK                            x       y       z     vdW  Elec       q    Type
REMARK                         _______ _______ _______ _____ _____    ______ ____
ROOT
ATOM      1  C   UNL     1      44.722   6.538  11.757  0.00  0.00    +0.000 A 
ATOM      2  C   UNL     1      45.240   7.587  12.548  0.00  0.00    +0.000 A 
ATOM      3  C   UNL     1      46.610   7.843  12.626  0.00  0.00    +0.000 A 
ATOM      4  C   UNL     1      47.463   7.123  11.791  0.00  0.00    +0.000 A 
ATOM      5  C   UNL     1      46.944   6.176  10.897  0.00  0.00    +0.000 A 
ATOM      6  C   UNL     1      45.586   5.814  10.899  0.00  0.00    +0.000 A 
ENDROOT
BRANCH   6   7
ATOM      7  C   UNL     1      45.081   4.753   9.942  0.00  0.00    +0.000 C 
ATOM      8  O   UNL     1      44.895   5.069   8.767  0.00  0.00    +0.000 OA
ATOM      9  N   UNL     1      44.858   3.414  10.350  0.00  0.00    +0.000 N 
ATOM     10  C   UNL     1      45.009   2.891  11.699  0.00  0.00    +0.000 C 
BRANCH   9  11
ATOM     11  C   UNL     1      44.562   2.404   9.307  0.00  0.00    +0.000 C 
BRANCH  11  12
ATOM     12  C   UNL     1      45.790   1.975   8.520  0.00  0.00    +0.000 C 
ATOM     13  N   UNL     1      46.809   1.621   7.868  0.00  0.00    +0.000 NA
ENDBRANCH  11  12
ENDBRANCH   9  11
ENDBRANCH   6   7
BRANCH   1  15
ATOM     14  C   UNL     1      42.960   5.413  12.875  0.00  0.00    +0.000 C 
ATOM     15  O   UNL     1      43.376   6.255  11.796  0.00  0.00    +0.000 OA
ENDBRANCH   1  15
BRANCH   3  16
ATOM     16  C   UNL     1      47.142   8.814  13.654  0.00  0.00    +0.000 C 
BRANCH  16  17
ATOM     17  N   UNL     1      48.528   8.506  13.970  0.00  0.00    +0.000 N 
ATOM     18  C   UNL     1      49.633   9.150  13.457  0.00  0.00    +0.000 A 
ATOM     19  C   UNL     1      50.752   8.626  14.067  0.00  0.00    +0.000 A 
ATOM     20  C   UNL     1      50.315   7.617  14.968  0.00  0.00    +0.000 A 
ATOM     21  C   UNL     1      50.941   6.743  15.870  0.00  0.00    +0.000 A 
ATOM     22  C   UNL     1      50.148   5.868  16.632  0.00  0.00    +0.000 A 
ATOM     23  C   UNL     1      48.766   5.928  16.428  0.00  0.00    +0.000 A 
ATOM     24  N   UNL     1      48.109   6.736  15.561  0.00  0.00    +0.000 NA
ATOM     25  C   UNL     1      48.929   7.554  14.875  0.00  0.00    +0.000 A 
BRANCH  22  26
ATOM     26  C   UNL     1      50.776   4.912  17.633  0.00  0.00    +0.000 C 
ATOM     27  C   UNL     1      52.274   5.199  17.812  0.00  0.00    +0.000 C 
ATOM     28  C   UNL     1      50.059   4.987  18.987  0.00  0.00    +0.000 C 
BRANCH  26  29
ATOM     29  O   UNL     1      50.641   3.557  17.187  0.00  0.00    +0.000 OA
ATOM     30  H   UNL     1      50.962   2.976  17.898  0.00  0.00    +0.000 HD
ENDBRANCH  26  29
ENDBRANCH  22  26
ENDBRANCH  16  17
ENDBRANCH   3  16
TORSDOF 8
ENDMDL
MODEL 7
REMARK VINA RESULT:    -5.523      3.408      8.942
REMARK INTER + INTRA:          -8.784
REMARK INTER:                  -7.688
REMARK INTRA:                  -1.095
REMARK UNBOUND:                -0.840
REMARK  Name = 
REMARK  12 active torsions:
REMARK  status: ('A' for Active; 'I' for Inactive)
REMARK    1  A    between atoms: C_1  and  O_2
REMARK    2  A    between atoms: O_2  and  C_3
REMARK    3  A    between atoms: C_5  and  C_6
REMARK    4  A    between atoms: C_6  and  N_7
REMARK    5  A    between atoms: C_12  and  C_13
REMARK    6  A    between atoms: C_13  and  C_14
REMARK    7  A    between atoms: C_13  and  C_15
REMARK    8  A    between atoms: C_13  and  O_16
REMARK    9  A    between atoms: C_22  and  C_23
REMARK   10  A    between atoms: N_25  and  C_26
REMARK   11  A    between atoms: N_25  and  C_27
REMARK   12  A    between atoms: C_27  and  C_28
REMARK                            x       y       z     vdW  Elec       q    Type
REMARK                         _______ _______ _______ _____ _____    ______ ____
ROOT
ATOM      1  C   UNL     1      46.557   7.957  13.079  0.00  0.00    +0.000 A 
ATOM      2  C   UNL     1      47.478   8.487  14.009  0.00  0.00    +0.000 A 
ATOM      3  C   UNL     1      48.453   7.693  14.615  0.00  0.00    +0.000 A 
ATOM      4  C   UNL     1      48.593   6.377  14.179  0.00  0.00    +0.000 A 
ATOM      5  C   UNL     1      47.776   5.879  13.154  0.00  0.00    +0.000 A 
ATOM      6  C   UNL     1      46.706   6.623  12.627  0.00  0.00    +0.000 A 
ENDROOT
BRANCH   6   7
ATOM      7  C   UNL     1      45.824   6.024  11.550  0.00  0.00    +0.000 C 
ATOM      8  O   UNL     1      46.220   6.062  10.385  0.00  0.00    +0.000 OA
ATOM      9  N   UNL     1      44.589   5.396  11.849  0.00  0.00    +0.000 N 
ATOM     10  C   UNL     1      43.976   5.291  13.164  0.00  0.00    +0.000 C 
BRANCH   9  11
ATOM     11  C   UNL     1      43.894   4.664  10.763  0.00  0.00    +0.000 C 
BRANCH  11  12
ATOM     12  C   UNL     1      43.429   3.277  11.178  0.00  0.00    +0.000 C 
ATOM     13  N   UNL     1      43.043   2.128  11.520  0.00  0.00    +0.000 NA
ENDBRANCH  11  12
ENDBRANCH   9  11
ENDBRANCH   6   7
BRANCH   1  15
ATOM     14  C   UNL     1      45.961  10.019  12.071  0.00  0.00    +0.000 C 
ATOM     15  O   UNL     1      45.546   8.752  12.590  0.00  0.00    +0.000 OA
ENDBRANCH   1  15
BRANCH   3  16
ATOM     16  C   UNL     1      49.264   8.236  15.768  0.00  0.00    +0.000 C 
BRANCH  16  17
ATOM     17  N   UNL     1      49.226   7.313  16.891  0.00  0.00    +0.000 N 
ATOM     18  C   UNL     1      48.165   7.138  17.753  0.00  0.00    +0.000 A 
ATOM     19  C   UNL     1      48.487   6.117  18.621  0.00  0.00    +0.000 A 
ATOM     20  C   UNL     1      49.794   5.668  18.288  0.00  0.00    +0.000 A 
ATOM     21  C   UNL     1      50.663   4.678  18.770  0.00  0.00    +0.000 A 
ATOM     22  C   UNL     1      51.914   4.511  18.151  0.00  0.00    +0.000 A 
ATOM     23  C   UNL     1      52.210   5.363  17.082  0.00  0.00    +0.000 A 
ATOM     24  N   UNL     1      51.419   6.345  16.587  0.00  0.00    +0.000 NA
ATOM     25  C   UNL     1      50.234   6.440  17.219  0.00  0.00    +0.000 A 
BRANCH  22  26
ATOM     26  C   UNL     1      52.886   3.443  18.625  0.00  0.00    +0.000 C 
ATOM     27  C   UNL     1      54.149   3.410  17.752  0.00  0.00    +0.000 C 
ATOM     28  C   UNL     1      53.267   3.663  20.095  0.00  0.00    +0.000 C 
BRANCH  26  29
ATOM     29  O   UNL     1      52.278   2.147  18.563  0.00  0.00    +0.000 OA
ATOM     30  H   UNL     1      52.794   1.547  19.130  0.00  0.00    +0.000 HD
ENDBRANCH  26  29
ENDBRANCH  22  26
ENDBRANCH  16  17
ENDBRANCH   3  16
TORSDOF 8
ENDMDL
MODEL 8
REMARK VINA RESULT:    -5.472      3.061      8.773
REMARK INTER + INTRA:          -8.711
REMARK INTER:                  -8.111
REMARK INTRA:                  -0.600
REMARK UNBOUND:                -0.840
REMARK  Name = 
REMARK  12 active torsions:
REMARK  status: ('A' for Active; 'I' for Inactive)
REMARK    1  A    between atoms: C_1  and  O_2
REMARK    2  A    between atoms: O_2  and  C_3
REMARK    3  A    between atoms: C_5  and  C_6
REMARK    4  A    between atoms: C_6  and  N_7
REMARK    5  A    between atoms: C_12  and  C_13
REMARK    6  A    between atoms: C_13  and  C_14
REMARK    7  A    between atoms: C_13  and  C_15
REMARK    8  A    between atoms: C_13  and  O_16
REMARK    9  A    between atoms: C_22  and  C_23
REMARK   10  A    between atoms: N_25  and  C_26
REMARK   11  A    between atoms: N_25  and  C_27
REMARK   12  A    between atoms: C_27  and  C_28
REMARK                            x       y       z     vdW  Elec       q    Type
REMARK                         _______ _______ _______ _____ _____    ______ ____
ROOT
ATOM      1  C   UNL     1      46.171   8.171  12.239  0.00  0.00    +0.000 A 
ATOM      2  C   UNL     1      47.088   8.918  13.010  0.00  0.00    +0.000 A 
ATOM      3  C   UNL     1      48.216   8.332  13.585  0.00  0.00    +0.000 A 
ATOM      4  C   UNL     1      48.502   7.005  13.269  0.00  0.00    +0.000 A 
ATOM      5  C   UNL     1      47.675   6.293  12.390  0.00  0.00    +0.000 A 
ATOM      6  C   UNL     1      46.466   6.826  11.907  0.00  0.00    +0.000 A 
ENDROOT
BRANCH   6   7
ATOM      7  C   UNL     1      45.584   6.000  10.993  0.00  0.00    +0.000 C 
ATOM      8  O   UNL     1      45.939   5.844   9.825  0.00  0.00    +0.000 OA
ATOM      9  N   UNL     1      44.396   5.377  11.452  0.00  0.00    +0.000 N 
ATOM     10  C   UNL     1      43.833   5.484  12.789  0.00  0.00    +0.000 C 
BRANCH   9  11
ATOM     11  C   UNL     1      43.708   4.427  10.546  0.00  0.00    +0.000 C 
BRANCH  11  12
ATOM     12  C   UNL     1      43.339   3.116  11.221  0.00  0.00    +0.000 C 
ATOM     13  N   UNL     1      43.032   2.030  11.781  0.00  0.00    +0.000 NA
ENDBRANCH  11  12
ENDBRANCH   9  11
ENDBRANCH   6   7
BRANCH   1  15
ATOM     14  C   UNL     1      45.010  10.196  11.824  0.00  0.00    +0.000 C 
ATOM     15  O   UNL     1      45.017   8.766  11.783  0.00  0.00    +0.000 OA
ENDBRANCH   1  15
BRANCH   3  16
ATOM     16  C   UNL     1      49.043   9.104  14.588  0.00  0.00    +0.000 C 
BRANCH  16  17
ATOM     17  N   UNL     1      50.243   8.358  14.932  0.00  0.00    +0.000 N 
ATOM     18  C   UNL     1      51.510   8.603  14.448  0.00  0.00    +0.000 A 
ATOM     19  C   UNL     1      52.381   7.741  15.080  0.00  0.00    +0.000 A 
ATOM     20  C   UNL     1      51.616   6.933  15.965  0.00  0.00    +0.000 A 
ATOM     21  C   UNL     1      51.899   5.903  16.875  0.00  0.00    +0.000 A 
ATOM     22  C   UNL     1      50.845   5.338  17.613  0.00  0.00    +0.000 A 
ATOM     23  C   UNL     1      49.565   5.848  17.379  0.00  0.00    +0.000 A 
ATOM     24  N   UNL     1      49.229   6.826  16.503  0.00  0.00    +0.000 NA
ATOM     25  C   UNL     1      50.289   7.328  15.840  0.00  0.00    +0.000 A 
BRANCH  22  26
ATOM     26  C   UNL     1      51.101   4.230  18.623  0.00  0.00    +0.000 C 
ATOM     27  C   UNL     1      51.965   3.115  18.018  0.00  0.00    +0.000 C 
ATOM     28  C   UNL     1      51.767   4.786  19.888  0.00  0.00    +0.000 C 
BRANCH  26  29
ATOM     29  O   UNL     1      49.865   3.644  19.049  0.00  0.00    +0.000 OA
ATOM     30  H   UNL     1      49.855   3.646  20.022  0.00  0.00    +0.000 HD
ENDBRANCH  26  29
ENDBRANCH  22  26
ENDBRANCH  16  17
ENDBRANCH   3  16
TORSDOF 8
ENDMDL
MODEL 9
REMARK VINA RESULT:    -5.397      3.990      6.476
REMARK INTER + INTRA:          -8.602
REMARK INTER:                  -7.597
REMARK INTRA:                  -1.005
REMARK UNBOUND:                -0.840
REMARK  Name = 
REMARK  12 active torsions:
REMARK  status: ('A' for Active; 'I' for Inactive)
REMARK    1  A    between atoms: C_1  and  O_2
REMARK    2  A    between atoms: O_2  and  C_3
REMARK    3  A    between atoms: C_5  and  C_6
REMARK    4  A    between atoms: C_6  and  N_7
REMARK    5  A    between atoms: C_12  and  C_13
REMARK    6  A    between atoms: C_13  and  C_14
REMARK    7  A    between atoms: C_13  and  C_15
REMARK    8  A    between atoms: C_13  and  O_16
REMARK    9  A    between atoms: C_22  and  C_23
REMARK   10  A    between atoms: N_25  and  C_26
REMARK   11  A    between atoms: N_25  and  C_27
REMARK   12  A    between atoms: C_27  and  C_28
REMARK                            x       y       z     vdW  Elec       q    Type
REMARK                         _______ _______ _______ _____ _____    ______ ____
ROOT
ATOM      1  C   UNL     1      52.317   8.732  12.136  0.00  0.00    +0.000 A 
ATOM      2  C   UNL     1      51.192   8.734  12.990  0.00  0.00    +0.000 A 
ATOM      3  C   UNL     1      49.966   8.197  12.596  0.00  0.00    +0.000 A 
ATOM      4  C   UNL     1      49.903   7.525  11.377  0.00  0.00    +0.000 A 
ATOM      5  C   UNL     1      51.050   7.393  10.582  0.00  0.00    +0.000 A 
ATOM      6  C   UNL     1      52.257   8.039  10.902  0.00  0.00    +0.000 A 
ENDROOT
BRANCH   6   7
ATOM      7  C   UNL     1      53.458   7.900   9.987  0.00  0.00    +0.000 C 
ATOM      8  O   UNL     1      54.269   7.005  10.222  0.00  0.00    +0.000 OA
ATOM      9  N   UNL     1      53.648   8.738   8.860  0.00  0.00    +0.000 N 
ATOM     10  C   UNL     1      52.797   9.849   8.463  0.00  0.00    +0.000 C 
BRANCH   9  11
ATOM     11  C   UNL     1      54.736   8.401   7.912  0.00  0.00    +0.000 C 
BRANCH  11  12
ATOM     12  C   UNL     1      54.265   7.570   6.730  0.00  0.00    +0.000 C 
ATOM     13  N   UNL     1      53.875   6.881   5.749  0.00  0.00    +0.000 NA
ENDBRANCH  11  12
ENDBRANCH   9  11
ENDBRANCH   6   7
BRANCH   1  15
ATOM     14  C   UNL     1      54.262   8.666  13.490  0.00  0.00    +0.000 C 
ATOM     15  O   UNL     1      53.472   9.368  12.525  0.00  0.00    +0.000 OA
ENDBRANCH   1  15
BRANCH   3  16
ATOM     16  C   UNL     1      48.733   8.424  13.440  0.00  0.00    +0.000 C 
BRANCH  16  17
ATOM     17  N   UNL     1      48.046   7.165  13.679  0.00  0.00    +0.000 N 
ATOM     18  C   UNL     1      48.332   6.271  14.688  0.00  0.00    +0.000 A 
ATOM     19  C   UNL     1      47.405   5.252  14.628  0.00  0.00    +0.000 A 
ATOM     20  C   UNL     1      46.538   5.525  13.536  0.00  0.00    +0.000 A 
ATOM     21  C   UNL     1      45.418   4.900  12.968  0.00  0.00    +0.000 A 
ATOM     22  C   UNL     1      44.789   5.501  11.864  0.00  0.00    +0.000 A 
ATOM     23  C   UNL     1      45.340   6.698  11.397  0.00  0.00    +0.000 A 
ATOM     24  N   UNL     1      46.428   7.337  11.892  0.00  0.00    +0.000 NA
ATOM     25  C   UNL     1      46.970   6.712  12.954  0.00  0.00    +0.000 A 
BRANCH  22  26
ATOM     26  C   UNL     1      43.563   4.871  11.222  0.00  0.00    +0.000 C 
ATOM     27  C   UNL     1      43.527   3.355  11.459  0.00  0.00    +0.000 C 
ATOM     28  C   UNL     1      42.276   5.518  11.749  0.00  0.00    +0.000 C 
BRANCH  26  29
ATOM     29  O   UNL     1      43.567   5.093   9.806  0.00  0.00    +0.000 OA
ATOM     30  H   UNL     1      43.820   4.258   9.375  0.00  0.00    +0.000 HD
ENDBRANCH  26  29
ENDBRANCH  22  26
ENDBRANCH  16  17
ENDBRANCH   3  16
TORSDOF 8
ENDMDL
