MODEL 1
REMARK VINA RESULT:    -7.505      0.000      0.000
REMARK INTER + INTRA:         -11.522
REMARK INTER:                 -10.795
REMARK INTRA:                  -0.726
REMARK UNBOUND:                -0.726
REMARK  Name = 
REMARK  8 active torsions:
REMARK  status: ('A' for Active; 'I' for Inactive)
REMARK    1  A    between atoms: N_1  and  C_2
REMARK    2  A    between atoms: C_2  and  C_3
REMARK    3  A    between atoms: C_3  and  N_4
REMARK    4  A    between atoms: N_4  and  C_5
REMARK    5  A    between atoms: C_5  and  C_6
REMARK    6  A    between atoms: C_9  and  C_10
REMARK    7  A    between atoms: C_10  and  N_11
REMARK    8  A    between atoms: C_12  and  C_14
REMARK                            x       y       z     vdW  Elec       q    Type
REMARK                         _______ _______ _______ _____ _____    ______ ____
ROOT
ATOM      1  C   UNL     1      44.267   4.434  12.829  0.00  0.00    +0.000 C 
ENDROOT
BRANCH   1   5
ATOM      2  C   UNL     1      45.370   3.870   8.755  0.00  0.00    +0.000 A 
ATOM      3  C   UNL     1      45.615   5.106   9.346  0.00  0.00    +0.000 A 
ATOM      4  C   UNL     1      45.266   5.300  10.679  0.00  0.00    +0.000 A 
ATOM      5  C   UNL     1      44.663   4.264  11.394  0.00  0.00    +0.000 A 
ATOM      6  C   UNL     1      44.471   3.057  10.731  0.00  0.00    +0.000 A 
ATOM      7  N   UNL     1      44.808   2.837   9.439  0.00  0.00    +0.000 NA
BRANCH   2   8
ATOM      8  C   UNL     1      45.789   3.615   7.320  0.00  0.00    +0.000 C 
BRANCH   8   9
ATOM      9  N   UNL     1      47.239   3.763   7.068  0.00  0.00    +0.000 NA
ATOM     10  H   UNL     1      47.324   4.234   6.162  0.00  0.00    +0.000 HD
BRANCH   9  11
ATOM     11  C   UNL     1      47.909   2.459   6.903  0.00  0.00    +0.000 C 
BRANCH  11  12
ATOM     12  C   UNL     1      46.941   1.283   6.682  0.00  0.00    +0.000 C 
BRANCH  12  13
ATOM     13  N   UNL     1      46.788   0.484   7.903  0.00  0.00    +0.000 NA
ATOM     14  H   UNL     1      47.550   0.713   8.541  0.00  0.00    +0.000 HD
ATOM     15  H   UNL     1      46.901  -0.501   7.669  0.00  0.00    +0.000 HD
ENDBRANCH  12  13
ENDBRANCH  11  12
ENDBRANCH   9  11
ENDBRANCH   8   9
ENDBRANCH   2   8
ENDBRANCH   1   5
BRANCH   1  16
ATOM     16  N   UNL     1      45.298   5.094  13.592  0.00  0.00    +0.000 N 
ATOM     17  C   UNL     1      46.385   4.390  14.049  0.00  0.00    +0.000 C 
ATOM     18  O   UNL     1      46.550   3.205  13.771  0.00  0.00    +0.000 OA
ATOM     19  H   UNL     1      45.067   5.986  14.018  0.00  0.00    +0.000 HD
BRANCH  17  20
ATOM     20  C   UNL     1      47.374   5.133  14.840  0.00  0.00    +0.000 A 
ATOM     21  C   UNL     1      48.090   6.162  14.245  0.00  0.00    +0.000 A 
ATOM     22  S   UNL     1      49.172   6.946  15.302  0.00  0.00    +0.000 S 
ATOM     23  C   UNL     1      48.759   5.907  16.584  0.00  0.00    +0.000 A 
ATOM     24  N   UNL     1      49.357   6.024  17.800  0.00  0.00    +0.000 NA
ATOM     25  C   UNL     1      48.966   5.153  18.670  0.00  0.00    +0.000 A 
ATOM     26  N   UNL     1      48.027   4.183  18.439  0.00  0.00    +0.000 N 
ATOM     27  C   UNL     1      47.375   4.044  17.236  0.00  0.00    +0.000 A 
ATOM     28  O   UNL     1      46.509   3.191  17.073  0.00  0.00    +0.000 OA
ATOM     29  C   UNL     1      47.788   4.988  16.215  0.00  0.00    +0.000 A 
ATOM     30  H   UNL     1      47.761   3.537  19.167  0.00  0.00    +0.000 HD
ENDBRANCH  17  20
ENDBRANCH   1  16
TORSDOF 8
ENDMDL
MODEL 2
REMARK VINA RESULT:    -7.103      1.514      2.253
REMARK INTER + INTRA:         -10.944
REMARK INTER:                  -9.701
REMARK INTRA:                  -1.243
REMARK UNBOUND:                -0.726
REMARK  Name = 
REMARK  8 active torsions:
REMARK  status: ('A' for Active; 'I' for Inactive)
REMARK    1  A    between atoms: N_1  and  C_2
REMARK    2  A    between atoms: C_2  and  C_3
REMARK    3  A    between atoms: C_3  and  N_4
REMARK    4  A    between atoms: N_4  and  C_5
REMARK    5  A    between atoms: C_5  and  C_6
REMARK    6  A    between atoms: C_9  and  C_10
REMARK    7  A    between atoms: C_10  and  N_11
REMARK    8  A    between atoms: C_12  and  C_14
REMARK                            x       y       z     vdW  Elec       q    Type
REMARK                         _______ _______ _______ _____ _____    ______ ____
ROOT
ATOM      1  C   UNL     1      45.231   6.957  12.001  0.00  0.00    +0.000 C 
ENDROOT
BRANCH   1   5
ATOM      2  C   UNL     1      44.932   3.402   9.676  0.00  0.00    +0.000 A 
ATOM      3  C   UNL     1      44.353   3.420  10.941  0.00  0.00    +0.000 A 
ATOM      4  C   UNL     1      44.438   4.578  11.708  0.00  0.00    +0.000 A 
ATOM      5  C   UNL     1      45.113   5.692  11.206  0.00  0.00    +0.000 A 
ATOM      6  C   UNL     1      45.645   5.593   9.925  0.00  0.00    +0.000 A 
ATOM      7  N   UNL     1      45.571   4.483   9.155  0.00  0.00    +0.000 NA
BRANCH   2   8
ATOM      8  C   UNL     1      44.808   2.170   8.800  0.00  0.00    +0.000 C 
BRANCH   8   9
ATOM      9  N   UNL     1      46.076   1.443   8.577  0.00  0.00    +0.000 NA
ATOM     10  H   UNL     1      46.779   1.914   9.153  0.00  0.00    +0.000 HD
BRANCH   9  11
ATOM     11  C   UNL     1      46.551   1.570   7.186  0.00  0.00    +0.000 C 
BRANCH  11  12
ATOM     12  C   UNL     1      47.571   2.704   6.976  0.00  0.00    +0.000 C 
BRANCH  12  13
ATOM     13  N   UNL     1      46.914   3.929   6.507  0.00  0.00    +0.000 NA
ATOM     14  H   UNL     1      47.038   4.656   7.212  0.00  0.00    +0.000 HD
ATOM     15  H   UNL     1      45.910   3.762   6.448  0.00  0.00    +0.000 HD
ENDBRANCH  12  13
ENDBRANCH  11  12
ENDBRANCH   9  11
ENDBRANCH   8   9
ENDBRANCH   2   8
ENDBRANCH   1   5
BRANCH   1  16
ATOM     16  N   UNL     1      45.967   6.753  13.223  0.00  0.00    +0.000 N 
ATOM     17  C   UNL     1      47.340   6.791  13.223  0.00  0.00    +0.000 C 
ATOM     18  O   UNL     1      47.979   7.064  12.210  0.00  0.00    +0.000 OA
ATOM     19  H   UNL     1      45.481   6.305  13.994  0.00  0.00    +0.000 HD
BRANCH  17  20
ATOM     20  C   UNL     1      48.012   6.546  14.506  0.00  0.00    +0.000 A 
ATOM     21  C   UNL     1      48.904   7.487  14.999  0.00  0.00    +0.000 A 
ATOM     22  S   UNL     1      49.573   7.071  16.511  0.00  0.00    +0.000 S 
ATOM     23  C   UNL     1      48.731   5.594  16.539  0.00  0.00    +0.000 A 
ATOM     24  N   UNL     1      48.881   4.724  17.573  0.00  0.00    +0.000 NA
ATOM     25  C   UNL     1      48.203   3.631  17.451  0.00  0.00    +0.000 A 
ATOM     26  N   UNL     1      47.384   3.333  16.394  0.00  0.00    +0.000 N 
ATOM     27  C   UNL     1      47.179   4.193  15.340  0.00  0.00    +0.000 A 
ATOM     28  O   UNL     1      46.406   3.915  14.430  0.00  0.00    +0.000 OA
ATOM     29  C   UNL     1      47.930   5.431  15.420  0.00  0.00    +0.000 A 
ATOM     30  H   UNL     1      46.875   2.462  16.364  0.00  0.00    +0.000 HD
ENDBRANCH  17  20
ENDBRANCH   1  16
TORSDOF 8
ENDMDL
MODEL 3
REMARK VINA RESULT:    -6.967      1.718      2.699
REMARK INTER + INTRA:         -10.748
REMARK INTER:                  -9.865
REMARK INTRA:                  -0.883
REMARK UNBOUND:                -0.726
REMARK  Name = 
REMARK  8 active torsions:
REMARK  status: ('A' for Active; 'I' for Inactive)
REMARK    1  A    between atoms: N_1  and  C_2
REMARK    2  A    between atoms: C_2  and  C_3
REMARK    3  A    between atoms: C_3  and  N_4
REMARK    4  A    between atoms: N_4  and  C_5
REMARK    5  A    between atoms: C_5  and  C_6
REMARK    6  A    between atoms: C_9  and  C_10
REMARK    7  A    between atoms: C_10  and  N_11
REMARK    8  A    between atoms: C_12  and  C_14
REMARK                            x       y       z     vdW  Elec       q    Type
REMARK                         _______ _______ _______ _____ _____    ______ ____
ROOT
ATOM      1  C   UNL     1      44.354   4.499  12.826  0.00  0.00    +0.000 C 
ENDROOT
BRANCH   1   5
ATOM      2  C   UNL     1      45.216   3.836   8.708  0.00  0.00    +0.000 A 
ATOM      3  C   UNL     1      45.574   5.056   9.275  0.00  0.00    +0.000 A 
ATOM      4  C   UNL     1      45.304   5.281  10.622  0.00  0.00    +0.000 A 
ATOM      5  C   UNL     1      44.667   4.294  11.374  0.00  0.00    +0.000 A 
ATOM      6  C   UNL     1      44.361   3.099  10.732  0.00  0.00    +0.000 A 
ATOM      7  N   UNL     1      44.618   2.849   9.428  0.00  0.00    +0.000 NA
BRANCH   2   8
ATOM      8  C   UNL     1      45.547   3.545   7.257  0.00  0.00    +0.000 C 
BRANCH   8   9
ATOM      9  N   UNL     1      46.935   3.872   6.865  0.00  0.00    +0.000 NA
ATOM     10  H   UNL     1      46.891   4.174   5.888  0.00  0.00    +0.000 HD
BRANCH   9  11
ATOM     11  C   UNL     1      47.809   2.683   6.875  0.00  0.00    +0.000 C 
BRANCH  11  12
ATOM     12  C   UNL     1      47.081   1.370   6.533  0.00  0.00    +0.000 C 
BRANCH  12  13
ATOM     13  N   UNL     1      47.124   0.430   7.659  0.00  0.00    +0.000 NA
ATOM     14  H   UNL     1      46.622   0.840   8.446  0.00  0.00    +0.000 HD
ATOM     15  H   UNL     1      48.091   0.326   7.964  0.00  0.00    +0.000 HD
ENDBRANCH  12  13
ENDBRANCH  11  12
ENDBRANCH   9  11
ENDBRANCH   8   9
ENDBRANCH   2   8
ENDBRANCH   1   5
BRANCH   1  16
ATOM     16  N   UNL     1      45.405   5.219  13.501  0.00  0.00    +0.000 N 
ATOM     17  C   UNL     1      46.506   4.556  13.983  0.00  0.00    +0.000 C 
ATOM     18  O   UNL     1      46.665   3.351  13.800  0.00  0.00    +0.000 OA
ATOM     19  H   UNL     1      45.184   6.144  13.858  0.00  0.00    +0.000 HD
BRANCH  17  20
ATOM     20  C   UNL     1      47.515   5.362  14.681  0.00  0.00    +0.000 A 
ATOM     21  C   UNL     1      47.844   5.056  15.994  0.00  0.00    +0.000 A 
ATOM     22  S   UNL     1      49.054   6.061  16.650  0.00  0.00    +0.000 S 
ATOM     23  C   UNL     1      49.149   6.974  15.218  0.00  0.00    +0.000 A 
ATOM     24  N   UNL     1      49.997   8.033  15.120  0.00  0.00    +0.000 NA
ATOM     25  C   UNL     1      49.946   8.650  13.987  0.00  0.00    +0.000 A 
ATOM     26  N   UNL     1      49.132   8.302  12.941  0.00  0.00    +0.000 N 
ATOM     27  C   UNL     1      48.279   7.223  12.984  0.00  0.00    +0.000 A 
ATOM     28  O   UNL     1      47.593   6.912  12.017  0.00  0.00    +0.000 OA
ATOM     29  C   UNL     1      48.285   6.502  14.242  0.00  0.00    +0.000 A 
ATOM     30  H   UNL     1      49.147   8.824  12.078  0.00  0.00    +0.000 HD
ENDBRANCH  17  20
ENDBRANCH   1  16
TORSDOF 8
ENDMDL
MODEL 4
REMARK VINA RESULT:    -6.959      3.768      8.231
REMARK INTER + INTRA:         -10.737
REMARK INTER:                  -9.764
REMARK INTRA:                  -0.973
REMARK UNBOUND:                -0.726
REMARK  Name = 
REMARK  8 active torsions:
REMARK  status: ('A' for Active; 'I' for Inactive)
REMARK    1  A    between atoms: N_1  and  C_2
REMARK    2  A    between atoms: C_2  and  C_3
REMARK    3  A    between atoms: C_3  and  N_4
REMARK    4  A    between atoms: N_4  and  C_5
REMARK    5  A    between atoms: C_5  and  C_6
REMARK    6  A    between atoms: C_9  and  C_10
REMARK    7  A    between atoms: C_10  and  N_11
REMARK    8  A    between atoms: C_12  and  C_14
REMARK                            x       y       z     vdW  Elec       q    Type
REMARK                         _______ _______ _______ _____ _____    ______ ____
ROOT
ATOM      1  C   UNL     1      47.162   3.386  16.918  0.00  0.00    +0.000 C 
ENDROOT
BRANCH   1   5
ATOM      2  C   UNL     1      51.348   3.446  17.701  0.00  0.00    +0.000 A 
ATOM      3  C   UNL     1      50.598   4.579  18.004  0.00  0.00    +0.000 A 
ATOM      4  C   UNL     1      49.228   4.569  17.759  0.00  0.00    +0.000 A 
ATOM      5  C   UNL     1      48.633   3.436  17.201  0.00  0.00    +0.000 A 
ATOM      6  C   UNL     1      49.454   2.343  16.947  0.00  0.00    +0.000 A 
ATOM      7  N   UNL     1      50.787   2.322  17.182  0.00  0.00    +0.000 NA
BRANCH   2   8
ATOM      8  C   UNL     1      52.833   3.413  18.007  0.00  0.00    +0.000 C 
BRANCH   8   9
ATOM      9  N   UNL     1      53.224   2.444  19.053  0.00  0.00    +0.000 NA
ATOM     10  H   UNL     1      53.685   2.988  19.788  0.00  0.00    +0.000 HD
BRANCH   9  11
ATOM     11  C   UNL     1      54.236   1.485  18.572  0.00  0.00    +0.000 C 
BRANCH  11  12
ATOM     12  C   UNL     1      53.658   0.346  17.713  0.00  0.00    +0.000 C 
BRANCH  12  13
ATOM     13  N   UNL     1      52.407  -0.167  18.284  0.00  0.00    +0.000 NA
ATOM     14  H   UNL     1      52.291   0.222  19.219  0.00  0.00    +0.000 HD
ATOM     15  H   UNL     1      52.491  -1.176  18.406  0.00  0.00    +0.000 HD
ENDBRANCH  12  13
ENDBRANCH  11  12
ENDBRANCH   9  11
ENDBRANCH   8   9
ENDBRANCH   2   8
ENDBRANCH   1   5
BRANCH   1  16
ATOM     16  N   UNL     1      46.770   4.385  15.955  0.00  0.00    +0.000 N 
ATOM     17  C   UNL     1      46.914   4.148  14.610  0.00  0.00    +0.000 C 
ATOM     18  O   UNL     1      47.312   3.068  14.183  0.00  0.00    +0.000 OA
ATOM     19  H   UNL     1      46.666   5.339  16.285  0.00  0.00    +0.000 HD
BRANCH  17  20
ATOM     20  C   UNL     1      46.515   5.229  13.699  0.00  0.00    +0.000 A 
ATOM     21  C   UNL     1      47.394   6.274  13.453  0.00  0.00    +0.000 A 
ATOM     22  S   UNL     1      46.797   7.427  12.350  0.00  0.00    +0.000 S 
ATOM     23  C   UNL     1      45.320   6.598  12.197  0.00  0.00    +0.000 A 
ATOM     24  N   UNL     1      44.327   7.079  11.401  0.00  0.00    +0.000 NA
ATOM     25  C   UNL     1      43.253   6.362  11.401  0.00  0.00    +0.000 A 
ATOM     26  N   UNL     1      43.083   5.206  12.115  0.00  0.00    +0.000 N 
ATOM     27  C   UNL     1      44.067   4.666  12.911  0.00  0.00    +0.000 A 
ATOM     28  O   UNL     1      43.899   3.607  13.505  0.00  0.00    +0.000 OA
ATOM     29  C   UNL     1      45.292   5.441  12.960  0.00  0.00    +0.000 A 
ATOM     30  H   UNL     1      42.218   4.688  12.064  0.00  0.00    +0.000 HD
ENDBRANCH  17  20
ENDBRANCH   1  16
TORSDOF 8
ENDMDL
MODEL 5
REMARK VINA RESULT:    -6.843      3.837      8.096
REMARK INTER + INTRA:         -10.569
REMARK INTER:                  -9.717
REMARK INTRA:                  -0.853
REMARK UNBOUND:                -0.726
REMARK  Name = 
REMARK  8 active torsions:
REMARK  status: ('A' for Active; 'I' for Inactive)
REMARK    1  A    between atoms: N_1  and  C_2
REMARK    2  A    between atoms: C_2  and  C_3
REMARK    3  A    between atoms: C_3  and  N_4
REMARK    4  A    between atoms: N_4  and  C_5
REMARK    5  A    between atoms: C_5  and  C_6
REMARK    6  A    between atoms: C_9  and  C_10
REMARK    7  A    between atoms: C_10  and  N_11
REMARK    8  A    between atoms: C_12  and  C_14
REMARK                            x       y       z     vdW  Elec       q    Type
REMARK                         _______ _______ _______ _____ _____    ______ ____
ROOT
ATOM      1  C   UNL     1      48.850   5.956  16.975  0.00  0.00    +0.000 C 
ENDROOT
BRANCH   1   5
ATOM      2  C   UNL     1      50.971   2.299  17.486  0.00  0.00    +0.000 A 
ATOM      3  C   UNL     1      49.606   2.245  17.218  0.00  0.00    +0.000 A 
ATOM      4  C   UNL     1      48.904   3.433  17.042  0.00  0.00    +0.000 A 
ATOM      5  C   UNL     1      49.571   4.654  17.154  0.00  0.00    +0.000 A 
ATOM      6  C   UNL     1      50.937   4.615  17.406  0.00  0.00    +0.000 A 
ATOM      7  N   UNL     1      51.648   3.475  17.573  0.00  0.00    +0.000 NA
BRANCH   2   8
ATOM      8  C   UNL     1      51.769   1.017  17.630  0.00  0.00    +0.000 C 
BRANCH   8   9
ATOM      9  N   UNL     1      53.103   1.189  18.246  0.00  0.00    +0.000 NA
ATOM     10  H   UNL     1      53.590   1.889  17.680  0.00  0.00    +0.000 HD
BRANCH   9  11
ATOM     11  C   UNL     1      53.919  -0.037  18.153  0.00  0.00    +0.000 C 
BRANCH  11  12
ATOM     12  C   UNL     1      54.810  -0.100  16.899  0.00  0.00    +0.000 C 
BRANCH  12  13
ATOM     13  N   UNL     1      54.189  -0.915  15.847  0.00  0.00    +0.000 NA
ATOM     14  H   UNL     1      53.251  -0.557  15.668  0.00  0.00    +0.000 HD
ATOM     15  H   UNL     1      54.067  -1.864  16.197  0.00  0.00    +0.000 HD
ENDBRANCH  12  13
ENDBRANCH  11  12
ENDBRANCH   9  11
ENDBRANCH   8   9
ENDBRANCH   2   8
ENDBRANCH   1   5
BRANCH   1  16
ATOM     16  N   UNL     1      47.886   5.889  15.906  0.00  0.00    +0.000 N 
ATOM     17  C   UNL     1      48.223   6.295  14.638  0.00  0.00    +0.000 C 
ATOM     18  O   UNL     1      49.362   6.660  14.358  0.00  0.00    +0.000 OA
ATOM     19  H   UNL     1      46.906   5.818  16.162  0.00  0.00    +0.000 HD
BRANCH  17  20
ATOM     20  C   UNL     1      47.173   6.219  13.614  0.00  0.00    +0.000 A 
ATOM     21  C   UNL     1      46.717   7.386  13.017  0.00  0.00    +0.000 A 
ATOM     22  S   UNL     1      45.524   7.127  11.828  0.00  0.00    +0.000 S 
ATOM     23  C   UNL     1      45.538   5.448  12.101  0.00  0.00    +0.000 A 
ATOM     24  N   UNL     1      44.709   4.621  11.409  0.00  0.00    +0.000 NA
ATOM     25  C   UNL     1      44.808   3.375  11.737  0.00  0.00    +0.000 A 
ATOM     26  N   UNL     1      45.665   2.881  12.685  0.00  0.00    +0.000 N 
ATOM     27  C   UNL     1      46.540   3.675  13.389  0.00  0.00    +0.000 A 
ATOM     28  O   UNL     1      47.324   3.196  14.202  0.00  0.00    +0.000 OA
ATOM     29  C   UNL     1      46.460   5.087  13.071  0.00  0.00    +0.000 A 
ATOM     30  H   UNL     1      45.697   1.893  12.888  0.00  0.00    +0.000 HD
ENDBRANCH  17  20
ENDBRANCH   1  16
TORSDOF 8
ENDMDL
MODEL 6
REMARK VINA RESULT:    -6.698      3.490      4.030
REMARK INTER + INTRA:         -10.361
REMARK INTER:                  -9.831
REMARK INTRA:                  -0.530
REMARK UNBOUND:                -0.726
REMARK  Name = 
REMARK  8 active torsions:
REMARK  status: ('A' for Active; 'I' for Inactive)
REMARK    1  A    between atoms: N_1  and  C_2
REMARK    2  A    between atoms: C_2  and  C_3
REMARK    3  A    between atoms: C_3  and  N_4
REMARK    4  A    between atoms: N_4  and  C_5
REMARK    5  A    between atoms: C_5  and  C_6
REMARK    6  A    between atoms: C_9  and  C_10
REMARK    7  A    between atoms: C_10  and  N_11
REMARK    8  A    between atoms: C_12  and  C_14
REMARK                            x       y       z     vdW  Elec       q    Type
REMARK                         _______ _______ _______ _____ _____    ______ ____
ROOT
ATOM      1  C   UNL     1      43.564   6.048  11.633  0.00  0.00    +0.000 C 
ENDROOT
BRANCH   1   5
ATOM      2  C   UNL     1      44.562   2.586   9.364  0.00  0.00    +0.000 A 
ATOM      3  C   UNL     1      45.058   3.818   8.950  0.00  0.00    +0.000 A 
ATOM      4  C   UNL     1      44.744   4.956   9.687  0.00  0.00    +0.000 A 
ATOM      5  C   UNL     1      43.929   4.847  10.815  0.00  0.00    +0.000 A 
ATOM      6  C   UNL     1      43.493   3.575  11.167  0.00  0.00    +0.000 A 
ATOM      7  N   UNL     1      43.788   2.450  10.474  0.00  0.00    +0.000 NA
BRANCH   2   8
ATOM      8  C   UNL     1      44.932   1.324   8.609  0.00  0.00    +0.000 C 
BRANCH   8   9
ATOM      9  N   UNL     1      46.386   1.085   8.486  0.00  0.00    +0.000 NA
ATOM     10  H   UNL     1      46.845   1.910   8.880  0.00  0.00    +0.000 HD
BRANCH   9  11
ATOM     11  C   UNL     1      46.822   1.022   7.077  0.00  0.00    +0.000 C 
BRANCH  11  12
ATOM     12  C   UNL     1      47.660   2.232   6.628  0.00  0.00    +0.000 C 
BRANCH  12  13
ATOM     13  N   UNL     1      48.532   1.885   5.499  0.00  0.00    +0.000 NA
ATOM     14  H   UNL     1      48.903   0.947   5.650  0.00  0.00    +0.000 HD
ATOM     15  H   UNL     1      49.336   2.511   5.501  0.00  0.00    +0.000 HD
ENDBRANCH  12  13
ENDBRANCH  11  12
ENDBRANCH   9  11
ENDBRANCH   8   9
ENDBRANCH   2   8
ENDBRANCH   1   5
BRANCH   1  16
ATOM     16  N   UNL     1      44.580   7.068  11.565  0.00  0.00    +0.000 N 
ATOM     17  C   UNL     1      45.595   7.103  12.489  0.00  0.00    +0.000 C 
ATOM     18  O   UNL     1      45.711   6.239  13.354  0.00  0.00    +0.000 OA
ATOM     19  H   UNL     1      44.374   7.900  11.020  0.00  0.00    +0.000 HD
BRANCH  17  20
ATOM     20  C   UNL     1      46.573   8.191  12.362  0.00  0.00    +0.000 A 
ATOM     21  C   UNL     1      46.130   9.479  12.094  0.00  0.00    +0.000 A 
ATOM     22  S   UNL     1      47.383  10.632  12.010  0.00  0.00    +0.000 S 
ATOM     23  C   UNL     1      48.569   9.443  12.281  0.00  0.00    +0.000 A 
ATOM     24  N   UNL     1      49.890   9.767  12.305  0.00  0.00    +0.000 NA
ATOM     25  C   UNL     1      50.679   8.763  12.494  0.00  0.00    +0.000 A 
ATOM     26  N   UNL     1      50.269   7.467  12.670  0.00  0.00    +0.000 N 
ATOM     27  C   UNL     1      48.945   7.097  12.682  0.00  0.00    +0.000 A 
ATOM     28  O   UNL     1      48.608   5.935  12.884  0.00  0.00    +0.000 OA
ATOM     29  C   UNL     1      48.014   8.186  12.458  0.00  0.00    +0.000 A 
ATOM     30  H   UNL     1      50.940   6.729  12.821  0.00  0.00    +0.000 HD
ENDBRANCH  17  20
ENDBRANCH   1  16
TORSDOF 8
ENDMDL
MODEL 7
REMARK VINA RESULT:    -6.596      2.294      3.512
REMARK INTER + INTRA:         -10.215
REMARK INTER:                  -9.223
REMARK INTRA:                  -0.991
REMARK UNBOUND:                -0.726
REMARK  Name = 
REMARK  8 active torsions:
REMARK  status: ('A' for Active; 'I' for Inactive)
REMARK    1  A    between atoms: N_1  and  C_2
REMARK    2  A    between atoms: C_2  and  C_3
REMARK    3  A    between atoms: C_3  and  N_4
REMARK    4  A    between atoms: N_4  and  C_5
REMARK    5  A    between atoms: C_5  and  C_6
REMARK    6  A    between atoms: C_9  and  C_10
REMARK    7  A    between atoms: C_10  and  N_11
REMARK    8  A    between atoms: C_12  and  C_14
REMARK                            x       y       z     vdW  Elec       q    Type
REMARK                         _______ _______ _______ _____ _____    ______ ____
ROOT
ATOM      1  C   UNL     1      48.302   6.564  13.391  0.00  0.00    +0.000 C 
ENDROOT
BRANCH   1   5
ATOM      2  C   UNL     1      44.853   5.102  11.365  0.00  0.00    +0.000 A 
ATOM      3  C   UNL     1      45.211   4.517  12.576  0.00  0.00    +0.000 A 
ATOM      4  C   UNL     1      46.333   4.990  13.251  0.00  0.00    +0.000 A 
ATOM      5  C   UNL     1      47.086   6.028  12.698  0.00  0.00    +0.000 A 
ATOM      6  C   UNL     1      46.645   6.566  11.495  0.00  0.00    +0.000 A 
ATOM      7  N   UNL     1      45.555   6.132  10.821  0.00  0.00    +0.000 NA
BRANCH   2   8
ATOM      8  C   UNL     1      43.605   4.640  10.637  0.00  0.00    +0.000 C 
BRANCH   8   9
ATOM      9  N   UNL     1      43.774   4.464   9.178  0.00  0.00    +0.000 NA
ATOM     10  H   UNL     1      42.832   4.353   8.794  0.00  0.00    +0.000 HD
BRANCH   9  11
ATOM     11  C   UNL     1      44.490   3.216   8.849  0.00  0.00    +0.000 C 
BRANCH  11  12
ATOM     12  C   UNL     1      45.687   3.415   7.902  0.00  0.00    +0.000 C 
BRANCH  12  13
ATOM     13  N   UNL     1      46.253   4.763   8.036  0.00  0.00    +0.000 NA
ATOM     14  H   UNL     1      46.923   4.761   8.805  0.00  0.00    +0.000 HD
ATOM     15  H   UNL     1      45.510   5.405   8.311  0.00  0.00    +0.000 HD
ENDBRANCH  12  13
ENDBRANCH  11  12
ENDBRANCH   9  11
ENDBRANCH   8   9
ENDBRANCH   2   8
ENDBRANCH   1   5
BRANCH   1  16
ATOM     16  N   UNL     1      48.111   6.643  14.817  0.00  0.00    +0.000 N 
ATOM     17  C   UNL     1      49.188   6.792  15.656  0.00  0.00    +0.000 C 
ATOM     18  O   UNL     1      50.330   6.929  15.224  0.00  0.00    +0.000 OA
ATOM     19  H   UNL     1      47.231   6.305  15.193  0.00  0.00    +0.000 HD
BRANCH  17  20
ATOM     20  C   UNL     1      48.908   6.838  17.097  0.00  0.00    +0.000 A 
ATOM     21  C   UNL     1      48.626   8.056  17.699  0.00  0.00    +0.000 A 
ATOM     22  S   UNL     1      48.291   7.936  19.366  0.00  0.00    +0.000 S 
ATOM     23  C   UNL     1      48.558   6.257  19.354  0.00  0.00    +0.000 A 
ATOM     24  N   UNL     1      48.456   5.525  20.497  0.00  0.00    +0.000 NA
ATOM     25  C   UNL     1      48.711   4.268  20.347  0.00  0.00    +0.000 A 
ATOM     26  N   UNL     1      49.049   3.674  19.159  0.00  0.00    +0.000 N 
ATOM     27  C   UNL     1      49.137   4.367  17.974  0.00  0.00    +0.000 A 
ATOM     28  O   UNL     1      49.401   3.799  16.920  0.00  0.00    +0.000 OA
ATOM     29  C   UNL     1      48.875   5.789  18.089  0.00  0.00    +0.000 A 
ATOM     30  H   UNL     1      49.229   2.682  19.110  0.00  0.00    +0.000 HD
ENDBRANCH  17  20
ENDBRANCH   1  16
TORSDOF 8
ENDMDL
MODEL 8
REMARK VINA RESULT:    -6.512      2.895      7.830
REMARK INTER + INTRA:         -10.094
REMARK INTER:                  -9.111
REMARK INTRA:                  -0.983
REMARK UNBOUND:                -0.726
REMARK  Name = 
REMARK  8 active torsions:
REMARK  status: ('A' for Active; 'I' for Inactive)
REMARK    1  A    between atoms: N_1  and  C_2
REMARK    2  A    between atoms: C_2  and  C_3
REMARK    3  A    between atoms: C_3  and  N_4
REMARK    4  A    between atoms: N_4  and  C_5
REMARK    5  A    between atoms: C_5  and  C_6
REMARK    6  A    between atoms: C_9  and  C_10
REMARK    7  A    between atoms: C_10  and  N_11
REMARK    8  A    between atoms: C_12  and  C_14
REMARK                            x       y       z     vdW  Elec       q    Type
REMARK                         _______ _______ _______ _____ _____    ______ ____
ROOT
ATOM      1  C   UNL     1      47.984   7.018  13.615  0.00  0.00    +0.000 C 
ENDROOT
BRANCH   1   5
ATOM      2  C   UNL     1      49.006   5.335  17.390  0.00  0.00    +0.000 A 
ATOM      3  C   UNL     1      47.963   4.763  16.667  0.00  0.00    +0.000 A 
ATOM      4  C   UNL     1      47.625   5.300  15.429  0.00  0.00    +0.000 A 
ATOM      5  C   UNL     1      48.320   6.407  14.942  0.00  0.00    +0.000 A 
ATOM      6  C   UNL     1      49.359   6.903  15.721  0.00  0.00    +0.000 A 
ATOM      7  N   UNL     1      49.716   6.397  16.925  0.00  0.00    +0.000 NA
BRANCH   2   8
ATOM      8  C   UNL     1      49.429   4.736  18.718  0.00  0.00    +0.000 C 
BRANCH   8   9
ATOM      9  N   UNL     1      49.785   3.302  18.660  0.00  0.00    +0.000 NA
ATOM     10  H   UNL     1      50.102   3.049  19.600  0.00  0.00    +0.000 HD
BRANCH   9  11
ATOM     11  C   UNL     1      50.936   3.051  17.771  0.00  0.00    +0.000 C 
BRANCH  11  12
ATOM     12  C   UNL     1      50.864   1.708  17.021  0.00  0.00    +0.000 C 
BRANCH  12  13
ATOM     13  N   UNL     1      49.724   1.677  16.097  0.00  0.00    +0.000 NA
ATOM     14  H   UNL     1      48.922   1.272  16.580  0.00  0.00    +0.000 HD
ATOM     15  H   UNL     1      49.941   1.042  15.329  0.00  0.00    +0.000 HD
ENDBRANCH  12  13
ENDBRANCH  11  12
ENDBRANCH   9  11
ENDBRANCH   8   9
ENDBRANCH   2   8
ENDBRANCH   1   5
BRANCH   1  16
ATOM     16  N   UNL     1      47.316   6.079  12.749  0.00  0.00    +0.000 N 
ATOM     17  C   UNL     1      46.377   6.511  11.845  0.00  0.00    +0.000 C 
ATOM     18  O   UNL     1      46.126   7.704  11.696  0.00  0.00    +0.000 OA
ATOM     19  H   UNL     1      47.337   5.099  13.015  0.00  0.00    +0.000 HD
BRANCH  17  20
ATOM     20  C   UNL     1      45.725   5.485  11.021  0.00  0.00    +0.000 A 
ATOM     21  C   UNL     1      45.810   5.566   9.638  0.00  0.00    +0.000 A 
ATOM     22  S   UNL     1      45.031   4.285   8.828  0.00  0.00    +0.000 S 
ATOM     23  C   UNL     1      44.510   3.601  10.295  0.00  0.00    +0.000 A 
ATOM     24  N   UNL     1      43.753   2.470  10.309  0.00  0.00    +0.000 NA
ATOM     25  C   UNL     1      43.407   2.078  11.490  0.00  0.00    +0.000 A 
ATOM     26  N   UNL     1      43.755   2.706  12.657  0.00  0.00    +0.000 N 
ATOM     27  C   UNL     1      44.542   3.834  12.694  0.00  0.00    +0.000 A 
ATOM     28  O   UNL     1      44.871   4.349  13.757  0.00  0.00    +0.000 OA
ATOM     29  C   UNL     1      44.946   4.328  11.392  0.00  0.00    +0.000 A 
ATOM     30  H   UNL     1      43.457   2.341  13.550  0.00  0.00    +0.000 HD
ENDBRANCH  17  20
ENDBRANCH   1  16
TORSDOF 8
ENDMDL
MODEL 9
REMARK VINA RESULT:    -6.150      2.728      4.118
REMARK INTER + INTRA:          -9.572
REMARK INTER:                  -8.754
REMARK INTRA:                  -0.818
REMARK UNBOUND:                -0.726
REMARK  Name = 
REMARK  8 active torsions:
REMARK  status: ('A' for Active; 'I' for Inactive)
REMARK    1  A    between atoms: N_1  and  C_2
REMARK    2  A    between atoms: C_2  and  C_3
REMARK    3  A    between atoms: C_3  and  N_4
REMARK    4  A    between atoms: N_4  and  C_5
REMARK    5  A    between atoms: C_5  and  C_6
REMARK    6  A    between atoms: C_9  and  C_10
REMARK    7  A    between atoms: C_10  and  N_11
REMARK    8  A    between atoms: C_12  and  C_14
REMARK                            x       y       z     vdW  Elec       q    Type
REMARK                         _______ _______ _______ _____ _____    ______ ____
ROOT
ATOM      1  C   UNL     1      48.220   6.682  14.073  0.00  0.00    +0.000 C 
ENDROOT
BRANCH   1   5
ATOM      2  C   UNL     1      45.254   4.530  11.904  0.00  0.00    +0.000 A 
ATOM      3  C   UNL     1      45.695   5.749  11.397  0.00  0.00    +0.000 A 
ATOM      4  C   UNL     1      46.669   6.459  12.093  0.00  0.00    +0.000 A 
ATOM      5  C   UNL     1      47.174   5.948  13.291  0.00  0.00    +0.000 A 
ATOM      6  C   UNL     1      46.690   4.715  13.713  0.00  0.00    +0.000 A 
ATOM      7  N   UNL     1      45.750   4.000  13.053  0.00  0.00    +0.000 NA
BRANCH   2   8
ATOM      8  C   UNL     1      44.232   3.713  11.137  0.00  0.00    +0.000 C 
BRANCH   8   9
ATOM      9  N   UNL     1      44.746   2.436  10.596  0.00  0.00    +0.000 NA
ATOM     10  H   UNL     1      45.726   2.379  10.885  0.00  0.00    +0.000 HD
BRANCH   9  11
ATOM     11  C   UNL     1      44.764   2.426   9.120  0.00  0.00    +0.000 C 
BRANCH  11  12
ATOM     12  C   UNL     1      44.575   3.814   8.484  0.00  0.00    +0.000 C 
BRANCH  12  13
ATOM     13  N   UNL     1      45.843   4.336   7.959  0.00  0.00    +0.000 NA
ATOM     14  H   UNL     1      46.443   4.585   8.745  0.00  0.00    +0.000 HD
ATOM     15  H   UNL     1      45.659   5.203   7.458  0.00  0.00    +0.000 HD
ENDBRANCH  12  13
ENDBRANCH  11  12
ENDBRANCH   9  11
ENDBRANCH   8   9
ENDBRANCH   2   8
ENDBRANCH   1   5
BRANCH   1  16
ATOM     16  N   UNL     1      48.021   6.541  15.494  0.00  0.00    +0.000 N 
ATOM     17  C   UNL     1      49.083   6.278  16.323  0.00  0.00    +0.000 C 
ATOM     18  O   UNL     1      50.234   6.221  15.899  0.00  0.00    +0.000 OA
ATOM     19  H   UNL     1      47.077   6.355  15.818  0.00  0.00    +0.000 HD
BRANCH  17  20
ATOM     20  C   UNL     1      48.788   6.123  17.753  0.00  0.00    +0.000 A 
ATOM     21  C   UNL     1      49.011   4.899  18.367  0.00  0.00    +0.000 A 
ATOM     22  S   UNL     1      48.651   4.891  20.033  0.00  0.00    +0.000 S 
ATOM     23  C   UNL     1      48.138   6.512  19.985  0.00  0.00    +0.000 A 
ATOM     24  N   UNL     1      47.670   7.130  21.103  0.00  0.00    +0.000 NA
ATOM     25  C   UNL     1      47.291   8.350  20.916  0.00  0.00    +0.000 A 
ATOM     26  N   UNL     1      47.346   9.011  19.717  0.00  0.00    +0.000 N 
ATOM     27  C   UNL     1      47.837   8.438  18.568  0.00  0.00    +0.000 A 
ATOM     28  O   UNL     1      47.912   9.070  17.520  0.00  0.00    +0.000 OA
ATOM     29  C   UNL     1      48.263   7.060  18.718  0.00  0.00    +0.000 A 
ATOM     30  H   UNL     1      47.040   9.970  19.641  0.00  0.00    +0.000 HD
ENDBRANCH  17  20
ENDBRANCH   1  16
TORSDOF 8
ENDMDL
