MODEL 1
REMARK VINA RESULT:    -8.801      0.000      0.000
REMARK INTER + INTRA:         -13.929
REMARK INTER:                 -12.918
REMARK INTRA:                  -1.012
REMARK UNBOUND:                -1.012
REMARK  Name = 
REMARK  9 active torsions:
REMARK  status: ('A' for Active; 'I' for Inactive)
REMARK    1  A    between atoms: C_1  and  C_2
REMARK    2  A    between atoms: C_2  and  C_3
REMARK    3  A    between atoms: C_2  and  C_17
REMARK    4  A    between atoms: C_3  and  N_4
REMARK    5  A    between atoms: C_5  and  C_7
REMARK    6  A    between atoms: C_20  and  C_21
REMARK    7  A    between atoms: C_21  and  N_22
REMARK    8  A    between atoms: N_22  and  C_23
REMARK    9  A    between atoms: C_23  and  C_24
REMARK                            x       y       z     vdW  Elec       q    Type
REMARK                         _______ _______ _______ _____ _____    ______ ____
ROOT
ATOM      1  C   UNL     1      48.602   7.967  13.041  0.00  0.00    +0.000 C 
ATOM      2  C   UNL     1      48.308   6.524  13.512  0.00  0.00    +0.000 C 
ENDROOT
BRANCH   2   3
ATOM      3  C   UNL     1      47.108   5.927  12.765  0.00  0.00    +0.000 A 
ATOM      4  C   UNL     1      46.480   4.761  13.246  0.00  0.00    +0.000 A 
ATOM      5  C   UNL     1      45.437   4.150  12.553  0.00  0.00    +0.000 A 
ATOM      6  C   UNL     1      44.943   4.717  11.378  0.00  0.00    +0.000 A 
ATOM      7  C   UNL     1      45.499   5.917  10.932  0.00  0.00    +0.000 A 
ATOM      8  C   UNL     1      46.562   6.516  11.617  0.00  0.00    +0.000 A 
BRANCH   6   9
ATOM      9  C   UNL     1      43.850   4.033  10.599  0.00  0.00    +0.000 C 
BRANCH   9  10
ATOM     10  N   UNL     1      44.399   3.001   9.729  0.00  0.00    +0.000 NA
ATOM     11  H   UNL     1      43.730   2.235   9.655  0.00  0.00    +0.000 HD
BRANCH  10  12
ATOM     12  C   UNL     1      44.683   3.525   8.398  0.00  0.00    +0.000 C 
BRANCH  12  13
ATOM     13  C   UNL     1      45.851   2.791   7.793  0.00  0.00    +0.000 A 
ATOM     14  C   UNL     1      46.673   3.399   6.842  0.00  0.00    +0.000 A 
ATOM     15  C   UNL     1      47.717   2.663   6.302  0.00  0.00    +0.000 A 
ATOM     16  N   UNL     1      47.993   1.384   6.638  0.00  0.00    +0.000 NA
ATOM     17  C   UNL     1      47.185   0.815   7.560  0.00  0.00    +0.000 A 
ATOM     18  C   UNL     1      46.121   1.467   8.159  0.00  0.00    +0.000 A 
ENDBRANCH  12  13
ENDBRANCH  10  12
ENDBRANCH   9  10
ENDBRANCH   6   9
ENDBRANCH   2   3
BRANCH   2  19
ATOM     19  C   UNL     1      48.123   6.524  15.054  0.00  0.00    +0.000 C 
BRANCH  19  20
ATOM     20  N   UNL     1      49.237   5.960  15.789  0.00  0.00    +0.000 N 
ATOM     21  C   UNL     1      49.050   5.079  16.826  0.00  0.00    +0.000 C 
ATOM     22  O   UNL     1      47.933   4.700  17.166  0.00  0.00    +0.000 OA
ATOM     23  H   UNL     1      50.143   6.409  15.681  0.00  0.00    +0.000 HD
BRANCH  21  24
ATOM     24  C   UNL     1      50.258   4.563  17.476  0.00  0.00    +0.000 A 
ATOM     25  C   UNL     1      51.049   5.422  18.225  0.00  0.00    +0.000 A 
ATOM     26  S   UNL     1      52.397   4.659  18.937  0.00  0.00    +0.000 S 
ATOM     27  C   UNL     1      51.993   3.165  18.226  0.00  0.00    +0.000 A 
ATOM     28  N   UNL     1      52.781   2.071  18.413  0.00  0.00    +0.000 NA
ATOM     29  C   UNL     1      52.368   1.013  17.799  0.00  0.00    +0.000 A 
ATOM     30  N   UNL     1      51.240   0.946  17.021  0.00  0.00    +0.000 N 
ATOM     31  C   UNL     1      50.400   2.020  16.834  0.00  0.00    +0.000 A 
ATOM     32  O   UNL     1      49.367   1.913  16.180  0.00  0.00    +0.000 OA
ATOM     33  C   UNL     1      50.835   3.238  17.484  0.00  0.00    +0.000 A 
ATOM     34  H   UNL     1      50.965   0.081  16.582  0.00  0.00    +0.000 HD
ENDBRANCH  21  24
ENDBRANCH  19  20
ENDBRANCH   2  19
TORSDOF 8
ENDMDL
MODEL 2
REMARK VINA RESULT:    -8.227      2.260      2.813
REMARK INTER + INTRA:         -13.087
REMARK INTER:                 -11.478
REMARK INTRA:                  -1.609
REMARK UNBOUND:                -1.012
REMARK  Name = 
REMARK  9 active torsions:
REMARK  status: ('A' for Active; 'I' for Inactive)
REMARK    1  A    between atoms: C_1  and  C_2
REMARK    2  A    between atoms: C_2  and  C_3
REMARK    3  A    between atoms: C_2  and  C_17
REMARK    4  A    between atoms: C_3  and  N_4
REMARK    5  A    between atoms: C_5  and  C_7
REMARK    6  A    between atoms: C_20  and  C_21
REMARK    7  A    between atoms: C_21  and  N_22
REMARK    8  A    between atoms: N_22  and  C_23
REMARK    9  A    between atoms: C_23  and  C_24
REMARK                            x       y       z     vdW  Elec       q    Type
REMARK                         _______ _______ _______ _____ _____    ______ ____
ROOT
ATOM      1  C   UNL     1      48.882   7.655  11.544  0.00  0.00    +0.000 C 
ATOM      2  C   UNL     1      48.154   7.019  12.750  0.00  0.00    +0.000 C 
ENDROOT
BRANCH   2   3
ATOM      3  C   UNL     1      46.943   6.192  12.297  0.00  0.00    +0.000 A 
ATOM      4  C   UNL     1      46.466   5.133  13.096  0.00  0.00    +0.000 A 
ATOM      5  C   UNL     1      45.418   4.316  12.680  0.00  0.00    +0.000 A 
ATOM      6  C   UNL     1      44.766   4.563  11.472  0.00  0.00    +0.000 A 
ATOM      7  C   UNL     1      45.171   5.658  10.708  0.00  0.00    +0.000 A 
ATOM      8  C   UNL     1      46.241   6.463  11.116  0.00  0.00    +0.000 A 
BRANCH   6   9
ATOM      9  C   UNL     1      43.666   3.650  10.995  0.00  0.00    +0.000 C 
BRANCH   9  10
ATOM     10  N   UNL     1      43.841   3.313   9.588  0.00  0.00    +0.000 NA
ATOM     11  H   UNL     1      44.336   4.073   9.121  0.00  0.00    +0.000 HD
BRANCH  10  12
ATOM     12  C   UNL     1      44.595   2.075   9.429  0.00  0.00    +0.000 C 
BRANCH  12  13
ATOM     13  C   UNL     1      45.695   2.267   8.419  0.00  0.00    +0.000 A 
ATOM     14  C   UNL     1      46.498   1.199   8.013  0.00  0.00    +0.000 A 
ATOM     15  C   UNL     1      47.512   1.443   7.099  0.00  0.00    +0.000 A 
ATOM     16  N   UNL     1      47.777   2.658   6.572  0.00  0.00    +0.000 NA
ATOM     17  C   UNL     1      46.989   3.677   6.978  0.00  0.00    +0.000 A 
ATOM     18  C   UNL     1      45.950   3.534   7.882  0.00  0.00    +0.000 A 
ENDBRANCH  12  13
ENDBRANCH  10  12
ENDBRANCH   9  10
ENDBRANCH   6   9
ENDBRANCH   2   3
BRANCH   2  19
ATOM     19  C   UNL     1      47.780   8.136  13.762  0.00  0.00    +0.000 C 
BRANCH  19  20
ATOM     20  N   UNL     1      47.932   7.757  15.152  0.00  0.00    +0.000 N 
ATOM     21  C   UNL     1      49.076   8.035  15.859  0.00  0.00    +0.000 C 
ATOM     22  O   UNL     1      50.018   8.646  15.361  0.00  0.00    +0.000 OA
ATOM     23  H   UNL     1      47.277   7.074  15.524  0.00  0.00    +0.000 HD
BRANCH  21  24
ATOM     24  C   UNL     1      49.098   7.617  17.263  0.00  0.00    +0.000 A 
ATOM     25  C   UNL     1      49.329   8.563  18.253  0.00  0.00    +0.000 A 
ATOM     26  S   UNL     1      49.293   7.918  19.831  0.00  0.00    +0.000 S 
ATOM     27  C   UNL     1      49.017   6.345  19.239  0.00  0.00    +0.000 A 
ATOM     28  N   UNL     1      48.919   5.289  20.092  0.00  0.00    +0.000 NA
ATOM     29  C   UNL     1      48.732   4.153  19.506  0.00  0.00    +0.000 A 
ATOM     30  N   UNL     1      48.628   3.978  18.150  0.00  0.00    +0.000 N 
ATOM     31  C   UNL     1      48.689   5.023  17.256  0.00  0.00    +0.000 A 
ATOM     32  O   UNL     1      48.534   4.840  16.053  0.00  0.00    +0.000 OA
ATOM     33  C   UNL     1      48.923   6.315  17.865  0.00  0.00    +0.000 A 
ATOM     34  H   UNL     1      48.465   3.063  17.758  0.00  0.00    +0.000 HD
ENDBRANCH  21  24
ENDBRANCH  19  20
ENDBRANCH   2  19
TORSDOF 8
ENDMDL
MODEL 3
REMARK VINA RESULT:    -8.179      2.154      2.678
REMARK INTER + INTRA:         -13.016
REMARK INTER:                 -11.878
REMARK INTRA:                  -1.138
REMARK UNBOUND:                -1.012
REMARK  Name = 
REMARK  9 active torsions:
REMARK  status: ('A' for Active; 'I' for Inactive)
REMARK    1  A    between atoms: C_1  and  C_2
REMARK    2  A    between atoms: C_2  and  C_3
REMARK    3  A    between atoms: C_2  and  C_17
REMARK    4  A    between atoms: C_3  and  N_4
REMARK    5  A    between atoms: C_5  and  C_7
REMARK    6  A    between atoms: C_20  and  C_21
REMARK    7  A    between atoms: C_21  and  N_22
REMARK    8  A    between atoms: N_22  and  C_23
REMARK    9  A    between atoms: C_23  and  C_24
REMARK                            x       y       z     vdW  Elec       q    Type
REMARK                         _______ _______ _______ _____ _____    ______ ____
ROOT
ATOM      1  C   UNL     1      48.665   9.257  11.745  0.00  0.00    +0.000 C 
ATOM      2  C   UNL     1      48.260   8.139  12.733  0.00  0.00    +0.000 C 
ENDROOT
BRANCH   2   3
ATOM      3  C   UNL     1      46.978   7.429  12.277  0.00  0.00    +0.000 A 
ATOM      4  C   UNL     1      46.926   6.022  12.220  0.00  0.00    +0.000 A 
ATOM      5  C   UNL     1      45.805   5.348  11.740  0.00  0.00    +0.000 A 
ATOM      6  C   UNL     1      44.667   6.057  11.353  0.00  0.00    +0.000 A 
ATOM      7  C   UNL     1      44.672   7.447  11.481  0.00  0.00    +0.000 A 
ATOM      8  C   UNL     1      45.808   8.123  11.941  0.00  0.00    +0.000 A 
BRANCH   6   9
ATOM      9  C   UNL     1      43.473   5.336  10.785  0.00  0.00    +0.000 C 
BRANCH   9  10
ATOM     10  N   UNL     1      43.784   4.753   9.487  0.00  0.00    +0.000 NA
ATOM     11  H   UNL     1      44.585   5.239   9.085  0.00  0.00    +0.000 HD
BRANCH  10  12
ATOM     12  C   UNL     1      44.089   3.332   9.602  0.00  0.00    +0.000 C 
BRANCH  12  13
ATOM     13  C   UNL     1      45.227   2.973   8.683  0.00  0.00    +0.000 A 
ATOM     14  C   UNL     1      45.681   1.656   8.576  0.00  0.00    +0.000 A 
ATOM     15  C   UNL     1      46.750   1.392   7.733  0.00  0.00    +0.000 A 
ATOM     16  N   UNL     1      47.387   2.333   7.003  0.00  0.00    +0.000 NA
ATOM     17  C   UNL     1      46.932   3.599   7.122  0.00  0.00    +0.000 A 
ATOM     18  C   UNL     1      45.871   3.963   7.933  0.00  0.00    +0.000 A 
ENDBRANCH  12  13
ENDBRANCH  10  12
ENDBRANCH   9  10
ENDBRANCH   6   9
ENDBRANCH   2   3
BRANCH   2  19
ATOM     19  C   UNL     1      48.144   8.743  14.159  0.00  0.00    +0.000 C 
BRANCH  19  20
ATOM     20  N   UNL     1      48.268   7.774  15.229  0.00  0.00    +0.000 N 
ATOM     21  C   UNL     1      49.460   7.151  15.508  0.00  0.00    +0.000 C 
ATOM     22  O   UNL     1      50.489   7.403  14.886  0.00  0.00    +0.000 OA
ATOM     23  H   UNL     1      47.409   7.388  15.612  0.00  0.00    +0.000 HD
BRANCH  21  24
ATOM     24  C   UNL     1      49.461   6.205  16.627  0.00  0.00    +0.000 A 
ATOM     25  C   UNL     1      50.355   6.386  17.672  0.00  0.00    +0.000 A 
ATOM     26  S   UNL     1      50.206   5.219  18.905  0.00  0.00    +0.000 S 
ATOM     27  C   UNL     1      48.973   4.405  18.058  0.00  0.00    +0.000 A 
ATOM     28  N   UNL     1      48.417   3.269  18.562  0.00  0.00    +0.000 NA
ATOM     29  C   UNL     1      47.511   2.744  17.805  0.00  0.00    +0.000 A 
ATOM     30  N   UNL     1      47.108   3.253  16.597  0.00  0.00    +0.000 N 
ATOM     31  C   UNL     1      47.621   4.416  16.069  0.00  0.00    +0.000 A 
ATOM     32  O   UNL     1      47.197   4.876  15.013  0.00  0.00    +0.000 OA
ATOM     33  C   UNL     1      48.659   5.028  16.870  0.00  0.00    +0.000 A 
ATOM     34  H   UNL     1      46.381   2.802  16.063  0.00  0.00    +0.000 HD
ENDBRANCH  21  24
ENDBRANCH  19  20
ENDBRANCH   2  19
TORSDOF 8
ENDMDL
MODEL 4
REMARK VINA RESULT:    -7.870      1.319      2.237
REMARK INTER + INTRA:         -12.562
REMARK INTER:                 -11.521
REMARK INTRA:                  -1.041
REMARK UNBOUND:                -1.012
REMARK  Name = 
REMARK  9 active torsions:
REMARK  status: ('A' for Active; 'I' for Inactive)
REMARK    1  A    between atoms: C_1  and  C_2
REMARK    2  A    between atoms: C_2  and  C_3
REMARK    3  A    between atoms: C_2  and  C_17
REMARK    4  A    between atoms: C_3  and  N_4
REMARK    5  A    between atoms: C_5  and  C_7
REMARK    6  A    between atoms: C_20  and  C_21
REMARK    7  A    between atoms: C_21  and  N_22
REMARK    8  A    between atoms: N_22  and  C_23
REMARK    9  A    between atoms: C_23  and  C_24
REMARK                            x       y       z     vdW  Elec       q    Type
REMARK                         _______ _______ _______ _____ _____    ______ ____
ROOT
ATOM      1  C   UNL     1      47.529   3.125  16.585  0.00  0.00    +0.000 C 
ATOM      2  C   UNL     1      47.200   4.588  16.211  0.00  0.00    +0.000 C 
ENDROOT
BRANCH   2   3
ATOM      3  C   UNL     1      46.834   4.717  14.727  0.00  0.00    +0.000 A 
ATOM      4  C   UNL     1      47.136   5.897  14.018  0.00  0.00    +0.000 A 
ATOM      5  C   UNL     1      46.751   6.075  12.692  0.00  0.00    +0.000 A 
ATOM      6  C   UNL     1      46.097   5.054  12.003  0.00  0.00    +0.000 A 
ATOM      7  C   UNL     1      45.863   3.847  12.664  0.00  0.00    +0.000 A 
ATOM      8  C   UNL     1      46.229   3.679  14.005  0.00  0.00    +0.000 A 
BRANCH   6   9
ATOM      9  C   UNL     1      45.633   5.262  10.585  0.00  0.00    +0.000 C 
BRANCH   9  10
ATOM     10  N   UNL     1      44.994   4.062  10.063  0.00  0.00    +0.000 NA
ATOM     11  H   UNL     1      44.057   3.983  10.457  0.00  0.00    +0.000 HD
BRANCH  10  12
ATOM     12  C   UNL     1      44.905   4.097   8.608  0.00  0.00    +0.000 C 
BRANCH  12  13
ATOM     13  C   UNL     1      45.880   3.118   8.009  0.00  0.00    +0.000 A 
ATOM     14  C   UNL     1      45.850   1.765   8.355  0.00  0.00    +0.000 A 
ATOM     15  C   UNL     1      46.790   0.916   7.790  0.00  0.00    +0.000 A 
ATOM     16  N   UNL     1      47.741   1.316   6.918  0.00  0.00    +0.000 NA
ATOM     17  C   UNL     1      47.752   2.628   6.597  0.00  0.00    +0.000 A 
ATOM     18  C   UNL     1      46.856   3.552   7.104  0.00  0.00    +0.000 A 
ENDBRANCH  12  13
ENDBRANCH  10  12
ENDBRANCH   9  10
ENDBRANCH   6   9
ENDBRANCH   2   3
BRANCH   2  19
ATOM     19  C   UNL     1      48.394   5.494  16.621  0.00  0.00    +0.000 C 
BRANCH  19  20
ATOM     20  N   UNL     1      49.480   4.791  17.271  0.00  0.00    +0.000 N 
ATOM     21  C   UNL     1      50.796   5.097  17.020  0.00  0.00    +0.000 C 
ATOM     22  O   UNL     1      51.120   6.001  16.255  0.00  0.00    +0.000 OA
ATOM     23  H   UNL     1      49.258   3.913  17.732  0.00  0.00    +0.000 HD
BRANCH  21  24
ATOM     24  C   UNL     1      51.802   4.327  17.756  0.00  0.00    +0.000 A 
ATOM     25  C   UNL     1      52.720   4.993  18.556  0.00  0.00    +0.000 A 
ATOM     26  S   UNL     1      53.799   3.950  19.364  0.00  0.00    +0.000 S 
ATOM     27  C   UNL     1      53.105   2.578  18.633  0.00  0.00    +0.000 A 
ATOM     28  N   UNL     1      53.600   1.334  18.880  0.00  0.00    +0.000 NA
ATOM     29  C   UNL     1      52.993   0.389  18.242  0.00  0.00    +0.000 A 
ATOM     30  N   UNL     1      51.936   0.572  17.387  0.00  0.00    +0.000 N 
ATOM     31  C   UNL     1      51.386   1.808  17.137  0.00  0.00    +0.000 A 
ATOM     32  O   UNL     1      50.403   1.932  16.412  0.00  0.00    +0.000 OA
ATOM     33  C   UNL     1      52.050   2.904  17.811  0.00  0.00    +0.000 A 
ATOM     34  H   UNL     1      51.496  -0.214  16.933  0.00  0.00    +0.000 HD
ENDBRANCH  21  24
ENDBRANCH  19  20
ENDBRANCH   2  19
TORSDOF 8
ENDMDL
MODEL 5
REMARK VINA RESULT:    -7.585      3.619      8.597
REMARK INTER + INTRA:         -12.143
REMARK INTER:                 -10.402
REMARK INTRA:                  -1.742
REMARK UNBOUND:                -1.012
REMARK  Name = 
REMARK  9 active torsions:
REMARK  status: ('A' for Active; 'I' for Inactive)
REMARK    1  A    between atoms: C_1  and  C_2
REMARK    2  A    between atoms: C_2  and  C_3
REMARK    3  A    between atoms: C_2  and  C_17
REMARK    4  A    between atoms: C_3  and  N_4
REMARK    5  A    between atoms: C_5  and  C_7
REMARK    6  A    between atoms: C_20  and  C_21
REMARK    7  A    between atoms: C_21  and  N_22
REMARK    8  A    between atoms: N_22  and  C_23
REMARK    9  A    between atoms: C_23  and  C_24
REMARK                            x       y       z     vdW  Elec       q    Type
REMARK                         _______ _______ _______ _____ _____    ______ ____
ROOT
ATOM      1  C   UNL     1      49.697   7.296  11.697  0.00  0.00    +0.000 C 
ATOM      2  C   UNL     1      48.876   8.384  12.425  0.00  0.00    +0.000 C 
ENDROOT
BRANCH   2   3
ATOM      3  C   UNL     1      48.853   8.146  13.941  0.00  0.00    +0.000 A 
ATOM      4  C   UNL     1      49.460   6.998  14.490  0.00  0.00    +0.000 A 
ATOM      5  C   UNL     1      49.393   6.712  15.851  0.00  0.00    +0.000 A 
ATOM      6  C   UNL     1      48.764   7.597  16.728  0.00  0.00    +0.000 A 
ATOM      7  C   UNL     1      48.231   8.779  16.213  0.00  0.00    +0.000 A 
ATOM      8  C   UNL     1      48.278   9.052  14.841  0.00  0.00    +0.000 A 
BRANCH   6   9
ATOM      9  C   UNL     1      48.645   7.267  18.193  0.00  0.00    +0.000 C 
BRANCH   9  10
ATOM     10  N   UNL     1      47.606   6.272  18.420  0.00  0.00    +0.000 NA
ATOM     11  H   UNL     1      47.205   5.995  17.525  0.00  0.00    +0.000 HD
BRANCH  10  12
ATOM     12  C   UNL     1      48.137   5.095  19.097  0.00  0.00    +0.000 C 
BRANCH  12  13
ATOM     13  C   UNL     1      48.501   4.039  18.086  0.00  0.00    +0.000 A 
ATOM     14  C   UNL     1      49.731   3.379  18.141  0.00  0.00    +0.000 A 
ATOM     15  C   UNL     1      50.020   2.436  17.167  0.00  0.00    +0.000 A 
ATOM     16  N   UNL     1      49.182   2.110  16.159  0.00  0.00    +0.000 NA
ATOM     17  C   UNL     1      47.998   2.759  16.125  0.00  0.00    +0.000 A 
ATOM     18  C   UNL     1      47.616   3.714  17.052  0.00  0.00    +0.000 A 
ENDBRANCH  12  13
ENDBRANCH  10  12
ENDBRANCH   9  10
ENDBRANCH   6   9
ENDBRANCH   2   3
BRANCH   2  19
ATOM     19  C   UNL     1      47.455   8.447  11.801  0.00  0.00    +0.000 C 
BRANCH  19  20
ATOM     20  N   UNL     1      46.747   7.183  11.801  0.00  0.00    +0.000 N 
ATOM     21  C   UNL     1      45.388   7.113  11.618  0.00  0.00    +0.000 C 
ATOM     22  O   UNL     1      44.705   8.114  11.414  0.00  0.00    +0.000 OA
ATOM     23  H   UNL     1      47.236   6.374  12.175  0.00  0.00    +0.000 HD
BRANCH  21  24
ATOM     24  C   UNL     1      44.793   5.774  11.619  0.00  0.00    +0.000 A 
ATOM     25  C   UNL     1      44.067   5.351  12.723  0.00  0.00    +0.000 A 
ATOM     26  S   UNL     1      43.418   3.784  12.551  0.00  0.00    +0.000 S 
ATOM     27  C   UNL     1      44.128   3.602  11.013  0.00  0.00    +0.000 A 
ATOM     28  N   UNL     1      43.985   2.442  10.315  0.00  0.00    +0.000 NA
ATOM     29  C   UNL     1      44.593   2.434   9.176  0.00  0.00    +0.000 A 
ATOM     30  N   UNL     1      45.325   3.478   8.670  0.00  0.00    +0.000 N 
ATOM     31  C   UNL     1      45.466   4.678   9.329  0.00  0.00    +0.000 A 
ATOM     32  O   UNL     1      46.079   5.613   8.823  0.00  0.00    +0.000 OA
ATOM     33  C   UNL     1      44.822   4.726  10.624  0.00  0.00    +0.000 A 
ATOM     34  H   UNL     1      45.762   3.411   7.763  0.00  0.00    +0.000 HD
ENDBRANCH  21  24
ENDBRANCH  19  20
ENDBRANCH   2  19
TORSDOF 8
ENDMDL
MODEL 6
REMARK VINA RESULT:    -7.395      3.472      9.798
REMARK INTER + INTRA:         -11.865
REMARK INTER:                 -10.712
REMARK INTRA:                  -1.153
REMARK UNBOUND:                -1.012
REMARK  Name = 
REMARK  9 active torsions:
REMARK  status: ('A' for Active; 'I' for Inactive)
REMARK    1  A    between atoms: C_1  and  C_2
REMARK    2  A    between atoms: C_2  and  C_3
REMARK    3  A    between atoms: C_2  and  C_17
REMARK    4  A    between atoms: C_3  and  N_4
REMARK    5  A    between atoms: C_5  and  C_7
REMARK    6  A    between atoms: C_20  and  C_21
REMARK    7  A    between atoms: C_21  and  N_22
REMARK    8  A    between atoms: N_22  and  C_23
REMARK    9  A    between atoms: C_23  and  C_24
REMARK                            x       y       z     vdW  Elec       q    Type
REMARK                         _______ _______ _______ _____ _____    ______ ____
ROOT
ATOM      1  C   UNL     1      47.151   2.923  17.684  0.00  0.00    +0.000 C 
ATOM      2  C   UNL     1      48.199   3.340  16.628  0.00  0.00    +0.000 C 
ENDROOT
BRANCH   2   3
ATOM      3  C   UNL     1      49.624   3.020  17.100  0.00  0.00    +0.000 A 
ATOM      4  C   UNL     1      50.417   4.021  17.697  0.00  0.00    +0.000 A 
ATOM      5  C   UNL     1      51.739   3.786  18.068  0.00  0.00    +0.000 A 
ATOM      6  C   UNL     1      52.302   2.519  17.909  0.00  0.00    +0.000 A 
ATOM      7  C   UNL     1      51.505   1.495  17.396  0.00  0.00    +0.000 A 
ATOM      8  C   UNL     1      50.185   1.740  17.001  0.00  0.00    +0.000 A 
BRANCH   6   9
ATOM      9  C   UNL     1      53.746   2.274  18.261  0.00  0.00    +0.000 C 
BRANCH   9  10
ATOM     10  N   UNL     1      53.915   0.973  18.893  0.00  0.00    +0.000 NA
ATOM     11  H   UNL     1      53.222   0.326  18.519  0.00  0.00    +0.000 HD
BRANCH  10  12
ATOM     12  C   UNL     1      55.252   0.439  18.658  0.00  0.00    +0.000 C 
BRANCH  12  13
ATOM     13  C   UNL     1      55.161  -0.859  17.899  0.00  0.00    +0.000 A 
ATOM     14  C   UNL     1      55.077  -0.876  16.504  0.00  0.00    +0.000 A 
ATOM     15  C   UNL     1      54.970  -2.101  15.863  0.00  0.00    +0.000 A 
ATOM     16  N   UNL     1      54.941  -3.289  16.504  0.00  0.00    +0.000 NA
ATOM     17  C   UNL     1      55.024  -3.250  17.852  0.00  0.00    +0.000 A 
ATOM     18  C   UNL     1      55.137  -2.080  18.583  0.00  0.00    +0.000 A 
ENDBRANCH  12  13
ENDBRANCH  10  12
ENDBRANCH   9  10
ENDBRANCH   6   9
ENDBRANCH   2   3
BRANCH   2  19
ATOM     19  C   UNL     1      47.998   4.840  16.280  0.00  0.00    +0.000 C 
BRANCH  19  20
ATOM     20  N   UNL     1      47.046   5.083  15.216  0.00  0.00    +0.000 N 
ATOM     21  C   UNL     1      47.397   5.744  14.065  0.00  0.00    +0.000 C 
ATOM     22  O   UNL     1      48.543   6.137  13.863  0.00  0.00    +0.000 OA
ATOM     23  H   UNL     1      46.060   4.969  15.437  0.00  0.00    +0.000 HD
BRANCH  21  24
ATOM     24  C   UNL     1      46.348   5.910  13.056  0.00  0.00    +0.000 A 
ATOM     25  C   UNL     1      46.008   7.186  12.628  0.00  0.00    +0.000 A 
ATOM     26  S   UNL     1      44.794   7.201  11.432  0.00  0.00    +0.000 S 
ATOM     27  C   UNL     1      44.649   5.505  11.483  0.00  0.00    +0.000 A 
ATOM     28  N   UNL     1      43.735   4.862  10.705  0.00  0.00    +0.000 NA
ATOM     29  C   UNL     1      43.718   3.580  10.861  0.00  0.00    +0.000 A 
ATOM     30  N   UNL     1      44.532   2.883  11.716  0.00  0.00    +0.000 N 
ATOM     31  C   UNL     1      45.491   3.491  12.494  0.00  0.00    +0.000 A 
ATOM     32  O   UNL     1      46.244   2.834  13.206  0.00  0.00    +0.000 OA
ATOM     33  C   UNL     1      45.531   4.933  12.373  0.00  0.00    +0.000 A 
ATOM     34  H   UNL     1      44.478   1.878  11.777  0.00  0.00    +0.000 HD
ENDBRANCH  21  24
ENDBRANCH  19  20
ENDBRANCH   2  19
TORSDOF 8
ENDMDL
MODEL 7
REMARK VINA RESULT:    -7.344      3.505      9.388
REMARK INTER + INTRA:         -11.791
REMARK INTER:                 -10.352
REMARK INTRA:                  -1.439
REMARK UNBOUND:                -1.012
REMARK  Name = 
REMARK  9 active torsions:
REMARK  status: ('A' for Active; 'I' for Inactive)
REMARK    1  A    between atoms: C_1  and  C_2
REMARK    2  A    between atoms: C_2  and  C_3
REMARK    3  A    between atoms: C_2  and  C_17
REMARK    4  A    between atoms: C_3  and  N_4
REMARK    5  A    between atoms: C_5  and  C_7
REMARK    6  A    between atoms: C_20  and  C_21
REMARK    7  A    between atoms: C_21  and  N_22
REMARK    8  A    between atoms: N_22  and  C_23
REMARK    9  A    between atoms: C_23  and  C_24
REMARK                            x       y       z     vdW  Elec       q    Type
REMARK                         _______ _______ _______ _____ _____    ______ ____
ROOT
ATOM      1  C   UNL     1      47.183   2.931  17.652  0.00  0.00    +0.000 C 
ATOM      2  C   UNL     1      48.265   3.385  16.646  0.00  0.00    +0.000 C 
ENDROOT
BRANCH   2   3
ATOM      3  C   UNL     1      49.675   3.088  17.172  0.00  0.00    +0.000 A 
ATOM      4  C   UNL     1      50.386   4.067  17.895  0.00  0.00    +0.000 A 
ATOM      5  C   UNL     1      51.695   3.857  18.323  0.00  0.00    +0.000 A 
ATOM      6  C   UNL     1      52.326   2.634  18.092  0.00  0.00    +0.000 A 
ATOM      7  C   UNL     1      51.608   1.625  17.450  0.00  0.00    +0.000 A 
ATOM      8  C   UNL     1      50.301   1.846  17.001  0.00  0.00    +0.000 A 
BRANCH   6   9
ATOM      9  C   UNL     1      53.759   2.422  18.506  0.00  0.00    +0.000 C 
BRANCH   9  10
ATOM     10  N   UNL     1      54.668   2.718  17.408  0.00  0.00    +0.000 NA
ATOM     11  H   UNL     1      54.135   2.794  16.542  0.00  0.00    +0.000 HD
BRANCH  10  12
ATOM     12  C   UNL     1      55.392   3.963  17.640  0.00  0.00    +0.000 C 
BRANCH  12  13
ATOM     13  C   UNL     1      55.064   4.959  16.559  0.00  0.00    +0.000 A 
ATOM     14  C   UNL     1      55.769   4.975  15.353  0.00  0.00    +0.000 A 
ATOM     15  C   UNL     1      55.439   5.933  14.406  0.00  0.00    +0.000 A 
ATOM     16  N   UNL     1      54.471   6.860  14.575  0.00  0.00    +0.000 NA
ATOM     17  C   UNL     1      53.801   6.826  15.748  0.00  0.00    +0.000 A 
ATOM     18  C   UNL     1      54.055   5.908  16.753  0.00  0.00    +0.000 A 
ENDBRANCH  12  13
ENDBRANCH  10  12
ENDBRANCH   9  10
ENDBRANCH   6   9
ENDBRANCH   2   3
BRANCH   2  19
ATOM     19  C   UNL     1      48.047   4.886  16.312  0.00  0.00    +0.000 C 
BRANCH  19  20
ATOM     20  N   UNL     1      47.087   5.128  15.254  0.00  0.00    +0.000 N 
ATOM     21  C   UNL     1      47.433   5.779  14.095  0.00  0.00    +0.000 C 
ATOM     22  O   UNL     1      48.580   6.163  13.881  0.00  0.00    +0.000 OA
ATOM     23  H   UNL     1      46.102   5.022  15.484  0.00  0.00    +0.000 HD
BRANCH  21  24
ATOM     24  C   UNL     1      46.377   5.944  13.094  0.00  0.00    +0.000 A 
ATOM     25  C   UNL     1      46.031   7.220  12.671  0.00  0.00    +0.000 A 
ATOM     26  S   UNL     1      44.808   7.236  11.484  0.00  0.00    +0.000 S 
ATOM     27  C   UNL     1      44.667   5.539  11.532  0.00  0.00    +0.000 A 
ATOM     28  N   UNL     1      43.749   4.897  10.759  0.00  0.00    +0.000 NA
ATOM     29  C   UNL     1      43.735   3.614  10.913  0.00  0.00    +0.000 A 
ATOM     30  N   UNL     1      44.557   2.917  11.761  0.00  0.00    +0.000 N 
ATOM     31  C   UNL     1      45.520   3.525  12.533  0.00  0.00    +0.000 A 
ATOM     32  O   UNL     1      46.279   2.868  13.238  0.00  0.00    +0.000 OA
ATOM     33  C   UNL     1      45.556   4.968  12.414  0.00  0.00    +0.000 A 
ATOM     34  H   UNL     1      44.506   1.911  11.820  0.00  0.00    +0.000 HD
ENDBRANCH  21  24
ENDBRANCH  19  20
ENDBRANCH   2  19
TORSDOF 8
ENDMDL
MODEL 8
REMARK VINA RESULT:    -7.302      2.750      4.276
REMARK INTER + INTRA:         -11.729
REMARK INTER:                 -10.552
REMARK INTRA:                  -1.177
REMARK UNBOUND:                -1.012
REMARK  Name = 
REMARK  9 active torsions:
REMARK  status: ('A' for Active; 'I' for Inactive)
REMARK    1  A    between atoms: C_1  and  C_2
REMARK    2  A    between atoms: C_2  and  C_3
REMARK    3  A    between atoms: C_2  and  C_17
REMARK    4  A    between atoms: C_3  and  N_4
REMARK    5  A    between atoms: C_5  and  C_7
REMARK    6  A    between atoms: C_20  and  C_21
REMARK    7  A    between atoms: C_21  and  N_22
REMARK    8  A    between atoms: N_22  and  C_23
REMARK    9  A    between atoms: C_23  and  C_24
REMARK                            x       y       z     vdW  Elec       q    Type
REMARK                         _______ _______ _______ _____ _____    ______ ____
ROOT
ATOM      1  C   UNL     1      47.578   3.331  15.037  0.00  0.00    +0.000 C 
ATOM      2  C   UNL     1      46.892   4.698  14.814  0.00  0.00    +0.000 C 
ENDROOT
BRANCH   2   3
ATOM      3  C   UNL     1      45.986   4.672  13.576  0.00  0.00    +0.000 A 
ATOM      4  C   UNL     1      45.658   3.447  12.959  0.00  0.00    +0.000 A 
ATOM      5  C   UNL     1      44.900   3.393  11.792  0.00  0.00    +0.000 A 
ATOM      6  C   UNL     1      44.392   4.563  11.225  0.00  0.00    +0.000 A 
ATOM      7  C   UNL     1      44.638   5.776  11.869  0.00  0.00    +0.000 A 
ATOM      8  C   UNL     1      45.419   5.830  13.029  0.00  0.00    +0.000 A 
BRANCH   6   9
ATOM      9  C   UNL     1      43.617   4.513   9.935  0.00  0.00    +0.000 C 
BRANCH   9  10
ATOM     10  N   UNL     1      44.217   3.569   9.002  0.00  0.00    +0.000 NA
ATOM     11  H   UNL     1      43.511   3.265   8.332  0.00  0.00    +0.000 HD
BRANCH  10  12
ATOM     12  C   UNL     1      45.336   4.170   8.286  0.00  0.00    +0.000 C 
BRANCH  12  13
ATOM     13  C   UNL     1      46.216   3.092   7.707  0.00  0.00    +0.000 A 
ATOM     14  C   UNL     1      47.099   3.365   6.660  0.00  0.00    +0.000 A 
ATOM     15  C   UNL     1      47.864   2.326   6.153  0.00  0.00    +0.000 A 
ATOM     16  N   UNL     1      47.810   1.056   6.607  0.00  0.00    +0.000 NA
ATOM     17  C   UNL     1      46.950   0.814   7.621  0.00  0.00    +0.000 A 
ATOM     18  C   UNL     1      46.147   1.783   8.197  0.00  0.00    +0.000 A 
ENDBRANCH  12  13
ENDBRANCH  10  12
ENDBRANCH   9  10
ENDBRANCH   6   9
ENDBRANCH   2   3
BRANCH   2  19
ATOM     19  C   UNL     1      47.980   5.804  14.745  0.00  0.00    +0.000 C 
BRANCH  19  20
ATOM     20  N   UNL     1      48.190   6.511  15.992  0.00  0.00    +0.000 N 
ATOM     21  C   UNL     1      49.234   6.207  16.832  0.00  0.00    +0.000 C 
ATOM     22  O   UNL     1      50.060   5.341  16.557  0.00  0.00    +0.000 OA
ATOM     23  H   UNL     1      47.419   7.071  16.347  0.00  0.00    +0.000 HD
BRANCH  21  24
ATOM     24  C   UNL     1      49.350   7.008  18.053  0.00  0.00    +0.000 A 
ATOM     25  C   UNL     1      49.730   6.394  19.238  0.00  0.00    +0.000 A 
ATOM     26  S   UNL     1      49.846   7.470  20.555  0.00  0.00    +0.000 S 
ATOM     27  C   UNL     1      49.345   8.784  19.594  0.00  0.00    +0.000 A 
ATOM     28  N   UNL     1      49.199  10.024  20.135  0.00  0.00    +0.000 NA
ATOM     29  C   UNL     1      48.791  10.920  19.298  0.00  0.00    +0.000 A 
ATOM     30  N   UNL     1      48.523  10.691  17.972  0.00  0.00    +0.000 N 
ATOM     31  C   UNL     1      48.690   9.460  17.380  0.00  0.00    +0.000 A 
ATOM     32  O   UNL     1      48.498   9.301  16.178  0.00  0.00    +0.000 OA
ATOM     33  C   UNL     1      49.122   8.416  18.285  0.00  0.00    +0.000 A 
ATOM     34  H   UNL     1      48.224  11.441  17.368  0.00  0.00    +0.000 HD
ENDBRANCH  21  24
ENDBRANCH  19  20
ENDBRANCH   2  19
TORSDOF 8
ENDMDL
MODEL 9
REMARK VINA RESULT:    -7.233      4.448      5.432
REMARK INTER + INTRA:         -11.627
REMARK INTER:                 -10.135
REMARK INTRA:                  -1.492
REMARK UNBOUND:                -1.012
REMARK  Name = 
REMARK  9 active torsions:
REMARK  status: ('A' for Active; 'I' for Inactive)
REMARK    1  A    between atoms: C_1  and  C_2
REMARK    2  A    between atoms: C_2  and  C_3
REMARK    3  A    between atoms: C_2  and  C_17
REMARK    4  A    between atoms: C_3  and  N_4
REMARK    5  A    between atoms: C_5  and  C_7
REMARK    6  A    between atoms: C_20  and  C_21
REMARK    7  A    between atoms: C_21  and  N_22
REMARK    8  A    between atoms: N_22  and  C_23
REMARK    9  A    between atoms: C_23  and  C_24
REMARK                            x       y       z     vdW  Elec       q    Type
REMARK                         _______ _______ _______ _____ _____    ______ ____
ROOT
ATOM      1  C   UNL     1      48.698   6.777  13.894  0.00  0.00    +0.000 C 
ATOM      2  C   UNL     1      47.735   7.371  12.842  0.00  0.00    +0.000 C 
ENDROOT
BRANCH   2   3
ATOM      3  C   UNL     1      46.727   6.322  12.353  0.00  0.00    +0.000 A 
ATOM      4  C   UNL     1      46.211   6.387  11.043  0.00  0.00    +0.000 A 
ATOM      5  C   UNL     1      45.239   5.497  10.592  0.00  0.00    +0.000 A 
ATOM      6  C   UNL     1      44.787   4.468  11.418  0.00  0.00    +0.000 A 
ATOM      7  C   UNL     1      45.347   4.338  12.690  0.00  0.00    +0.000 A 
ATOM      8  C   UNL     1      46.306   5.249  13.149  0.00  0.00    +0.000 A 
BRANCH   6   9
ATOM      9  C   UNL     1      43.699   3.535  10.953  0.00  0.00    +0.000 C 
BRANCH   9  10
ATOM     10  N   UNL     1      43.867   3.199   9.545  0.00  0.00    +0.000 NA
ATOM     11  H   UNL     1      44.357   3.960   9.076  0.00  0.00    +0.000 HD
BRANCH  10  12
ATOM     12  C   UNL     1      44.624   1.963   9.381  0.00  0.00    +0.000 C 
BRANCH  12  13
ATOM     13  C   UNL     1      45.704   2.154   8.349  0.00  0.00    +0.000 A 
ATOM     14  C   UNL     1      46.540   1.099   7.975  0.00  0.00    +0.000 A 
ATOM     15  C   UNL     1      47.533   1.342   7.039  0.00  0.00    +0.000 A 
ATOM     16  N   UNL     1      47.749   2.543   6.461  0.00  0.00    +0.000 NA
ATOM     17  C   UNL     1      46.930   3.550   6.837  0.00  0.00    +0.000 A 
ATOM     18  C   UNL     1      45.908   3.407   7.760  0.00  0.00    +0.000 A 
ENDBRANCH  12  13
ENDBRANCH  10  12
ENDBRANCH   9  10
ENDBRANCH   6   9
ENDBRANCH   2   3
BRANCH   2  19
ATOM     19  C   UNL     1      48.568   7.994  11.688  0.00  0.00    +0.000 C 
BRANCH  19  20
ATOM     20  N   UNL     1      50.000   7.828  11.830  0.00  0.00    +0.000 N 
ATOM     21  C   UNL     1      50.851   8.903  11.901  0.00  0.00    +0.000 C 
ATOM     22  O   UNL     1      50.442  10.061  11.879  0.00  0.00    +0.000 OA
ATOM     23  H   UNL     1      50.384   6.907  11.636  0.00  0.00    +0.000 HD
BRANCH  21  24
ATOM     24  C   UNL     1      52.276   8.603  12.064  0.00  0.00    +0.000 A 
ATOM     25  C   UNL     1      52.957   9.102  13.166  0.00  0.00    +0.000 A 
ATOM     26  S   UNL     1      54.596   8.637  13.220  0.00  0.00    +0.000 S 
ATOM     27  C   UNL     1      54.461   7.794  11.747  0.00  0.00    +0.000 A 
ATOM     28  N   UNL     1      55.543   7.177  11.198  0.00  0.00    +0.000 NA
ATOM     29  C   UNL     1      55.302   6.596  10.069  0.00  0.00    +0.000 A 
ATOM     30  N   UNL     1      54.082   6.571   9.444  0.00  0.00    +0.000 N 
ATOM     31  C   UNL     1      52.957   7.153   9.982  0.00  0.00    +0.000 A 
ATOM     32  O   UNL     1      51.866   7.063   9.427  0.00  0.00    +0.000 OA
ATOM     33  C   UNL     1      53.182   7.840  11.237  0.00  0.00    +0.000 A 
ATOM     34  H   UNL     1      53.959   6.084   8.570  0.00  0.00    +0.000 HD
ENDBRANCH  21  24
ENDBRANCH  19  20
ENDBRANCH   2  19
TORSDOF 8
ENDMDL
