MODEL 1
REMARK VINA RESULT:    -8.461      0.000      0.000
REMARK INTER + INTRA:         -11.887
REMARK INTER:                 -10.935
REMARK INTRA:                  -0.953
REMARK UNBOUND:                -0.953
REMARK  Name = 
REMARK  5 active torsions:
REMARK  status: ('A' for Active; 'I' for Inactive)
REMARK    1  A    between atoms: C_2  and  C_4
REMARK    2  A    between atoms: C_7  and  O_8
REMARK    3  A    between atoms: O_8  and  C_9
REMARK    4  A    between atoms: C_9  and  C_10
REMARK    5  A    between atoms: C_14  and  N_15
REMARK                            x       y       z     vdW  Elec       q    Type
REMARK                         _______ _______ _______ _____ _____    ______ ____
ROOT
ATOM      1  C   UNL     1      43.673   4.203  11.266  0.00  0.00    +0.000 C 
ENDROOT
BRANCH   1   2
ATOM      2  C   UNL     1      44.828   4.538  12.185  0.00  0.00    +0.000 A 
ATOM      3  C   UNL     1      45.565   3.490  12.752  0.00  0.00    +0.000 A 
ATOM      4  C   UNL     1      46.705   3.757  13.499  0.00  0.00    +0.000 A 
ATOM      5  C   UNL     1      47.138   5.073  13.657  0.00  0.00    +0.000 A 
ATOM      6  C   UNL     1      46.449   6.153  13.086  0.00  0.00    +0.000 A 
ATOM      7  C   UNL     1      45.276   5.857  12.368  0.00  0.00    +0.000 A 
BRANCH   6   8
ATOM      8  N   UNL     1      46.926   7.447  13.184  0.00  0.00    +0.000 N 
ATOM      9  C   UNL     1      46.025   8.599  13.214  0.00  0.00    +0.000 C 
ATOM     10  C   UNL     1      46.250   9.472  11.983  0.00  0.00    +0.000 C 
ATOM     11  C   UNL     1      47.725   9.847  11.840  0.00  0.00    +0.000 C 
ATOM     12  C   UNL     1      48.613   8.603  11.857  0.00  0.00    +0.000 C 
ATOM     13  C   UNL     1      48.355   7.739  13.093  0.00  0.00    +0.000 C 
ENDBRANCH   6   8
ENDBRANCH   1   2
BRANCH   1  14
ATOM     14  O   UNL     1      43.811   4.764   9.954  0.00  0.00    +0.000 OA
BRANCH  14  18
ATOM     15  C   UNL     1      46.442   2.520   7.697  0.00  0.00    +0.000 A 
ATOM     16  C   UNL     1      45.561   1.877   8.571  0.00  0.00    +0.000 A 
ATOM     17  C   UNL     1      44.674   2.643   9.335  0.00  0.00    +0.000 A 
ATOM     18  C   UNL     1      44.699   4.025   9.192  0.00  0.00    +0.000 A 
ATOM     19  N   UNL     1      45.544   4.664   8.355  0.00  0.00    +0.000 NA
ATOM     20  C   UNL     1      46.402   3.903   7.636  0.00  0.00    +0.000 A 
BRANCH  15  22
ATOM     21  N   UNL     1      48.498   2.528   6.405  0.00  0.00    +0.000 N 
ATOM     22  C   UNL     1      47.423   1.813   6.850  0.00  0.00    +0.000 C 
ATOM     23  O   UNL     1      47.306   0.622   6.593  0.00  0.00    +0.000 OA
ATOM     24  H   UNL     1      49.218   1.999   5.925  0.00  0.00    +0.000 HD
ATOM     25  H   UNL     1      48.765   3.416   6.808  0.00  0.00    +0.000 HD
ENDBRANCH  15  22
ENDBRANCH  14  18
ENDBRANCH   1  14
TORSDOF 5
ENDMDL
MODEL 2
REMARK VINA RESULT:    -8.066      1.574      2.962
REMARK INTER + INTRA:         -11.377
REMARK INTER:                 -10.419
REMARK INTRA:                  -0.958
REMARK UNBOUND:                -0.953
REMARK  Name = 
REMARK  5 active torsions:
REMARK  status: ('A' for Active; 'I' for Inactive)
REMARK    1  A    between atoms: C_2  and  C_4
REMARK    2  A    between atoms: C_7  and  O_8
REMARK    3  A    between atoms: O_8  and  C_9
REMARK    4  A    between atoms: C_9  and  C_10
REMARK    5  A    between atoms: C_14  and  N_15
REMARK                            x       y       z     vdW  Elec       q    Type
REMARK                         _______ _______ _______ _____ _____    ______ ____
ROOT
ATOM      1  C   UNL     1      43.837   4.493  11.317  0.00  0.00    +0.000 C 
ENDROOT
BRANCH   1   2
ATOM      2  C   UNL     1      44.890   5.410  11.900  0.00  0.00    +0.000 A 
ATOM      3  C   UNL     1      44.811   6.783  11.632  0.00  0.00    +0.000 A 
ATOM      4  C   UNL     1      45.685   7.670  12.249  0.00  0.00    +0.000 A 
ATOM      5  C   UNL     1      46.624   7.195  13.164  0.00  0.00    +0.000 A 
ATOM      6  C   UNL     1      46.722   5.833  13.485  0.00  0.00    +0.000 A 
ATOM      7  C   UNL     1      45.852   4.953  12.817  0.00  0.00    +0.000 A 
BRANCH   6   8
ATOM      8  N   UNL     1      47.603   5.380  14.450  0.00  0.00    +0.000 N 
ATOM      9  C   UNL     1      47.407   4.100  15.130  0.00  0.00    +0.000 C 
ATOM     10  C   UNL     1      47.164   4.330  16.618  0.00  0.00    +0.000 C 
ATOM     11  C   UNL     1      48.272   5.189  17.228  0.00  0.00    +0.000 C 
ATOM     12  C   UNL     1      48.452   6.491  16.447  0.00  0.00    +0.000 C 
ATOM     13  C   UNL     1      48.678   6.230  14.956  0.00  0.00    +0.000 C 
ENDBRANCH   6   8
ENDBRANCH   1   2
BRANCH   1  14
ATOM     14  O   UNL     1      43.641   4.676   9.909  0.00  0.00    +0.000 OA
BRANCH  14  18
ATOM     15  C   UNL     1      46.406   2.483   7.763  0.00  0.00    +0.000 A 
ATOM     16  C   UNL     1      45.566   1.834   8.673  0.00  0.00    +0.000 A 
ATOM     17  C   UNL     1      44.634   2.583   9.399  0.00  0.00    +0.000 A 
ATOM     18  C   UNL     1      44.574   3.954   9.183  0.00  0.00    +0.000 A 
ATOM     19  N   UNL     1      45.378   4.599   8.311  0.00  0.00    +0.000 NA
ATOM     20  C   UNL     1      46.281   3.857   7.630  0.00  0.00    +0.000 A 
BRANCH  15  22
ATOM     21  N   UNL     1      48.511   2.527   6.553  0.00  0.00    +0.000 N 
ATOM     22  C   UNL     1      47.429   1.795   6.952  0.00  0.00    +0.000 C 
ATOM     23  O   UNL     1      47.338   0.605   6.682  0.00  0.00    +0.000 OA
ATOM     24  H   UNL     1      49.256   2.010   6.099  0.00  0.00    +0.000 HD
ATOM     25  H   UNL     1      48.749   3.415   6.971  0.00  0.00    +0.000 HD
ENDBRANCH  15  22
ENDBRANCH  14  18
ENDBRANCH   1  14
TORSDOF 5
ENDMDL
MODEL 3
REMARK VINA RESULT:    -7.613      4.160      8.128
REMARK INTER + INTRA:         -10.791
REMARK INTER:                 -10.057
REMARK INTRA:                  -0.734
REMARK UNBOUND:                -0.953
REMARK  Name = 
REMARK  5 active torsions:
REMARK  status: ('A' for Active; 'I' for Inactive)
REMARK    1  A    between atoms: C_2  and  C_4
REMARK    2  A    between atoms: C_7  and  O_8
REMARK    3  A    between atoms: O_8  and  C_9
REMARK    4  A    between atoms: C_9  and  C_10
REMARK    5  A    between atoms: C_14  and  N_15
REMARK                            x       y       z     vdW  Elec       q    Type
REMARK                         _______ _______ _______ _____ _____    ______ ____
ROOT
ATOM      1  C   UNL     1      46.756   4.373  13.678  0.00  0.00    +0.000 C 
ENDROOT
BRANCH   1   2
ATOM      2  C   UNL     1      45.537   4.147  12.809  0.00  0.00    +0.000 A 
ATOM      3  C   UNL     1      44.290   4.590  13.270  0.00  0.00    +0.000 A 
ATOM      4  C   UNL     1      43.171   4.513  12.449  0.00  0.00    +0.000 A 
ATOM      5  C   UNL     1      43.296   4.023  11.150  0.00  0.00    +0.000 A 
ATOM      6  C   UNL     1      44.529   3.593  10.636  0.00  0.00    +0.000 A 
ATOM      7  C   UNL     1      45.637   3.646  11.500  0.00  0.00    +0.000 A 
BRANCH   6   8
ATOM      8  N   UNL     1      44.659   3.180   9.323  0.00  0.00    +0.000 N 
ATOM      9  C   UNL     1      44.738   1.764   8.966  0.00  0.00    +0.000 C 
ATOM     10  C   UNL     1      46.099   1.455   8.348  0.00  0.00    +0.000 C 
ATOM     11  C   UNL     1      46.399   2.401   7.186  0.00  0.00    +0.000 C 
ATOM     12  C   UNL     1      46.259   3.862   7.614  0.00  0.00    +0.000 C 
ATOM     13  C   UNL     1      44.892   4.138   8.244  0.00  0.00    +0.000 C 
ENDBRANCH   6   8
ENDBRANCH   1   2
BRANCH   1  14
ATOM     14  O   UNL     1      47.251   3.172  14.284  0.00  0.00    +0.000 OA
BRANCH  14  18
ATOM     15  C   UNL     1      48.671   3.963  18.080  0.00  0.00    +0.000 A 
ATOM     16  C   UNL     1      47.721   4.814  17.508  0.00  0.00    +0.000 A 
ATOM     17  C   UNL     1      47.246   4.542  16.220  0.00  0.00    +0.000 A 
ATOM     18  C   UNL     1      47.737   3.426  15.555  0.00  0.00    +0.000 A 
ATOM     19  N   UNL     1      48.656   2.594  16.091  0.00  0.00    +0.000 NA
ATOM     20  C   UNL     1      49.111   2.884  17.331  0.00  0.00    +0.000 A 
BRANCH  15  22
ATOM     21  N   UNL     1      48.549   3.651  20.486  0.00  0.00    +0.000 N 
ATOM     22  C   UNL     1      49.246   4.158  19.426  0.00  0.00    +0.000 C 
ATOM     23  O   UNL     1      50.326   4.711  19.586  0.00  0.00    +0.000 OA
ATOM     24  H   UNL     1      49.016   3.691  21.385  0.00  0.00    +0.000 HD
ATOM     25  H   UNL     1      47.811   2.970  20.375  0.00  0.00    +0.000 HD
ENDBRANCH  15  22
ENDBRANCH  14  18
ENDBRANCH   1  14
TORSDOF 5
ENDMDL
MODEL 4
REMARK VINA RESULT:    -7.467      1.399      2.478
REMARK INTER + INTRA:         -10.602
REMARK INTER:                  -9.696
REMARK INTRA:                  -0.906
REMARK UNBOUND:                -0.953
REMARK  Name = 
REMARK  5 active torsions:
REMARK  status: ('A' for Active; 'I' for Inactive)
REMARK    1  A    between atoms: C_2  and  C_4
REMARK    2  A    between atoms: C_7  and  O_8
REMARK    3  A    between atoms: O_8  and  C_9
REMARK    4  A    between atoms: C_9  and  C_10
REMARK    5  A    between atoms: C_14  and  N_15
REMARK                            x       y       z     vdW  Elec       q    Type
REMARK                         _______ _______ _______ _____ _____    ______ ____
ROOT
ATOM      1  C   UNL     1      44.469   4.835  11.389  0.00  0.00    +0.000 C 
ENDROOT
BRANCH   1   2
ATOM      2  C   UNL     1      44.919   6.279  11.439  0.00  0.00    +0.000 A 
ATOM      3  C   UNL     1      43.957   7.289  11.303  0.00  0.00    +0.000 A 
ATOM      4  C   UNL     1      44.312   8.623  11.468  0.00  0.00    +0.000 A 
ATOM      5  C   UNL     1      45.625   8.955  11.803  0.00  0.00    +0.000 A 
ATOM      6  C   UNL     1      46.615   7.977  11.976  0.00  0.00    +0.000 A 
ATOM      7  C   UNL     1      46.237   6.638  11.765  0.00  0.00    +0.000 A 
BRANCH   6   8
ATOM      8  N   UNL     1      47.894   8.308  12.382  0.00  0.00    +0.000 N 
ATOM      9  C   UNL     1      48.320   9.700  12.525  0.00  0.00    +0.000 C 
ATOM     10  C   UNL     1      49.429  10.013  11.525  0.00  0.00    +0.000 C 
ATOM     11  C   UNL     1      50.571   9.005  11.641  0.00  0.00    +0.000 C 
ATOM     12  C   UNL     1      50.054   7.571  11.524  0.00  0.00    +0.000 C 
ATOM     13  C   UNL     1      48.933   7.291  12.527  0.00  0.00    +0.000 C 
ENDBRANCH   6   8
ENDBRANCH   1   2
BRANCH   1  14
ATOM     14  O   UNL     1      43.844   4.478  10.149  0.00  0.00    +0.000 OA
BRANCH  14  18
ATOM     15  C   UNL     1      46.455   2.369   7.743  0.00  0.00    +0.000 A 
ATOM     16  C   UNL     1      46.385   3.761   7.632  0.00  0.00    +0.000 A 
ATOM     17  C   UNL     1      45.497   4.469   8.448  0.00  0.00    +0.000 A 
ATOM     18  C   UNL     1      44.714   3.758   9.348  0.00  0.00    +0.000 A 
ATOM     19  N   UNL     1      44.765   2.414   9.468  0.00  0.00    +0.000 NA
ATOM     20  C   UNL     1      45.621   1.748   8.659  0.00  0.00    +0.000 A 
BRANCH  15  22
ATOM     21  N   UNL     1      48.505   2.086   6.471  0.00  0.00    +0.000 N 
ATOM     22  C   UNL     1      47.348   1.522   6.928  0.00  0.00    +0.000 C 
ATOM     23  O   UNL     1      47.089   0.346   6.708  0.00  0.00    +0.000 OA
ATOM     24  H   UNL     1      49.157   1.458   6.015  0.00  0.00    +0.000 HD
ATOM     25  H   UNL     1      48.875   2.948   6.848  0.00  0.00    +0.000 HD
ENDBRANCH  15  22
ENDBRANCH  14  18
ENDBRANCH   1  14
TORSDOF 5
ENDMDL
MODEL 5
REMARK VINA RESULT:    -6.516      4.847      7.802
REMARK INTER + INTRA:          -9.373
REMARK INTER:                  -8.609
REMARK INTRA:                  -0.764
REMARK UNBOUND:                -0.953
REMARK  Name = 
REMARK  5 active torsions:
REMARK  status: ('A' for Active; 'I' for Inactive)
REMARK    1  A    between atoms: C_2  and  C_4
REMARK    2  A    between atoms: C_7  and  O_8
REMARK    3  A    between atoms: O_8  and  C_9
REMARK    4  A    between atoms: C_9  and  C_10
REMARK    5  A    between atoms: C_14  and  N_15
REMARK                            x       y       z     vdW  Elec       q    Type
REMARK                         _______ _______ _______ _____ _____    ______ ____
ROOT
ATOM      1  C   UNL     1      47.084   4.153  15.459  0.00  0.00    +0.000 C 
ENDROOT
BRANCH   1   2
ATOM      2  C   UNL     1      46.926   5.004  14.218  0.00  0.00    +0.000 A 
ATOM      3  C   UNL     1      47.821   6.062  14.008  0.00  0.00    +0.000 A 
ATOM      4  C   UNL     1      47.786   6.787  12.823  0.00  0.00    +0.000 A 
ATOM      5  C   UNL     1      46.878   6.438  11.823  0.00  0.00    +0.000 A 
ATOM      6  C   UNL     1      45.982   5.370  11.977  0.00  0.00    +0.000 A 
ATOM      7  C   UNL     1      46.013   4.679  13.202  0.00  0.00    +0.000 A 
BRANCH   6   8
ATOM      8  N   UNL     1      45.138   4.982  10.953  0.00  0.00    +0.000 N 
ATOM      9  C   UNL     1      44.063   4.013  11.166  0.00  0.00    +0.000 C 
ATOM     10  C   UNL     1      44.320   2.757  10.340  0.00  0.00    +0.000 C 
ATOM     11  C   UNL     1      44.551   3.106   8.870  0.00  0.00    +0.000 C 
ATOM     12  C   UNL     1      45.657   4.152   8.720  0.00  0.00    +0.000 C 
ATOM     13  C   UNL     1      45.381   5.392   9.572  0.00  0.00    +0.000 C 
ENDBRANCH   6   8
ENDBRANCH   1   2
BRANCH   1  14
ATOM     14  O   UNL     1      47.845   4.792  16.492  0.00  0.00    +0.000 OA
BRANCH  14  18
ATOM     15  C   UNL     1      51.132   2.496  17.482  0.00  0.00    +0.000 A 
ATOM     16  C   UNL     1      49.947   1.870  17.085  0.00  0.00    +0.000 A 
ATOM     17  C   UNL     1      48.836   2.653  16.754  0.00  0.00    +0.000 A 
ATOM     18  C   UNL     1      48.955   4.035  16.828  0.00  0.00    +0.000 A 
ATOM     19  N   UNL     1      50.090   4.658  17.212  0.00  0.00    +0.000 NA
ATOM     20  C   UNL     1      51.147   3.880  17.541  0.00  0.00    +0.000 A 
BRANCH  15  22
ATOM     21  N   UNL     1      53.088   2.269  18.905  0.00  0.00    +0.000 N 
ATOM     22  C   UNL     1      52.360   1.770  17.862  0.00  0.00    +0.000 C 
ATOM     23  O   UNL     1      52.692   0.737  17.296  0.00  0.00    +0.000 OA
ATOM     24  H   UNL     1      53.859   1.694  19.224  0.00  0.00    +0.000 HD
ATOM     25  H   UNL     1      52.712   2.946  19.554  0.00  0.00    +0.000 HD
ENDBRANCH  15  22
ENDBRANCH  14  18
ENDBRANCH   1  14
TORSDOF 5
ENDMDL
MODEL 6
REMARK VINA RESULT:    -6.343      2.322      3.797
REMARK INTER + INTRA:          -9.150
REMARK INTER:                  -8.577
REMARK INTRA:                  -0.573
REMARK UNBOUND:                -0.953
REMARK  Name = 
REMARK  5 active torsions:
REMARK  status: ('A' for Active; 'I' for Inactive)
REMARK    1  A    between atoms: C_2  and  C_4
REMARK    2  A    between atoms: C_7  and  O_8
REMARK    3  A    between atoms: O_8  and  C_9
REMARK    4  A    between atoms: C_9  and  C_10
REMARK    5  A    between atoms: C_14  and  N_15
REMARK                            x       y       z     vdW  Elec       q    Type
REMARK                         _______ _______ _______ _____ _____    ______ ____
ROOT
ATOM      1  C   UNL     1      44.506   5.650  12.059  0.00  0.00    +0.000 C 
ENDROOT
BRANCH   1   2
ATOM      2  C   UNL     1      45.874   5.744  12.699  0.00  0.00    +0.000 A 
ATOM      3  C   UNL     1      46.839   6.571  12.109  0.00  0.00    +0.000 A 
ATOM      4  C   UNL     1      48.062   6.780  12.734  0.00  0.00    +0.000 A 
ATOM      5  C   UNL     1      48.318   6.190  13.971  0.00  0.00    +0.000 A 
ATOM      6  C   UNL     1      47.373   5.376  14.613  0.00  0.00    +0.000 A 
ATOM      7  C   UNL     1      46.159   5.150  13.940  0.00  0.00    +0.000 A 
BRANCH   6   8
ATOM      8  N   UNL     1      47.605   4.856  15.873  0.00  0.00    +0.000 N 
ATOM      9  C   UNL     1      48.352   5.600  16.887  0.00  0.00    +0.000 C 
ATOM     10  C   UNL     1      49.643   4.863  17.232  0.00  0.00    +0.000 C 
ATOM     11  C   UNL     1      49.357   3.412  17.618  0.00  0.00    +0.000 C 
ATOM     12  C   UNL     1      48.540   2.705  16.537  0.00  0.00    +0.000 C 
ATOM     13  C   UNL     1      47.261   3.474  16.201  0.00  0.00    +0.000 C 
ENDBRANCH   6   8
ENDBRANCH   1   2
BRANCH   1  14
ATOM     14  O   UNL     1      44.143   4.312  11.690  0.00  0.00    +0.000 OA
BRANCH  14  18
ATOM     15  C   UNL     1      45.863   3.213   8.100  0.00  0.00    +0.000 A 
ATOM     16  C   UNL     1      45.346   2.229   8.948  0.00  0.00    +0.000 A 
ATOM     17  C   UNL     1      44.767   2.608  10.164  0.00  0.00    +0.000 A 
ATOM     18  C   UNL     1      44.724   3.959  10.484  0.00  0.00    +0.000 A 
ATOM     19  N   UNL     1      45.220   4.923   9.680  0.00  0.00    +0.000 NA
ATOM     20  C   UNL     1      45.787   4.533   8.515  0.00  0.00    +0.000 A 
BRANCH  15  22
ATOM     21  N   UNL     1      47.083   1.702   6.642  0.00  0.00    +0.000 N 
ATOM     22  C   UNL     1      46.501   2.928   6.800  0.00  0.00    +0.000 C 
ATOM     23  O   UNL     1      46.473   3.737   5.883  0.00  0.00    +0.000 OA
ATOM     24  H   UNL     1      47.411   1.482   5.708  0.00  0.00    +0.000 HD
ATOM     25  H   UNL     1      46.895   0.928   7.263  0.00  0.00    +0.000 HD
ENDBRANCH  15  22
ENDBRANCH  14  18
ENDBRANCH   1  14
TORSDOF 5
ENDMDL
MODEL 7
REMARK VINA RESULT:    -6.291      4.999      7.856
REMARK INTER + INTRA:          -9.083
REMARK INTER:                  -8.279
REMARK INTRA:                  -0.804
REMARK UNBOUND:                -0.953
REMARK  Name = 
REMARK  5 active torsions:
REMARK  status: ('A' for Active; 'I' for Inactive)
REMARK    1  A    between atoms: C_2  and  C_4
REMARK    2  A    between atoms: C_7  and  O_8
REMARK    3  A    between atoms: O_8  and  C_9
REMARK    4  A    between atoms: C_9  and  C_10
REMARK    5  A    between atoms: C_14  and  N_15
REMARK                            x       y       z     vdW  Elec       q    Type
REMARK                         _______ _______ _______ _____ _____    ______ ____
ROOT
ATOM      1  C   UNL     1      48.953   6.445  15.691  0.00  0.00    +0.000 C 
ENDROOT
BRANCH   1   2
ATOM      2  C   UNL     1      48.247   6.614  14.363  0.00  0.00    +0.000 A 
ATOM      3  C   UNL     1      48.790   7.495  13.418  0.00  0.00    +0.000 A 
ATOM      4  C   UNL     1      48.242   7.583  12.144  0.00  0.00    +0.000 A 
ATOM      5  C   UNL     1      47.167   6.767  11.794  0.00  0.00    +0.000 A 
ATOM      6  C   UNL     1      46.608   5.850  12.696  0.00  0.00    +0.000 A 
ATOM      7  C   UNL     1      47.157   5.810  13.991  0.00  0.00    +0.000 A 
BRANCH   6   8
ATOM      8  N   UNL     1      45.593   4.991  12.318  0.00  0.00    +0.000 N 
ATOM      9  C   UNL     1      45.253   4.774  10.911  0.00  0.00    +0.000 C 
ATOM     10  C   UNL     1      43.837   5.269  10.633  0.00  0.00    +0.000 C 
ATOM     11  C   UNL     1      42.839   4.651  11.612  0.00  0.00    +0.000 C 
ATOM     12  C   UNL     1      43.274   4.878  13.059  0.00  0.00    +0.000 C 
ATOM     13  C   UNL     1      44.702   4.386  13.304  0.00  0.00    +0.000 C 
ENDBRANCH   6   8
ENDBRANCH   1   2
BRANCH   1  14
ATOM     14  O   UNL     1      48.365   5.436  16.522  0.00  0.00    +0.000 OA
BRANCH  14  18
ATOM     15  C   UNL     1      51.134   2.509  17.424  0.00  0.00    +0.000 A 
ATOM     16  C   UNL     1      51.465   3.854  17.612  0.00  0.00    +0.000 A 
ATOM     17  C   UNL     1      50.524   4.841  17.302  0.00  0.00    +0.000 A 
ATOM     18  C   UNL     1      49.284   4.444  16.819  0.00  0.00    +0.000 A 
ATOM     19  N   UNL     1      48.946   3.151  16.628  0.00  0.00    +0.000 NA
ATOM     20  C   UNL     1      49.877   2.214  16.921  0.00  0.00    +0.000 A 
BRANCH  15  22
ATOM     21  N   UNL     1      51.493   0.211  18.122  0.00  0.00    +0.000 N 
ATOM     22  C   UNL     1      52.051   1.387  17.710  0.00  0.00    +0.000 C 
ATOM     23  O   UNL     1      53.259   1.489  17.541  0.00  0.00    +0.000 OA
ATOM     24  H   UNL     1      52.126  -0.578  18.200  0.00  0.00    +0.000 HD
ATOM     25  H   UNL     1      50.509   0.009  18.016  0.00  0.00    +0.000 HD
ENDBRANCH  15  22
ENDBRANCH  14  18
ENDBRANCH   1  14
TORSDOF 5
ENDMDL
MODEL 8
REMARK VINA RESULT:    -6.198      3.800      6.612
REMARK INTER + INTRA:          -8.962
REMARK INTER:                  -8.117
REMARK INTRA:                  -0.845
REMARK UNBOUND:                -0.953
REMARK  Name = 
REMARK  5 active torsions:
REMARK  status: ('A' for Active; 'I' for Inactive)
REMARK    1  A    between atoms: C_2  and  C_4
REMARK    2  A    between atoms: C_7  and  O_8
REMARK    3  A    between atoms: O_8  and  C_9
REMARK    4  A    between atoms: C_9  and  C_10
REMARK    5  A    between atoms: C_14  and  N_15
REMARK                            x       y       z     vdW  Elec       q    Type
REMARK                         _______ _______ _______ _____ _____    ______ ____
ROOT
ATOM      1  C   UNL     1      48.517   7.534  13.697  0.00  0.00    +0.000 C 
ENDROOT
BRANCH   1   2
ATOM      2  C   UNL     1      48.758   7.393  15.185  0.00  0.00    +0.000 A 
ATOM      3  C   UNL     1      48.509   8.495  16.015  0.00  0.00    +0.000 A 
ATOM      4  C   UNL     1      48.599   8.368  17.396  0.00  0.00    +0.000 A 
ATOM      5  C   UNL     1      48.906   7.129  17.960  0.00  0.00    +0.000 A 
ATOM      6  C   UNL     1      49.135   5.993  17.171  0.00  0.00    +0.000 A 
ATOM      7  C   UNL     1      49.076   6.159  15.775  0.00  0.00    +0.000 A 
BRANCH   6   8
ATOM      8  N   UNL     1      49.363   4.753  17.739  0.00  0.00    +0.000 N 
ATOM      9  C   UNL     1      50.650   4.407  18.340  0.00  0.00    +0.000 C 
ATOM     10  C   UNL     1      51.303   3.269  17.561  0.00  0.00    +0.000 C 
ATOM     11  C   UNL     1      50.349   2.083  17.423  0.00  0.00    +0.000 C 
ATOM     12  C   UNL     1      49.011   2.520  16.827  0.00  0.00    +0.000 C 
ATOM     13  C   UNL     1      48.388   3.671  17.619  0.00  0.00    +0.000 C 
ENDBRANCH   6   8
ENDBRANCH   1   2
BRANCH   1  14
ATOM     14  O   UNL     1      48.434   6.276  13.015  0.00  0.00    +0.000 OA
BRANCH  14  18
ATOM     15  C   UNL     1      44.536   5.440  11.939  0.00  0.00    +0.000 A 
ATOM     16  C   UNL     1      45.315   6.264  11.123  0.00  0.00    +0.000 A 
ATOM     17  C   UNL     1      46.634   6.546  11.494  0.00  0.00    +0.000 A 
ATOM     18  C   UNL     1      47.125   5.988  12.667  0.00  0.00    +0.000 A 
ATOM     19  N   UNL     1      46.387   5.192  13.470  0.00  0.00    +0.000 NA
ATOM     20  C   UNL     1      45.110   4.944  13.099  0.00  0.00    +0.000 A 
BRANCH  15  22
ATOM     21  N   UNL     1      42.202   6.080  11.732  0.00  0.00    +0.000 N 
ATOM     22  C   UNL     1      43.132   5.084  11.650  0.00  0.00    +0.000 C 
ATOM     23  O   UNL     1      42.818   3.952  11.306  0.00  0.00    +0.000 OA
ATOM     24  H   UNL     1      41.268   5.844  11.417  0.00  0.00    +0.000 HD
ATOM     25  H   UNL     1      42.454   7.058  11.747  0.00  0.00    +0.000 HD
ENDBRANCH  15  22
ENDBRANCH  14  18
ENDBRANCH   1  14
TORSDOF 5
ENDMDL
MODEL 9
REMARK VINA RESULT:    -6.197      3.119      5.763
REMARK INTER + INTRA:          -8.961
REMARK INTER:                  -8.106
REMARK INTRA:                  -0.855
REMARK UNBOUND:                -0.953
REMARK  Name = 
REMARK  5 active torsions:
REMARK  status: ('A' for Active; 'I' for Inactive)
REMARK    1  A    between atoms: C_2  and  C_4
REMARK    2  A    between atoms: C_7  and  O_8
REMARK    3  A    between atoms: O_8  and  C_9
REMARK    4  A    between atoms: C_9  and  C_10
REMARK    5  A    between atoms: C_14  and  N_15
REMARK                            x       y       z     vdW  Elec       q    Type
REMARK                         _______ _______ _______ _____ _____    ______ ____
ROOT
ATOM      1  C   UNL     1      47.875   7.505  12.623  0.00  0.00    +0.000 C 
ENDROOT
BRANCH   1   2
ATOM      2  C   UNL     1      48.834   7.262  13.768  0.00  0.00    +0.000 A 
ATOM      3  C   UNL     1      49.986   8.054  13.862  0.00  0.00    +0.000 A 
ATOM      4  C   UNL     1      50.825   7.945  14.964  0.00  0.00    +0.000 A 
ATOM      5  C   UNL     1      50.502   7.067  15.998  0.00  0.00    +0.000 A 
ATOM      6  C   UNL     1      49.346   6.274  15.961  0.00  0.00    +0.000 A 
ATOM      7  C   UNL     1      48.535   6.375  14.816  0.00  0.00    +0.000 A 
BRANCH   6   8
ATOM      8  N   UNL     1      48.992   5.462  17.023  0.00  0.00    +0.000 N 
ATOM      9  C   UNL     1      49.961   4.578  17.672  0.00  0.00    +0.000 C 
ATOM     10  C   UNL     1      49.554   3.121  17.474  0.00  0.00    +0.000 C 
ATOM     11  C   UNL     1      48.111   2.890  17.924  0.00  0.00    +0.000 C 
ATOM     12  C   UNL     1      47.158   3.871  17.241  0.00  0.00    +0.000 C 
ATOM     13  C   UNL     1      47.600   5.322  17.442  0.00  0.00    +0.000 C 
ENDBRANCH   6   8
ENDBRANCH   1   2
BRANCH   1  14
ATOM     14  O   UNL     1      46.498   7.465  13.020  0.00  0.00    +0.000 OA
BRANCH  14  18
ATOM     15  C   UNL     1      44.636   4.133  11.444  0.00  0.00    +0.000 A 
ATOM     16  C   UNL     1      45.236   5.059  10.586  0.00  0.00    +0.000 A 
ATOM     17  C   UNL     1      45.862   6.187  11.125  0.00  0.00    +0.000 A 
ATOM     18  C   UNL     1      45.869   6.344  12.505  0.00  0.00    +0.000 A 
ATOM     19  N   UNL     1      45.292   5.462  13.350  0.00  0.00    +0.000 NA
ATOM     20  C   UNL     1      44.680   4.386  12.805  0.00  0.00    +0.000 A 
BRANCH  15  22
ATOM     21  N   UNL     1      44.455   2.271   9.895  0.00  0.00    +0.000 N 
ATOM     22  C   UNL     1      43.941   2.914  10.984  0.00  0.00    +0.000 C 
ATOM     23  O   UNL     1      42.969   2.469  11.580  0.00  0.00    +0.000 OA
ATOM     24  H   UNL     1      44.037   1.376   9.667  0.00  0.00    +0.000 HD
ATOM     25  H   UNL     1      45.388   2.449   9.549  0.00  0.00    +0.000 HD
ENDBRANCH  15  22
ENDBRANCH  14  18
ENDBRANCH   1  14
TORSDOF 5
ENDMDL
