MODEL 1
REMARK VINA RESULT:    -6.520      0.000      0.000
REMARK INTER + INTRA:          -9.246
REMARK INTER:                  -8.425
REMARK INTRA:                  -0.821
REMARK UNBOUND:                -0.821
REMARK  Name = 
REMARK  5 active torsions:
REMARK  status: ('A' for Active; 'I' for Inactive)
REMARK    1  A    between atoms: C_2  and  C_3
REMARK    2  A    between atoms: C_6  and  C_7
REMARK    3  A    between atoms: C_11  and  C_12
REMARK    4  A    between atoms: C_12  and  N_13
REMARK    5  A    between atoms: C_17  and  C_18
REMARK                            x       y       z     vdW  Elec       q    Type
REMARK                         _______ _______ _______ _____ _____    ______ ____
ROOT
ATOM      1  C   UNL     1      48.466   8.139  12.965  0.00  0.00    +0.000 C 
ATOM      2  C   UNL     1      49.581   7.832  11.978  0.00  0.00    +0.000 C 
ATOM      3  C   UNL     1      49.222   9.250  12.232  0.00  0.00    +0.000 C 
ATOM      4  F   UNL     1      48.539   9.924  11.232  0.00  0.00    +0.000 F 
ENDROOT
BRANCH   1   5
ATOM      5  N   UNL     1      47.053   7.978  12.601  0.00  0.00    +0.000 N 
ATOM      6  C   UNL     1      46.356   6.793  12.398  0.00  0.00    +0.000 A 
ATOM      7  C   UNL     1      46.709   5.559  12.924  0.00  0.00    +0.000 A 
ATOM      8  C   UNL     1      45.906   4.442  12.673  0.00  0.00    +0.000 A 
ATOM      9  C   UNL     1      44.755   4.576  11.900  0.00  0.00    +0.000 A 
ATOM     10  C   UNL     1      44.465   5.845  11.432  0.00  0.00    +0.000 A 
ATOM     11  N   UNL     1      45.236   6.938  11.661  0.00  0.00    +0.000 NA
ATOM     12  H   UNL     1      46.639   8.683  11.994  0.00  0.00    +0.000 HD
BRANCH   9  13
ATOM     13  C   UNL     1      43.920   3.385  11.611  0.00  0.00    +0.000 C 
ATOM     14  N   UNL     1      43.740   2.448  12.589  0.00  0.00    +0.000 N 
ATOM     15  O   UNL     1      43.384   3.241  10.518  0.00  0.00    +0.000 OA
ATOM     16  H   UNL     1      44.113   2.483  13.526  0.00  0.00    +0.000 HD
ATOM     17  H   UNL     1      43.145   1.662  12.359  0.00  0.00    +0.000 HD
ENDBRANCH   9  13
ENDBRANCH   1   5
BRANCH   1  22
ATOM     18  C   UNL     1      49.844   6.912  16.361  0.00  0.00    +0.000 A 
ATOM     19  C   UNL     1      49.315   7.933  17.149  0.00  0.00    +0.000 A 
ATOM     20  N   UNL     1      48.519   8.932  16.699  0.00  0.00    +0.000 NA
ATOM     21  C   UNL     1      48.242   8.933  15.377  0.00  0.00    +0.000 A 
ATOM     22  C   UNL     1      48.751   8.024  14.454  0.00  0.00    +0.000 A 
ATOM     23  C   UNL     1      49.556   7.006  14.991  0.00  0.00    +0.000 A 
BRANCH  18  27
ATOM     24  C   UNL     1      52.164   3.631  17.936  0.00  0.00    +0.000 A 
ATOM     25  C   UNL     1      50.776   3.537  17.858  0.00  0.00    +0.000 A 
ATOM     26  C   UNL     1      50.026   4.604  17.348  0.00  0.00    +0.000 A 
ATOM     27  C   UNL     1      50.639   5.796  16.920  0.00  0.00    +0.000 A 
ATOM     28  C   UNL     1      52.044   5.866  17.017  0.00  0.00    +0.000 A 
ATOM     29  C   UNL     1      52.798   4.796  17.511  0.00  0.00    +0.000 A 
BRANCH  24  31
ATOM     30  N   UNL     1      53.553   1.652  18.868  0.00  0.00    +0.000 NA
ATOM     31  C   UNL     1      52.933   2.535  18.450  0.00  0.00    +0.000 C 
ENDBRANCH  24  31
ENDBRANCH  18  27
ENDBRANCH   1  22
TORSDOF 5
ENDMDL
MODEL 2
REMARK VINA RESULT:    -6.190      3.689      8.533
REMARK INTER + INTRA:          -8.821
REMARK INTER:                  -8.196
REMARK INTRA:                  -0.625
REMARK UNBOUND:                -0.821
REMARK  Name = 
REMARK  5 active torsions:
REMARK  status: ('A' for Active; 'I' for Inactive)
REMARK    1  A    between atoms: C_2  and  C_3
REMARK    2  A    between atoms: C_6  and  C_7
REMARK    3  A    between atoms: C_11  and  C_12
REMARK    4  A    between atoms: C_12  and  N_13
REMARK    5  A    between atoms: C_17  and  C_18
REMARK                            x       y       z     vdW  Elec       q    Type
REMARK                         _______ _______ _______ _____ _____    ______ ____
ROOT
ATOM      1  C   UNL     1      49.510   5.232  17.895  0.00  0.00    +0.000 C 
ATOM      2  C   UNL     1      48.428   4.414  18.582  0.00  0.00    +0.000 C 
ATOM      3  C   UNL     1      48.816   5.722  19.169  0.00  0.00    +0.000 C 
ATOM      4  F   UNL     1      49.558   5.701  20.338  0.00  0.00    +0.000 F 
ENDROOT
BRANCH   1   5
ATOM      5  N   UNL     1      50.931   4.892  18.031  0.00  0.00    +0.000 N 
ATOM      6  C   UNL     1      51.512   3.630  17.990  0.00  0.00    +0.000 A 
ATOM      7  C   UNL     1      50.958   2.516  17.377  0.00  0.00    +0.000 A 
ATOM      8  C   UNL     1      51.658   1.304  17.376  0.00  0.00    +0.000 A 
ATOM      9  C   UNL     1      52.907   1.225  17.987  0.00  0.00    +0.000 A 
ATOM     10  C   UNL     1      53.395   2.387  18.556  0.00  0.00    +0.000 A 
ATOM     11  N   UNL     1      52.727   3.569  18.571  0.00  0.00    +0.000 NA
ATOM     12  H   UNL     1      51.497   5.467  18.652  0.00  0.00    +0.000 HD
BRANCH   9  13
ATOM     13  C   UNL     1      53.634  -0.067  18.009  0.00  0.00    +0.000 C 
ATOM     14  N   UNL     1      53.113  -1.109  18.725  0.00  0.00    +0.000 N 
ATOM     15  O   UNL     1      54.680  -0.213  17.388  0.00  0.00    +0.000 OA
ATOM     16  H   UNL     1      52.250  -1.103  19.246  0.00  0.00    +0.000 HD
ATOM     17  H   UNL     1      53.628  -1.980  18.695  0.00  0.00    +0.000 HD
ENDBRANCH   9  13
ENDBRANCH   1   5
BRANCH   1  22
ATOM     18  C   UNL     1      47.910   6.205  14.513  0.00  0.00    +0.000 A 
ATOM     19  C   UNL     1      48.494   7.465  14.395  0.00  0.00    +0.000 A 
ATOM     20  N   UNL     1      49.386   7.996  15.264  0.00  0.00    +0.000 NA
ATOM     21  C   UNL     1      49.711   7.237  16.333  0.00  0.00    +0.000 A 
ATOM     22  C   UNL     1      49.162   5.991  16.624  0.00  0.00    +0.000 A 
ATOM     23  C   UNL     1      48.255   5.494  15.674  0.00  0.00    +0.000 A 
BRANCH  18  27
ATOM     24  C   UNL     1      45.317   4.535  11.495  0.00  0.00    +0.000 A 
ATOM     25  C   UNL     1      45.885   5.795  11.315  0.00  0.00    +0.000 A 
ATOM     26  C   UNL     1      46.724   6.334  12.297  0.00  0.00    +0.000 A 
ATOM     27  C   UNL     1      47.004   5.640  13.489  0.00  0.00    +0.000 A 
ATOM     28  C   UNL     1      46.410   4.371  13.647  0.00  0.00    +0.000 A 
ATOM     29  C   UNL     1      45.584   3.822  12.661  0.00  0.00    +0.000 A 
BRANCH  24  31
ATOM     30  N   UNL     1      43.779   3.526   9.669  0.00  0.00    +0.000 NA
ATOM     31  C   UNL     1      44.464   3.979  10.485  0.00  0.00    +0.000 C 
ENDBRANCH  24  31
ENDBRANCH  18  27
ENDBRANCH   1  22
TORSDOF 5
ENDMDL
MODEL 3
REMARK VINA RESULT:    -5.465      3.597      6.960
REMARK INTER + INTRA:          -7.884
REMARK INTER:                  -7.902
REMARK INTRA:                   0.019
REMARK UNBOUND:                -0.821
REMARK  Name = 
REMARK  5 active torsions:
REMARK  status: ('A' for Active; 'I' for Inactive)
REMARK    1  A    between atoms: C_2  and  C_3
REMARK    2  A    between atoms: C_6  and  C_7
REMARK    3  A    between atoms: C_11  and  C_12
REMARK    4  A    between atoms: C_12  and  N_13
REMARK    5  A    between atoms: C_17  and  C_18
REMARK                            x       y       z     vdW  Elec       q    Type
REMARK                         _______ _______ _______ _____ _____    ______ ____
ROOT
ATOM      1  C   UNL     1      45.626   5.023  12.664  0.00  0.00    +0.000 C 
ATOM      2  C   UNL     1      45.665   4.157  11.416  0.00  0.00    +0.000 C 
ATOM      3  C   UNL     1      44.352   4.653  11.900  0.00  0.00    +0.000 C 
ATOM      4  F   UNL     1      43.504   3.734  12.496  0.00  0.00    +0.000 F 
ENDROOT
BRANCH   1   5
ATOM      5  N   UNL     1      45.759   4.443  14.005  0.00  0.00    +0.000 N 
ATOM      6  C   UNL     1      46.800   4.618  14.909  0.00  0.00    +0.000 A 
ATOM      7  C   UNL     1      47.671   5.698  14.923  0.00  0.00    +0.000 A 
ATOM      8  C   UNL     1      48.663   5.777  15.907  0.00  0.00    +0.000 A 
ATOM      9  C   UNL     1      48.766   4.775  16.869  0.00  0.00    +0.000 A 
ATOM     10  C   UNL     1      47.844   3.746  16.795  0.00  0.00    +0.000 A 
ATOM     11  N   UNL     1      46.881   3.650  15.845  0.00  0.00    +0.000 NA
ATOM     12  H   UNL     1      45.379   3.510  14.156  0.00  0.00    +0.000 HD
BRANCH   9  13
ATOM     13  C   UNL     1      49.835   4.846  17.893  0.00  0.00    +0.000 C 
ATOM     14  N   UNL     1      49.910   3.867  18.844  0.00  0.00    +0.000 N 
ATOM     15  O   UNL     1      50.654   5.759  17.889  0.00  0.00    +0.000 OA
ATOM     16  H   UNL     1      49.307   3.063  18.921  0.00  0.00    +0.000 HD
ATOM     17  H   UNL     1      50.669   3.940  19.511  0.00  0.00    +0.000 HD
ENDBRANCH   9  13
ENDBRANCH   1   5
BRANCH   1  22
ATOM     18  C   UNL     1      47.713   8.205  11.984  0.00  0.00    +0.000 A 
ATOM     19  C   UNL     1      46.726   9.138  12.300  0.00  0.00    +0.000 A 
ATOM     20  N   UNL     1      45.488   8.838  12.760  0.00  0.00    +0.000 NA
ATOM     21  C   UNL     1      45.199   7.526  12.900  0.00  0.00    +0.000 A 
ATOM     22  C   UNL     1      46.052   6.479  12.562  0.00  0.00    +0.000 A 
ATOM     23  C   UNL     1      47.324   6.862  12.106  0.00  0.00    +0.000 A 
BRANCH  18  27
ATOM     24  C   UNL     1      51.710   9.343  10.821  0.00  0.00    +0.000 A 
ATOM     25  C   UNL     1      50.721  10.312  10.980  0.00  0.00    +0.000 A 
ATOM     26  C   UNL     1      49.425   9.939  11.356  0.00  0.00    +0.000 A 
ATOM     27  C   UNL     1      49.078   8.591  11.566  0.00  0.00    +0.000 A 
ATOM     28  C   UNL     1      50.096   7.632  11.390  0.00  0.00    +0.000 A 
ATOM     29  C   UNL     1      51.397   8.002  11.031  0.00  0.00    +0.000 A 
BRANCH  24  31
ATOM     30  N   UNL     1      54.115  10.031  10.145  0.00  0.00    +0.000 NA
ATOM     31  C   UNL     1      53.040   9.725  10.446  0.00  0.00    +0.000 C 
ENDBRANCH  24  31
ENDBRANCH  18  27
ENDBRANCH   1  22
TORSDOF 5
ENDMDL
MODEL 4
REMARK VINA RESULT:    -5.345      2.904      4.398
REMARK INTER + INTRA:          -7.729
REMARK INTER:                  -6.973
REMARK INTRA:                  -0.756
REMARK UNBOUND:                -0.821
REMARK  Name = 
REMARK  5 active torsions:
REMARK  status: ('A' for Active; 'I' for Inactive)
REMARK    1  A    between atoms: C_2  and  C_3
REMARK    2  A    between atoms: C_6  and  C_7
REMARK    3  A    between atoms: C_11  and  C_12
REMARK    4  A    between atoms: C_12  and  N_13
REMARK    5  A    between atoms: C_17  and  C_18
REMARK                            x       y       z     vdW  Elec       q    Type
REMARK                         _______ _______ _______ _____ _____    ______ ____
ROOT
ATOM      1  C   UNL     1      48.670   5.983  17.437  0.00  0.00    +0.000 C 
ATOM      2  C   UNL     1      48.115   7.374  17.696  0.00  0.00    +0.000 C 
ATOM      3  C   UNL     1      47.976   6.340  18.754  0.00  0.00    +0.000 C 
ATOM      4  F   UNL     1      46.713   5.811  18.966  0.00  0.00    +0.000 F 
ENDROOT
BRANCH   1   5
ATOM      5  N   UNL     1      47.963   5.022  16.582  0.00  0.00    +0.000 N 
ATOM      6  C   UNL     1      47.488   5.220  15.291  0.00  0.00    +0.000 A 
ATOM      7  C   UNL     1      47.968   6.171  14.402  0.00  0.00    +0.000 A 
ATOM      8  C   UNL     1      47.427   6.251  13.113  0.00  0.00    +0.000 A 
ATOM      9  C   UNL     1      46.415   5.374  12.731  0.00  0.00    +0.000 A 
ATOM     10  C   UNL     1      46.011   4.444  13.671  0.00  0.00    +0.000 A 
ATOM     11  N   UNL     1      46.519   4.356  14.926  0.00  0.00    +0.000 NA
ATOM     12  H   UNL     1      47.341   4.354  17.035  0.00  0.00    +0.000 HD
BRANCH   9  13
ATOM     13  C   UNL     1      45.825   5.480  11.375  0.00  0.00    +0.000 C 
ATOM     14  N   UNL     1      44.701   4.758  11.082  0.00  0.00    +0.000 N 
ATOM     15  O   UNL     1      46.321   6.212  10.526  0.00  0.00    +0.000 OA
ATOM     16  H   UNL     1      44.201   4.151  11.712  0.00  0.00    +0.000 HD
ATOM     17  H   UNL     1      44.317   4.877  10.153  0.00  0.00    +0.000 HD
ENDBRANCH   9  13
ENDBRANCH   1   5
BRANCH   1  22
ATOM     18  C   UNL     1      52.130   4.271  17.629  0.00  0.00    +0.000 A 
ATOM     19  C   UNL     1      52.906   5.429  17.577  0.00  0.00    +0.000 A 
ATOM     20  N   UNL     1      52.420   6.692  17.544  0.00  0.00    +0.000 NA
ATOM     21  C   UNL     1      51.075   6.821  17.545  0.00  0.00    +0.000 A 
ATOM     22  C   UNL     1      50.171   5.762  17.525  0.00  0.00    +0.000 A 
ATOM     23  C   UNL     1      50.743   4.480  17.575  0.00  0.00    +0.000 A 
BRANCH  18  27
ATOM     24  C   UNL     1      53.829   0.325  18.038  0.00  0.00    +0.000 A 
ATOM     25  C   UNL     1      54.633   1.455  18.177  0.00  0.00    +0.000 A 
ATOM     26  C   UNL     1      54.079   2.733  18.042  0.00  0.00    +0.000 A 
ATOM     27  C   UNL     1      52.714   2.918  17.748  0.00  0.00    +0.000 A 
ATOM     28  C   UNL     1      51.927   1.757  17.605  0.00  0.00    +0.000 A 
ATOM     29  C   UNL     1      52.473   0.478  17.755  0.00  0.00    +0.000 A 
BRANCH  24  31
ATOM     30  N   UNL     1      54.852  -2.041  18.301  0.00  0.00    +0.000 NA
ATOM     31  C   UNL     1      54.393  -0.984  18.185  0.00  0.00    +0.000 C 
ENDBRANCH  24  31
ENDBRANCH  18  27
ENDBRANCH   1  22
TORSDOF 5
ENDMDL
MODEL 5
REMARK VINA RESULT:    -5.112      2.767      3.102
REMARK INTER + INTRA:          -7.427
REMARK INTER:                  -6.966
REMARK INTRA:                  -0.461
REMARK UNBOUND:                -0.821
REMARK  Name = 
REMARK  5 active torsions:
REMARK  status: ('A' for Active; 'I' for Inactive)
REMARK    1  A    between atoms: C_2  and  C_3
REMARK    2  A    between atoms: C_6  and  C_7
REMARK    3  A    between atoms: C_11  and  C_12
REMARK    4  A    between atoms: C_12  and  N_13
REMARK    5  A    between atoms: C_17  and  C_18
REMARK                            x       y       z     vdW  Elec       q    Type
REMARK                         _______ _______ _______ _____ _____    ______ ____
ROOT
ATOM      1  C   UNL     1      48.801   8.549  13.193  0.00  0.00    +0.000 C 
ATOM      2  C   UNL     1      49.078   7.452  12.177  0.00  0.00    +0.000 C 
ATOM      3  C   UNL     1      50.109   8.499  12.398  0.00  0.00    +0.000 C 
ATOM      4  F   UNL     1      50.279   9.446  11.402  0.00  0.00    +0.000 F 
ENDROOT
BRANCH   1   5
ATOM      5  N   UNL     1      47.909   9.673  12.884  0.00  0.00    +0.000 N 
ATOM      6  C   UNL     1      46.649   9.623  12.297  0.00  0.00    +0.000 A 
ATOM      7  C   UNL     1      45.810   8.519  12.303  0.00  0.00    +0.000 A 
ATOM      8  C   UNL     1      44.548   8.603  11.704  0.00  0.00    +0.000 A 
ATOM      9  C   UNL     1      44.142   9.796  11.110  0.00  0.00    +0.000 A 
ATOM     10  C   UNL     1      45.031  10.853  11.167  0.00  0.00    +0.000 A 
ATOM     11  N   UNL     1      46.261  10.787  11.739  0.00  0.00    +0.000 NA
ATOM     12  H   UNL     1      48.337  10.555  12.610  0.00  0.00    +0.000 HD
BRANCH   9  13
ATOM     13  C   UNL     1      42.816   9.874  10.451  0.00  0.00    +0.000 C 
ATOM     14  N   UNL     1      41.749   9.247  11.030  0.00  0.00    +0.000 N 
ATOM     15  O   UNL     1      42.666  10.502   9.408  0.00  0.00    +0.000 OA
ATOM     16  H   UNL     1      41.758   8.730  11.895  0.00  0.00    +0.000 HD
ATOM     17  H   UNL     1      40.857   9.345  10.560  0.00  0.00    +0.000 HD
ENDBRANCH   9  13
ENDBRANCH   1   5
BRANCH   1  22
ATOM     18  C   UNL     1      49.839   6.881  16.521  0.00  0.00    +0.000 A 
ATOM     19  C   UNL     1      49.178   7.762  17.377  0.00  0.00    +0.000 A 
ATOM     20  N   UNL     1      48.395   8.793  16.981  0.00  0.00    +0.000 NA
ATOM     21  C   UNL     1      48.269   8.978  15.649  0.00  0.00    +0.000 A 
ATOM     22  C   UNL     1      48.920   8.227  14.674  0.00  0.00    +0.000 A 
ATOM     23  C   UNL     1      49.704   7.165  15.153  0.00  0.00    +0.000 A 
BRANCH  18  27
ATOM     24  C   UNL     1      52.102   3.469  17.884  0.00  0.00    +0.000 A 
ATOM     25  C   UNL     1      50.715   3.397  17.782  0.00  0.00    +0.000 A 
ATOM     26  C   UNL     1      49.983   4.506  17.341  0.00  0.00    +0.000 A 
ATOM     27  C   UNL     1      50.615   5.720  17.008  0.00  0.00    +0.000 A 
ATOM     28  C   UNL     1      52.018   5.766  17.128  0.00  0.00    +0.000 A 
ATOM     29  C   UNL     1      52.754   4.654  17.552  0.00  0.00    +0.000 A 
BRANCH  24  31
ATOM     30  N   UNL     1      53.461   1.411  18.681  0.00  0.00    +0.000 NA
ATOM     31  C   UNL     1      52.853   2.330  18.326  0.00  0.00    +0.000 C 
ENDBRANCH  24  31
ENDBRANCH  18  27
ENDBRANCH   1  22
TORSDOF 5
ENDMDL
MODEL 6
REMARK VINA RESULT:    -4.552     11.868     14.336
REMARK INTER + INTRA:          -6.703
REMARK INTER:                  -5.898
REMARK INTRA:                  -0.805
REMARK UNBOUND:                -0.821
REMARK  Name = 
REMARK  5 active torsions:
REMARK  status: ('A' for Active; 'I' for Inactive)
REMARK    1  A    between atoms: C_2  and  C_3
REMARK    2  A    between atoms: C_6  and  C_7
REMARK    3  A    between atoms: C_11  and  C_12
REMARK    4  A    between atoms: C_12  and  N_13
REMARK    5  A    between atoms: C_17  and  C_18
REMARK                            x       y       z     vdW  Elec       q    Type
REMARK                         _______ _______ _______ _____ _____    ______ ____
ROOT
ATOM      1  C   UNL     1      40.745  -4.383  14.167  0.00  0.00    +0.000 C 
ATOM      2  C   UNL     1      41.487  -3.423  13.251  0.00  0.00    +0.000 C 
ATOM      3  C   UNL     1      40.611  -4.458  12.644  0.00  0.00    +0.000 C 
ATOM      4  F   UNL     1      41.228  -5.522  12.008  0.00  0.00    +0.000 F 
ENDROOT
BRANCH   1   5
ATOM      5  N   UNL     1      41.426  -5.515  14.805  0.00  0.00    +0.000 N 
ATOM      6  C   UNL     1      42.319  -5.481  15.870  0.00  0.00    +0.000 A 
ATOM      7  C   UNL     1      42.397  -4.467  16.814  0.00  0.00    +0.000 A 
ATOM      8  C   UNL     1      43.320  -4.563  17.861  0.00  0.00    +0.000 A 
ATOM      9  C   UNL     1      44.152  -5.677  17.951  0.00  0.00    +0.000 A 
ATOM     10  C   UNL     1      43.994  -6.651  16.982  0.00  0.00    +0.000 A 
ATOM     11  N   UNL     1      43.109  -6.571  15.956  0.00  0.00    +0.000 NA
ATOM     12  H   UNL     1      41.687  -6.304  14.215  0.00  0.00    +0.000 HD
BRANCH   9  13
ATOM     13  C   UNL     1      45.148  -5.763  19.045  0.00  0.00    +0.000 C 
ATOM     14  N   UNL     1      46.455  -6.019  18.735  0.00  0.00    +0.000 N 
ATOM     15  O   UNL     1      44.819  -5.596  20.214  0.00  0.00    +0.000 OA
ATOM     16  H   UNL     1      46.834  -6.145  17.809  0.00  0.00    +0.000 HD
ATOM     17  H   UNL     1      47.107  -6.047  19.508  0.00  0.00    +0.000 HD
ENDBRANCH   9  13
ENDBRANCH   1   5
BRANCH   1  22
ATOM     18  C   UNL     1      38.256  -2.099  16.045  0.00  0.00    +0.000 A 
ATOM     19  C   UNL     1      37.216  -3.021  16.157  0.00  0.00    +0.000 A 
ATOM     20  N   UNL     1      37.267  -4.307  15.739  0.00  0.00    +0.000 NA
ATOM     21  C   UNL     1      38.417  -4.707  15.155  0.00  0.00    +0.000 A 
ATOM     22  C   UNL     1      39.515  -3.887  14.910  0.00  0.00    +0.000 A 
ATOM     23  C   UNL     1      39.401  -2.569  15.383  0.00  0.00    +0.000 A 
BRANCH  18  27
ATOM     24  C   UNL     1      37.965   1.892  17.661  0.00  0.00    +0.000 A 
ATOM     25  C   UNL     1      37.623   1.645  16.333  0.00  0.00    +0.000 A 
ATOM     26  C   UNL     1      37.721   0.349  15.812  0.00  0.00    +0.000 A 
ATOM     27  C   UNL     1      38.177  -0.728  16.595  0.00  0.00    +0.000 A 
ATOM     28  C   UNL     1      38.522  -0.447  17.932  0.00  0.00    +0.000 A 
ATOM     29  C   UNL     1      38.411   0.843  18.462  0.00  0.00    +0.000 A 
BRANCH  24  31
ATOM     30  N   UNL     1      37.766   4.286  18.634  0.00  0.00    +0.000 NA
ATOM     31  C   UNL     1      37.857   3.217  18.198  0.00  0.00    +0.000 C 
ENDBRANCH  24  31
ENDBRANCH  18  27
ENDBRANCH   1  22
TORSDOF 5
ENDMDL
MODEL 7
REMARK VINA RESULT:    -4.536      4.695      7.322
REMARK INTER + INTRA:          -6.683
REMARK INTER:                  -5.956
REMARK INTRA:                  -0.728
REMARK UNBOUND:                -0.821
REMARK  Name = 
REMARK  5 active torsions:
REMARK  status: ('A' for Active; 'I' for Inactive)
REMARK    1  A    between atoms: C_2  and  C_3
REMARK    2  A    between atoms: C_6  and  C_7
REMARK    3  A    between atoms: C_11  and  C_12
REMARK    4  A    between atoms: C_12  and  N_13
REMARK    5  A    between atoms: C_17  and  C_18
REMARK                            x       y       z     vdW  Elec       q    Type
REMARK                         _______ _______ _______ _____ _____    ______ ____
ROOT
ATOM      1  C   UNL     1      49.514   8.914  12.720  0.00  0.00    +0.000 C 
ATOM      2  C   UNL     1      48.411   8.255  11.909  0.00  0.00    +0.000 C 
ATOM      3  C   UNL     1      48.647   9.711  11.743  0.00  0.00    +0.000 C 
ATOM      4  F   UNL     1      47.711  10.575  12.289  0.00  0.00    +0.000 F 
ENDROOT
BRANCH   1   5
ATOM      5  N   UNL     1      49.334   9.233  14.141  0.00  0.00    +0.000 N 
ATOM      6  C   UNL     1      49.051   8.356  15.182  0.00  0.00    +0.000 A 
ATOM      7  C   UNL     1      49.324   6.996  15.175  0.00  0.00    +0.000 A 
ATOM      8  C   UNL     1      49.019   6.222  16.300  0.00  0.00    +0.000 A 
ATOM      9  C   UNL     1      48.448   6.821  17.420  0.00  0.00    +0.000 A 
ATOM     10  C   UNL     1      48.228   8.185  17.350  0.00  0.00    +0.000 A 
ATOM     11  N   UNL     1      48.512   8.950  16.266  0.00  0.00    +0.000 NA
ATOM     12  H   UNL     1      48.909  10.129  14.375  0.00  0.00    +0.000 HD
BRANCH   9  13
ATOM     13  C   UNL     1      48.099   5.994  18.600  0.00  0.00    +0.000 C 
ATOM     14  N   UNL     1      46.802   5.601  18.776  0.00  0.00    +0.000 N 
ATOM     15  O   UNL     1      48.958   5.650  19.405  0.00  0.00    +0.000 OA
ATOM     16  H   UNL     1      46.028   5.806  18.162  0.00  0.00    +0.000 HD
ATOM     17  H   UNL     1      46.610   5.018  19.581  0.00  0.00    +0.000 HD
ENDBRANCH   9  13
ENDBRANCH   1   5
BRANCH   1  22
ATOM     18  C   UNL     1      52.649   7.761  10.776  0.00  0.00    +0.000 A 
ATOM     19  C   UNL     1      53.593   8.465  11.523  0.00  0.00    +0.000 A 
ATOM     20  N   UNL     1      53.318   9.218  12.614  0.00  0.00    +0.000 NA
ATOM     21  C   UNL     1      52.021   9.297  12.982  0.00  0.00    +0.000 A 
ATOM     22  C   UNL     1      50.960   8.709  12.298  0.00  0.00    +0.000 A 
ATOM     23  C   UNL     1      51.317   7.930  11.186  0.00  0.00    +0.000 A 
BRANCH  18  27
ATOM     24  C   UNL     1      53.754   5.245   7.448  0.00  0.00    +0.000 A 
ATOM     25  C   UNL     1      52.775   6.225   7.294  0.00  0.00    +0.000 A 
ATOM     26  C   UNL     1      52.418   7.038   8.377  0.00  0.00    +0.000 A 
ATOM     27  C   UNL     1      53.015   6.884   9.642  0.00  0.00    +0.000 A 
ATOM     28  C   UNL     1      53.996   5.881   9.770  0.00  0.00    +0.000 A 
ATOM     29  C   UNL     1      54.368   5.077   8.687  0.00  0.00    +0.000 A 
BRANCH  24  31
ATOM     30  N   UNL     1      54.431   3.749   5.444  0.00  0.00    +0.000 NA
ATOM     31  C   UNL     1      54.127   4.418   6.338  0.00  0.00    +0.000 C 
ENDBRANCH  24  31
ENDBRANCH  18  27
ENDBRANCH   1  22
TORSDOF 5
ENDMDL
MODEL 8
REMARK VINA RESULT:    -4.330     11.617     12.805
REMARK INTER + INTRA:          -6.417
REMARK INTER:                  -5.738
REMARK INTRA:                  -0.679
REMARK UNBOUND:                -0.821
REMARK  Name = 
REMARK  5 active torsions:
REMARK  status: ('A' for Active; 'I' for Inactive)
REMARK    1  A    between atoms: C_2  and  C_3
REMARK    2  A    between atoms: C_6  and  C_7
REMARK    3  A    between atoms: C_11  and  C_12
REMARK    4  A    between atoms: C_12  and  N_13
REMARK    5  A    between atoms: C_17  and  C_18
REMARK                            x       y       z     vdW  Elec       q    Type
REMARK                         _______ _______ _______ _____ _____    ______ ____
ROOT
ATOM      1  C   UNL     1      39.885  -2.821  16.346  0.00  0.00    +0.000 C 
ATOM      2  C   UNL     1      40.747  -1.574  16.229  0.00  0.00    +0.000 C 
ATOM      3  C   UNL     1      39.664  -1.602  17.245  0.00  0.00    +0.000 C 
ATOM      4  F   UNL     1      38.539  -0.832  16.999  0.00  0.00    +0.000 F 
ENDROOT
BRANCH   1   5
ATOM      5  N   UNL     1      38.815  -3.108  15.383  0.00  0.00    +0.000 N 
ATOM      6  C   UNL     1      38.883  -3.057  13.995  0.00  0.00    +0.000 A 
ATOM      7  C   UNL     1      40.046  -3.171  13.249  0.00  0.00    +0.000 A 
ATOM      8  C   UNL     1      39.980  -3.136  11.851  0.00  0.00    +0.000 A 
ATOM      9  C   UNL     1      38.748  -2.990  11.219  0.00  0.00    +0.000 A 
ATOM     10  C   UNL     1      37.636  -2.905  12.038  0.00  0.00    +0.000 A 
ATOM     11  N   UNL     1      37.683  -2.931  13.394  0.00  0.00    +0.000 NA
ATOM     12  H   UNL     1      37.862  -2.868  15.650  0.00  0.00    +0.000 HD
BRANCH   9  13
ATOM     13  C   UNL     1      38.683  -2.925   9.740  0.00  0.00    +0.000 C 
ATOM     14  N   UNL     1      39.599  -3.623   9.004  0.00  0.00    +0.000 N 
ATOM     15  O   UNL     1      37.817  -2.267   9.175  0.00  0.00    +0.000 OA
ATOM     16  H   UNL     1      40.332  -4.213   9.367  0.00  0.00    +0.000 HD
ATOM     17  H   UNL     1      39.506  -3.571   7.997  0.00  0.00    +0.000 HD
ENDBRANCH   9  13
ENDBRANCH   1   5
BRANCH   1  22
ATOM     18  C   UNL     1      42.375  -5.413  17.768  0.00  0.00    +0.000 A 
ATOM     19  C   UNL     1      41.439  -6.239  18.389  0.00  0.00    +0.000 A 
ATOM     20  N   UNL     1      40.097  -6.068  18.343  0.00  0.00    +0.000 NA
ATOM     21  C   UNL     1      39.648  -5.000  17.650  0.00  0.00    +0.000 A 
ATOM     22  C   UNL     1      40.459  -4.049  17.035  0.00  0.00    +0.000 A 
ATOM     23  C   UNL     1      41.839  -4.295  17.109  0.00  0.00    +0.000 A 
BRANCH  18  27
ATOM     24  C   UNL     1      46.617  -6.205  17.752  0.00  0.00    +0.000 A 
ATOM     25  C   UNL     1      45.734  -7.091  17.139  0.00  0.00    +0.000 A 
ATOM     26  C   UNL     1      44.358  -6.832  17.148  0.00  0.00    +0.000 A 
ATOM     27  C   UNL     1      43.827  -5.693  17.782  0.00  0.00    +0.000 A 
ATOM     28  C   UNL     1      44.743  -4.818  18.400  0.00  0.00    +0.000 A 
ATOM     29  C   UNL     1      46.120  -5.065  18.380  0.00  0.00    +0.000 A 
BRANCH  24  31
ATOM     30  N   UNL     1      49.165  -6.675  17.726  0.00  0.00    +0.000 NA
ATOM     31  C   UNL     1      48.027  -6.465  17.736  0.00  0.00    +0.000 C 
ENDBRANCH  24  31
ENDBRANCH  18  27
ENDBRANCH   1  22
TORSDOF 5
ENDMDL
MODEL 9
REMARK VINA RESULT:    -4.320      3.124      7.053
REMARK INTER + INTRA:          -6.404
REMARK INTER:                  -6.243
REMARK INTRA:                  -0.160
REMARK UNBOUND:                -0.821
REMARK  Name = 
REMARK  5 active torsions:
REMARK  status: ('A' for Active; 'I' for Inactive)
REMARK    1  A    between atoms: C_2  and  C_3
REMARK    2  A    between atoms: C_6  and  C_7
REMARK    3  A    between atoms: C_11  and  C_12
REMARK    4  A    between atoms: C_12  and  N_13
REMARK    5  A    between atoms: C_17  and  C_18
REMARK                            x       y       z     vdW  Elec       q    Type
REMARK                         _______ _______ _______ _____ _____    ______ ____
ROOT
ATOM      1  C   UNL     1      50.298   6.448  17.298  0.00  0.00    +0.000 C 
ATOM      2  C   UNL     1      51.156   6.236  18.535  0.00  0.00    +0.000 C 
ATOM      3  C   UNL     1      50.132   7.311  18.550  0.00  0.00    +0.000 C 
ATOM      4  F   UNL     1      50.580   8.620  18.479  0.00  0.00    +0.000 F 
ENDROOT
BRANCH   1   5
ATOM      5  N   UNL     1      50.820   7.136  16.111  0.00  0.00    +0.000 N 
ATOM      6  C   UNL     1      50.118   7.928  15.209  0.00  0.00    +0.000 A 
ATOM      7  C   UNL     1      48.928   8.586  15.483  0.00  0.00    +0.000 A 
ATOM      8  C   UNL     1      48.333   9.382  14.498  0.00  0.00    +0.000 A 
ATOM      9  C   UNL     1      48.941   9.511  13.251  0.00  0.00    +0.000 A 
ATOM     10  C   UNL     1      50.136   8.839  13.069  0.00  0.00    +0.000 A 
ATOM     11  N   UNL     1      50.724   8.058  14.011  0.00  0.00    +0.000 NA
ATOM     12  H   UNL     1      51.575   6.685  15.597  0.00  0.00    +0.000 HD
BRANCH   9  13
ATOM     13  C   UNL     1      48.294  10.332  12.200  0.00  0.00    +0.000 C 
ATOM     14  N   UNL     1      48.956  11.421  11.706  0.00  0.00    +0.000 N 
ATOM     15  O   UNL     1      47.186  10.040  11.763  0.00  0.00    +0.000 OA
ATOM     16  H   UNL     1      49.877  11.732  11.975  0.00  0.00    +0.000 HD
ATOM     17  H   UNL     1      48.490  11.941  10.973  0.00  0.00    +0.000 HD
ENDBRANCH   9  13
ENDBRANCH   1   5
BRANCH   1  22
ATOM     18  C   UNL     1      47.480   4.509  15.499  0.00  0.00    +0.000 A 
ATOM     19  C   UNL     1      47.187   3.619  16.532  0.00  0.00    +0.000 A 
ATOM     20  N   UNL     1      47.767   3.626  17.754  0.00  0.00    +0.000 NA
ATOM     21  C   UNL     1      48.715   4.564  17.967  0.00  0.00    +0.000 A 
ATOM     22  C   UNL     1      49.164   5.476  17.015  0.00  0.00    +0.000 A 
ATOM     23  C   UNL     1      48.509   5.423  15.774  0.00  0.00    +0.000 A 
BRANCH  18  27
ATOM     24  C   UNL     1      45.311   4.504  11.768  0.00  0.00    +0.000 A 
ATOM     25  C   UNL     1      45.682   3.302  12.367  0.00  0.00    +0.000 A 
ATOM     26  C   UNL     1      46.388   3.307  13.576  0.00  0.00    +0.000 A 
ATOM     27  C   UNL     1      46.754   4.510  14.210  0.00  0.00    +0.000 A 
ATOM     28  C   UNL     1      46.372   5.710  13.577  0.00  0.00    +0.000 A 
ATOM     29  C   UNL     1      45.653   5.709  12.377  0.00  0.00    +0.000 A 
BRANCH  24  31
ATOM     30  N   UNL     1      43.994   4.493   9.536  0.00  0.00    +0.000 NA
ATOM     31  C   UNL     1      44.581   4.499  10.534  0.00  0.00    +0.000 C 
ENDBRANCH  24  31
ENDBRANCH  18  27
ENDBRANCH   1  22
TORSDOF 5
ENDMDL
