MODEL 1
REMARK VINA RESULT:    -8.032      0.000      0.000
REMARK INTER + INTRA:         -11.517
REMARK INTER:                 -10.380
REMARK INTRA:                  -1.137
REMARK UNBOUND:                -1.137
REMARK  Name = 
REMARK  5 active torsions:
REMARK  status: ('A' for Active; 'I' for Inactive)
REMARK    1  A    between atoms: C_2  and  C_4
REMARK    2  A    between atoms: N_8  and  C_9
REMARK    3  A    between atoms: C_9  and  C_10
REMARK    4  A    between atoms: C_13  and  O_14
REMARK    5  A    between atoms: O_14  and  C_15
REMARK                            x       y       z     vdW  Elec       q    Type
REMARK                         _______ _______ _______ _____ _____    ______ ____
ROOT
ATOM      1  C   UNL     1      44.021   5.009  11.526  0.00  0.00    +0.000 C 
ATOM      2  C   UNL     1      42.661   5.089  12.211  0.00  0.00    +0.000 C 
ATOM      3  C   UNL     1      43.007   6.084  11.164  0.00  0.00    +0.000 C 
ENDROOT
BRANCH   1   8
ATOM      4  C   UNL     1      46.448   2.755   7.457  0.00  0.00    +0.000 A 
ATOM      5  C   UNL     1      46.376   4.099   7.814  0.00  0.00    +0.000 A 
ATOM      6  C   UNL     1      45.623   4.472   8.927  0.00  0.00    +0.000 A 
ATOM      7  C   UNL     1      44.976   3.501   9.675  0.00  0.00    +0.000 A 
ATOM      8  N   UNL     1      44.205   3.762  10.798  0.00  0.00    +0.000 N 
ATOM      9  N   UNL     1      45.028   2.195   9.332  0.00  0.00    +0.000 NA
ATOM     10  C   UNL     1      45.740   1.848   8.229  0.00  0.00    +0.000 A 
ATOM     11  H   UNL     1      43.908   2.884  11.212  0.00  0.00    +0.000 HD
BRANCH   4  13
ATOM     12  N   UNL     1      47.181   3.048   5.167  0.00  0.00    +0.000 N 
ATOM     13  C   UNL     1      47.211   2.264   6.291  0.00  0.00    +0.000 C 
ATOM     14  O   UNL     1      47.869   1.234   6.345  0.00  0.00    +0.000 OA
ATOM     15  H   UNL     1      47.802   2.756   4.419  0.00  0.00    +0.000 HD
ATOM     16  H   UNL     1      46.884   4.006   5.178  0.00  0.00    +0.000 HD
ENDBRANCH   4  13
ENDBRANCH   1   8
BRANCH   1  17
ATOM     17  C   UNL     1      45.266   5.549  12.223  0.00  0.00    +0.000 A 
ATOM     18  C   UNL     1      45.902   4.796  13.226  0.00  0.00    +0.000 A 
ATOM     19  C   UNL     1      47.143   5.163  13.754  0.00  0.00    +0.000 A 
ATOM     20  C   UNL     1      47.798   6.281  13.259  0.00  0.00    +0.000 A 
ATOM     21  C   UNL     1      47.134   7.109  12.352  0.00  0.00    +0.000 A 
ATOM     22  C   UNL     1      45.880   6.751  11.844  0.00  0.00    +0.000 A 
BRANCH  20  23
ATOM     23  O   UNL     1      49.050   6.682  13.611  0.00  0.00    +0.000 OA
BRANCH  23  24
ATOM     24  C   UNL     1      49.265   7.166  14.935  0.00  0.00    +0.000 C 
ATOM     25  F   UNL     1      49.420   6.204  15.869  0.00  0.00    +0.000 F 
ATOM     26  F   UNL     1      50.387   7.923  14.940  0.00  0.00    +0.000 F 
ATOM     27  F   UNL     1      48.226   7.951  15.292  0.00  0.00    +0.000 F 
ENDBRANCH  23  24
ENDBRANCH  20  23
ENDBRANCH   1  17
TORSDOF 5
ENDMDL
MODEL 2
REMARK VINA RESULT:    -7.507      4.441      7.395
REMARK INTER + INTRA:         -10.838
REMARK INTER:                  -9.887
REMARK INTRA:                  -0.951
REMARK UNBOUND:                -1.137
REMARK  Name = 
REMARK  5 active torsions:
REMARK  status: ('A' for Active; 'I' for Inactive)
REMARK    1  A    between atoms: C_2  and  C_4
REMARK    2  A    between atoms: N_8  and  C_9
REMARK    3  A    between atoms: C_9  and  C_10
REMARK    4  A    between atoms: C_13  and  O_14
REMARK    5  A    between atoms: O_14  and  C_15
REMARK                            x       y       z     vdW  Elec       q    Type
REMARK                         _______ _______ _______ _____ _____    ______ ____
ROOT
ATOM      1  C   UNL     1      44.170   5.029  11.464  0.00  0.00    +0.000 C 
ATOM      2  C   UNL     1      42.651   5.038  11.598  0.00  0.00    +0.000 C 
ATOM      3  C   UNL     1      43.438   4.011  12.327  0.00  0.00    +0.000 C 
ENDROOT
BRANCH   1   8
ATOM      4  C   UNL     1      48.171   6.993  14.232  0.00  0.00    +0.000 A 
ATOM      5  C   UNL     1      47.780   5.668  14.055  0.00  0.00    +0.000 A 
ATOM      6  C   UNL     1      46.640   5.386  13.304  0.00  0.00    +0.000 A 
ATOM      7  C   UNL     1      45.924   6.423  12.726  0.00  0.00    +0.000 A 
ATOM      8  N   UNL     1      44.780   6.254  11.960  0.00  0.00    +0.000 N 
ATOM      9  N   UNL     1      46.285   7.713  12.901  0.00  0.00    +0.000 NA
ATOM     10  C   UNL     1      47.381   7.976  13.659  0.00  0.00    +0.000 A 
ATOM     11  H   UNL     1      44.490   7.152  11.587  0.00  0.00    +0.000 HD
BRANCH   4  13
ATOM     12  N   UNL     1      50.547   7.451  14.342  0.00  0.00    +0.000 N 
ATOM     13  C   UNL     1      49.356   7.392  15.019  0.00  0.00    +0.000 C 
ATOM     14  O   UNL     1      49.267   7.696  16.200  0.00  0.00    +0.000 OA
ATOM     15  H   UNL     1      51.325   7.838  14.867  0.00  0.00    +0.000 HD
ATOM     16  H   UNL     1      50.605   7.473  13.342  0.00  0.00    +0.000 HD
ENDBRANCH   4  13
ENDBRANCH   1   8
BRANCH   1  17
ATOM     17  C   UNL     1      44.829   4.424  10.228  0.00  0.00    +0.000 A 
ATOM     18  C   UNL     1      44.584   3.085   9.875  0.00  0.00    +0.000 A 
ATOM     19  C   UNL     1      45.012   2.550   8.657  0.00  0.00    +0.000 A 
ATOM     20  C   UNL     1      45.668   3.360   7.741  0.00  0.00    +0.000 A 
ATOM     21  C   UNL     1      46.027   4.655   8.117  0.00  0.00    +0.000 A 
ATOM     22  C   UNL     1      45.618   5.179   9.349  0.00  0.00    +0.000 A 
BRANCH  20  23
ATOM     23  O   UNL     1      46.040   2.990   6.485  0.00  0.00    +0.000 OA
BRANCH  23  24
ATOM     24  C   UNL     1      47.228   2.219   6.323  0.00  0.00    +0.000 C 
ATOM     25  F   UNL     1      48.197   2.480   7.226  0.00  0.00    +0.000 F 
ATOM     26  F   UNL     1      46.910   0.909   6.433  0.00  0.00    +0.000 F 
ATOM     27  F   UNL     1      47.724   2.430   5.085  0.00  0.00    +0.000 F 
ENDBRANCH  23  24
ENDBRANCH  20  23
ENDBRANCH   1  17
TORSDOF 5
ENDMDL
MODEL 3
REMARK VINA RESULT:    -6.899      4.420      7.304
REMARK INTER + INTRA:         -10.053
REMARK INTER:                  -9.494
REMARK INTRA:                  -0.559
REMARK UNBOUND:                -1.137
REMARK  Name = 
REMARK  5 active torsions:
REMARK  status: ('A' for Active; 'I' for Inactive)
REMARK    1  A    between atoms: C_2  and  C_4
REMARK    2  A    between atoms: N_8  and  C_9
REMARK    3  A    between atoms: C_9  and  C_10
REMARK    4  A    between atoms: C_13  and  O_14
REMARK    5  A    between atoms: O_14  and  C_15
REMARK                            x       y       z     vdW  Elec       q    Type
REMARK                         _______ _______ _______ _____ _____    ______ ____
ROOT
ATOM      1  C   UNL     1      44.652   4.488  11.631  0.00  0.00    +0.000 C 
ATOM      2  C   UNL     1      43.738   3.713  12.574  0.00  0.00    +0.000 C 
ATOM      3  C   UNL     1      45.211   3.590  12.724  0.00  0.00    +0.000 C 
ENDROOT
BRANCH   1   8
ATOM      4  C   UNL     1      47.158   9.064  12.191  0.00  0.00    +0.000 A 
ATOM      5  C   UNL     1      47.655   7.766  12.262  0.00  0.00    +0.000 A 
ATOM      6  C   UNL     1      46.780   6.688  12.126  0.00  0.00    +0.000 A 
ATOM      7  C   UNL     1      45.432   6.924  11.899  0.00  0.00    +0.000 A 
ATOM      8  N   UNL     1      44.477   5.929  11.747  0.00  0.00    +0.000 N 
ATOM      9  N   UNL     1      44.935   8.180  11.840  0.00  0.00    +0.000 NA
ATOM     10  C   UNL     1      45.794   9.219  12.004  0.00  0.00    +0.000 A 
ATOM     11  H   UNL     1      43.586   6.353  11.513  0.00  0.00    +0.000 HD
BRANCH   4  13
ATOM     12  N   UNL     1      48.008  11.141  11.278  0.00  0.00    +0.000 N 
ATOM     13  C   UNL     1      48.004  10.266  12.334  0.00  0.00    +0.000 C 
ATOM     14  O   UNL     1      48.632  10.488  13.360  0.00  0.00    +0.000 OA
ATOM     15  H   UNL     1      48.499  12.014  11.440  0.00  0.00    +0.000 HD
ATOM     16  H   UNL     1      47.312  11.126  10.556  0.00  0.00    +0.000 HD
ENDBRANCH   4  13
ENDBRANCH   1   8
BRANCH   1  17
ATOM     17  C   UNL     1      44.914   3.973  10.219  0.00  0.00    +0.000 A 
ATOM     18  C   UNL     1      45.401   4.841   9.225  0.00  0.00    +0.000 A 
ATOM     19  C   UNL     1      45.833   4.375   7.980  0.00  0.00    +0.000 A 
ATOM     20  C   UNL     1      45.822   3.014   7.713  0.00  0.00    +0.000 A 
ATOM     21  C   UNL     1      45.233   2.148   8.636  0.00  0.00    +0.000 A 
ATOM     22  C   UNL     1      44.779   2.622   9.872  0.00  0.00    +0.000 A 
BRANCH  20  23
ATOM     23  O   UNL     1      46.310   2.427   6.587  0.00  0.00    +0.000 OA
BRANCH  23  24
ATOM     24  C   UNL     1      47.695   2.092   6.537  0.00  0.00    +0.000 C 
ATOM     25  F   UNL     1      48.177   1.870   5.296  0.00  0.00    +0.000 F 
ATOM     26  F   UNL     1      48.405   3.111   7.074  0.00  0.00    +0.000 F 
ATOM     27  F   UNL     1      47.909   0.990   7.288  0.00  0.00    +0.000 F 
ENDBRANCH  23  24
ENDBRANCH  20  23
ENDBRANCH   1  17
TORSDOF 5
ENDMDL
MODEL 4
REMARK VINA RESULT:    -6.781      4.405      7.014
REMARK INTER + INTRA:          -9.900
REMARK INTER:                  -9.546
REMARK INTRA:                  -0.355
REMARK UNBOUND:                -1.137
REMARK  Name = 
REMARK  5 active torsions:
REMARK  status: ('A' for Active; 'I' for Inactive)
REMARK    1  A    between atoms: C_2  and  C_4
REMARK    2  A    between atoms: N_8  and  C_9
REMARK    3  A    between atoms: C_9  and  C_10
REMARK    4  A    between atoms: C_13  and  O_14
REMARK    5  A    between atoms: O_14  and  C_15
REMARK                            x       y       z     vdW  Elec       q    Type
REMARK                         _______ _______ _______ _____ _____    ______ ____
ROOT
ATOM      1  C   UNL     1      44.687   4.449  12.060  0.00  0.00    +0.000 C 
ATOM      2  C   UNL     1      43.627   5.500  12.370  0.00  0.00    +0.000 C 
ATOM      3  C   UNL     1      43.353   4.075  12.687  0.00  0.00    +0.000 C 
ENDROOT
BRANCH   1   8
ATOM      4  C   UNL     1      48.839   7.611  12.603  0.00  0.00    +0.000 A 
ATOM      5  C   UNL     1      47.842   7.615  11.632  0.00  0.00    +0.000 A 
ATOM      6  C   UNL     1      46.851   6.634  11.664  0.00  0.00    +0.000 A 
ATOM      7  C   UNL     1      46.858   5.684  12.674  0.00  0.00    +0.000 A 
ATOM      8  N   UNL     1      45.921   4.669  12.800  0.00  0.00    +0.000 N 
ATOM      9  N   UNL     1      47.827   5.662  13.615  0.00  0.00    +0.000 NA
ATOM     10  C   UNL     1      48.803   6.605  13.555  0.00  0.00    +0.000 A 
ATOM     11  H   UNL     1      46.095   4.158  13.659  0.00  0.00    +0.000 HD
BRANCH   4  13
ATOM     12  N   UNL     1      50.779   8.533  13.725  0.00  0.00    +0.000 N 
ATOM     13  C   UNL     1      49.936   8.601  12.646  0.00  0.00    +0.000 C 
ATOM     14  O   UNL     1      50.105   9.407  11.742  0.00  0.00    +0.000 OA
ATOM     15  H   UNL     1      51.591   9.140  13.679  0.00  0.00    +0.000 HD
ATOM     16  H   UNL     1      50.830   7.733  14.327  0.00  0.00    +0.000 HD
ENDBRANCH   4  13
ENDBRANCH   1   8
BRANCH   1  17
ATOM     17  C   UNL     1      44.863   3.931  10.636  0.00  0.00    +0.000 A 
ATOM     18  C   UNL     1      45.193   4.814   9.593  0.00  0.00    +0.000 A 
ATOM     19  C   UNL     1      45.547   4.360   8.320  0.00  0.00    +0.000 A 
ATOM     20  C   UNL     1      45.616   2.997   8.070  0.00  0.00    +0.000 A 
ATOM     21  C   UNL     1      45.178   2.106   9.051  0.00  0.00    +0.000 A 
ATOM     22  C   UNL     1      44.800   2.567  10.317  0.00  0.00    +0.000 A 
BRANCH  20  23
ATOM     23  O   UNL     1      46.047   2.428   6.911  0.00  0.00    +0.000 OA
BRANCH  23  24
ATOM     24  C   UNL     1      47.429   2.105   6.781  0.00  0.00    +0.000 C 
ATOM     25  F   UNL     1      47.828   1.033   7.496  0.00  0.00    +0.000 F 
ATOM     26  F   UNL     1      47.690   1.847   5.478  0.00  0.00    +0.000 F 
ATOM     27  F   UNL     1      48.168   3.173   7.154  0.00  0.00    +0.000 F 
ENDBRANCH  23  24
ENDBRANCH  20  23
ENDBRANCH   1  17
TORSDOF 5
ENDMDL
MODEL 5
REMARK VINA RESULT:    -5.985      5.793      8.518
REMARK INTER + INTRA:          -8.871
REMARK INTER:                  -7.773
REMARK INTRA:                  -1.098
REMARK UNBOUND:                -1.137
REMARK  Name = 
REMARK  5 active torsions:
REMARK  status: ('A' for Active; 'I' for Inactive)
REMARK    1  A    between atoms: C_2  and  C_4
REMARK    2  A    between atoms: N_8  and  C_9
REMARK    3  A    between atoms: C_9  and  C_10
REMARK    4  A    between atoms: C_13  and  O_14
REMARK    5  A    between atoms: O_14  and  C_15
REMARK                            x       y       z     vdW  Elec       q    Type
REMARK                         _______ _______ _______ _____ _____    ______ ____
ROOT
ATOM      1  C   UNL     1      48.560   5.474  17.586  0.00  0.00    +0.000 C 
ATOM      2  C   UNL     1      47.946   6.519  18.510  0.00  0.00    +0.000 C 
ATOM      3  C   UNL     1      47.375   5.148  18.482  0.00  0.00    +0.000 C 
ENDROOT
BRANCH   1   8
ATOM      4  C   UNL     1      52.266   1.760  17.645  0.00  0.00    +0.000 A 
ATOM      5  C   UNL     1      50.903   1.649  17.386  0.00  0.00    +0.000 A 
ATOM      6  C   UNL     1      50.094   2.782  17.475  0.00  0.00    +0.000 A 
ATOM      7  C   UNL     1      50.661   4.006  17.798  0.00  0.00    +0.000 A 
ATOM      8  N   UNL     1      49.951   5.192  17.911  0.00  0.00    +0.000 N 
ATOM      9  N   UNL     1      51.981   4.124  18.064  0.00  0.00    +0.000 NA
ATOM     10  C   UNL     1      52.751   3.008  18.003  0.00  0.00    +0.000 A 
ATOM     11  H   UNL     1      50.599   5.956  18.076  0.00  0.00    +0.000 HD
BRANCH   4  13
ATOM     12  N   UNL     1      52.986  -0.394  18.487  0.00  0.00    +0.000 N 
ATOM     13  C   UNL     1      53.200   0.617  17.587  0.00  0.00    +0.000 C 
ATOM     14  O   UNL     1      54.088   0.559  16.747  0.00  0.00    +0.000 OA
ATOM     15  H   UNL     1      53.561  -1.220  18.356  0.00  0.00    +0.000 HD
ATOM     16  H   UNL     1      52.126  -0.501  18.993  0.00  0.00    +0.000 HD
ENDBRANCH   4  13
ENDBRANCH   1   8
BRANCH   1  17
ATOM     17  C   UNL     1      48.224   5.470  16.097  0.00  0.00    +0.000 A 
ATOM     18  C   UNL     1      47.398   4.468  15.558  0.00  0.00    +0.000 A 
ATOM     19  C   UNL     1      46.913   4.531  14.249  0.00  0.00    +0.000 A 
ATOM     20  C   UNL     1      47.215   5.629  13.455  0.00  0.00    +0.000 A 
ATOM     21  C   UNL     1      48.127   6.574  13.926  0.00  0.00    +0.000 A 
ATOM     22  C   UNL     1      48.630   6.493  15.230  0.00  0.00    +0.000 A 
BRANCH  20  23
ATOM     23  O   UNL     1      46.721   5.860  12.209  0.00  0.00    +0.000 OA
BRANCH  23  24
ATOM     24  C   UNL     1      45.330   6.136  12.065  0.00  0.00    +0.000 C 
ATOM     25  F   UNL     1      44.553   5.047  11.894  0.00  0.00    +0.000 F 
ATOM     26  F   UNL     1      44.900   6.774  13.178  0.00  0.00    +0.000 F 
ATOM     27  F   UNL     1      45.152   6.963  11.011  0.00  0.00    +0.000 F 
ENDBRANCH  23  24
ENDBRANCH  20  23
ENDBRANCH   1  17
TORSDOF 5
ENDMDL
MODEL 6
REMARK VINA RESULT:    -5.863      5.112      7.596
REMARK INTER + INTRA:          -8.714
REMARK INTER:                  -8.377
REMARK INTRA:                  -0.337
REMARK UNBOUND:                -1.137
REMARK  Name = 
REMARK  5 active torsions:
REMARK  status: ('A' for Active; 'I' for Inactive)
REMARK    1  A    between atoms: C_2  and  C_4
REMARK    2  A    between atoms: N_8  and  C_9
REMARK    3  A    between atoms: C_9  and  C_10
REMARK    4  A    between atoms: C_13  and  O_14
REMARK    5  A    between atoms: O_14  and  C_15
REMARK                            x       y       z     vdW  Elec       q    Type
REMARK                         _______ _______ _______ _____ _____    ______ ____
ROOT
ATOM      1  C   UNL     1      48.894   8.077  12.828  0.00  0.00    +0.000 C 
ATOM      2  C   UNL     1      50.123   7.725  11.998  0.00  0.00    +0.000 C 
ATOM      3  C   UNL     1      49.682   9.141  12.078  0.00  0.00    +0.000 C 
ENDROOT
BRANCH   1   8
ATOM      4  C   UNL     1      47.780   4.580  16.578  0.00  0.00    +0.000 A 
ATOM      5  C   UNL     1      47.308   4.659  15.270  0.00  0.00    +0.000 A 
ATOM      6  C   UNL     1      47.714   5.719  14.459  0.00  0.00    +0.000 A 
ATOM      7  C   UNL     1      48.597   6.666  14.957  0.00  0.00    +0.000 A 
ATOM      8  N   UNL     1      49.064   7.755  14.238  0.00  0.00    +0.000 N 
ATOM      9  N   UNL     1      49.051   6.607  16.229  0.00  0.00    +0.000 NA
ATOM     10  C   UNL     1      48.625   5.586  17.017  0.00  0.00    +0.000 A 
ATOM     11  H   UNL     1      49.755   8.251  14.791  0.00  0.00    +0.000 HD
BRANCH   4  13
ATOM     12  N   UNL     1      48.259   3.265  18.556  0.00  0.00    +0.000 N 
ATOM     13  C   UNL     1      47.399   3.503  17.515  0.00  0.00    +0.000 C 
ATOM     14  O   UNL     1      46.348   2.888  17.390  0.00  0.00    +0.000 OA
ATOM     15  H   UNL     1      47.925   2.606  19.251  0.00  0.00    +0.000 HD
ATOM     16  H   UNL     1      48.970   3.915  18.834  0.00  0.00    +0.000 HD
ENDBRANCH   4  13
ENDBRANCH   1   8
BRANCH   1  17
ATOM     17  C   UNL     1      47.494   7.841  12.268  0.00  0.00    +0.000 A 
ATOM     18  C   UNL     1      47.244   6.749  11.418  0.00  0.00    +0.000 A 
ATOM     19  C   UNL     1      45.948   6.388  11.037  0.00  0.00    +0.000 A 
ATOM     20  C   UNL     1      44.862   7.095  11.533  0.00  0.00    +0.000 A 
ATOM     21  C   UNL     1      45.092   8.252  12.279  0.00  0.00    +0.000 A 
ATOM     22  C   UNL     1      46.393   8.624  12.638  0.00  0.00    +0.000 A 
BRANCH  20  23
ATOM     23  O   UNL     1      43.555   6.781  11.325  0.00  0.00    +0.000 OA
BRANCH  23  24
ATOM     24  C   UNL     1      43.122   5.447  11.583  0.00  0.00    +0.000 C 
ATOM     25  F   UNL     1      43.760   4.835  12.602  0.00  0.00    +0.000 F 
ATOM     26  F   UNL     1      41.803   5.473  11.882  0.00  0.00    +0.000 F 
ATOM     27  F   UNL     1      43.285   4.708  10.464  0.00  0.00    +0.000 F 
ENDBRANCH  23  24
ENDBRANCH  20  23
ENDBRANCH   1  17
TORSDOF 5
ENDMDL
MODEL 7
REMARK VINA RESULT:    -5.719      5.267      8.602
REMARK INTER + INTRA:          -8.527
REMARK INTER:                  -7.667
REMARK INTRA:                  -0.860
REMARK UNBOUND:                -1.137
REMARK  Name = 
REMARK  5 active torsions:
REMARK  status: ('A' for Active; 'I' for Inactive)
REMARK    1  A    between atoms: C_2  and  C_4
REMARK    2  A    between atoms: N_8  and  C_9
REMARK    3  A    between atoms: C_9  and  C_10
REMARK    4  A    between atoms: C_13  and  O_14
REMARK    5  A    between atoms: O_14  and  C_15
REMARK                            x       y       z     vdW  Elec       q    Type
REMARK                         _______ _______ _______ _____ _____    ______ ____
ROOT
ATOM      1  C   UNL     1      48.246   7.436  13.899  0.00  0.00    +0.000 C 
ATOM      2  C   UNL     1      48.730   8.500  12.921  0.00  0.00    +0.000 C 
ATOM      3  C   UNL     1      47.743   8.870  13.967  0.00  0.00    +0.000 C 
ENDROOT
BRANCH   1   8
ATOM      4  C   UNL     1      49.463   5.399  18.578  0.00  0.00    +0.000 A 
ATOM      5  C   UNL     1      48.277   5.986  18.148  0.00  0.00    +0.000 A 
ATOM      6  C   UNL     1      48.200   6.507  16.856  0.00  0.00    +0.000 A 
ATOM      7  C   UNL     1      49.296   6.413  16.012  0.00  0.00    +0.000 A 
ATOM      8  N   UNL     1      49.326   6.895  14.712  0.00  0.00    +0.000 N 
ATOM      9  N   UNL     1      50.457   5.857  16.422  0.00  0.00    +0.000 NA
ATOM     10  C   UNL     1      50.528   5.380  17.692  0.00  0.00    +0.000 A 
ATOM     11  H   UNL     1      50.206   6.635  14.279  0.00  0.00    +0.000 HD
BRANCH   4  13
ATOM     12  N   UNL     1      48.674   3.965  20.365  0.00  0.00    +0.000 N 
ATOM     13  C   UNL     1      49.645   4.830  19.930  0.00  0.00    +0.000 C 
ATOM     14  O   UNL     1      50.633   5.086  20.604  0.00  0.00    +0.000 OA
ATOM     15  H   UNL     1      48.874   3.496  21.242  0.00  0.00    +0.000 HD
ATOM     16  H   UNL     1      48.011   3.534  19.747  0.00  0.00    +0.000 HD
ENDBRANCH   4  13
ENDBRANCH   1   8
BRANCH   1  17
ATOM     17  C   UNL     1      47.179   6.431  13.476  0.00  0.00    +0.000 A 
ATOM     18  C   UNL     1      47.424   5.050  13.576  0.00  0.00    +0.000 A 
ATOM     19  C   UNL     1      46.416   4.101  13.381  0.00  0.00    +0.000 A 
ATOM     20  C   UNL     1      45.120   4.519  13.116  0.00  0.00    +0.000 A 
ATOM     21  C   UNL     1      44.878   5.876  12.894  0.00  0.00    +0.000 A 
ATOM     22  C   UNL     1      45.897   6.820  13.066  0.00  0.00    +0.000 A 
BRANCH  20  23
ATOM     23  O   UNL     1      44.035   3.705  13.011  0.00  0.00    +0.000 OA
BRANCH  23  24
ATOM     24  C   UNL     1      43.562   3.361  11.711  0.00  0.00    +0.000 C 
ATOM     25  F   UNL     1      42.652   4.214  11.197  0.00  0.00    +0.000 F 
ATOM     26  F   UNL     1      44.616   3.329  10.863  0.00  0.00    +0.000 F 
ATOM     27  F   UNL     1      43.019   2.125  11.753  0.00  0.00    +0.000 F 
ENDBRANCH  23  24
ENDBRANCH  20  23
ENDBRANCH   1  17
TORSDOF 5
ENDMDL
MODEL 8
REMARK VINA RESULT:    -5.548      4.154      5.808
REMARK INTER + INTRA:          -8.307
REMARK INTER:                  -7.071
REMARK INTRA:                  -1.235
REMARK UNBOUND:                -1.137
REMARK  Name = 
REMARK  5 active torsions:
REMARK  status: ('A' for Active; 'I' for Inactive)
REMARK    1  A    between atoms: C_2  and  C_4
REMARK    2  A    between atoms: N_8  and  C_9
REMARK    3  A    between atoms: C_9  and  C_10
REMARK    4  A    between atoms: C_13  and  O_14
REMARK    5  A    between atoms: O_14  and  C_15
REMARK                            x       y       z     vdW  Elec       q    Type
REMARK                         _______ _______ _______ _____ _____    ______ ____
ROOT
ATOM      1  C   UNL     1      48.981   8.245  12.498  0.00  0.00    +0.000 C 
ATOM      2  C   UNL     1      49.765   9.203  11.608  0.00  0.00    +0.000 C 
ATOM      3  C   UNL     1      50.220   7.795  11.738  0.00  0.00    +0.000 C 
ENDROOT
BRANCH   1   8
ATOM      4  C   UNL     1      44.799   5.085  12.727  0.00  0.00    +0.000 A 
ATOM      5  C   UNL     1      46.091   4.882  13.203  0.00  0.00    +0.000 A 
ATOM      6  C   UNL     1      47.063   5.858  12.983  0.00  0.00    +0.000 A 
ATOM      7  C   UNL     1      46.725   7.024  12.312  0.00  0.00    +0.000 A 
ATOM      8  N   UNL     1      47.611   8.056  12.041  0.00  0.00    +0.000 N 
ATOM      9  N   UNL     1      45.478   7.227  11.833  0.00  0.00    +0.000 NA
ATOM     10  C   UNL     1      44.548   6.256  12.030  0.00  0.00    +0.000 A 
ATOM     11  H   UNL     1      47.108   8.827  11.615  0.00  0.00    +0.000 HD
BRANCH   4  13
ATOM     12  N   UNL     1      44.002   2.800  12.611  0.00  0.00    +0.000 N 
ATOM     13  C   UNL     1      43.706   4.107  12.902  0.00  0.00    +0.000 C 
ATOM     14  O   UNL     1      42.609   4.443  13.328  0.00  0.00    +0.000 OA
ATOM     15  H   UNL     1      43.278   2.129  12.847  0.00  0.00    +0.000 HD
ATOM     16  H   UNL     1      44.941   2.461  12.524  0.00  0.00    +0.000 HD
ENDBRANCH   4  13
ENDBRANCH   1   8
BRANCH   1  17
ATOM     17  C   UNL     1      49.167   8.276  14.012  0.00  0.00    +0.000 A 
ATOM     18  C   UNL     1      48.371   9.117  14.809  0.00  0.00    +0.000 A 
ATOM     19  C   UNL     1      48.376   9.039  16.204  0.00  0.00    +0.000 A 
ATOM     20  C   UNL     1      49.157   8.083  16.838  0.00  0.00    +0.000 A 
ATOM     21  C   UNL     1      50.043   7.319  16.076  0.00  0.00    +0.000 A 
ATOM     22  C   UNL     1      50.052   7.419  14.680  0.00  0.00    +0.000 A 
BRANCH  20  23
ATOM     23  O   UNL     1      49.170   7.835  18.175  0.00  0.00    +0.000 OA
BRANCH  23  24
ATOM     24  C   UNL     1      48.144   7.015  18.729  0.00  0.00    +0.000 C 
ATOM     25  F   UNL     1      47.760   5.985  17.947  0.00  0.00    +0.000 F 
ATOM     26  F   UNL     1      48.590   6.497  19.897  0.00  0.00    +0.000 F 
ATOM     27  F   UNL     1      47.064   7.781  18.996  0.00  0.00    +0.000 F 
ENDBRANCH  23  24
ENDBRANCH  20  23
ENDBRANCH   1  17
TORSDOF 5
ENDMDL
MODEL 9
REMARK VINA RESULT:    -5.533      4.975      6.866
REMARK INTER + INTRA:          -8.287
REMARK INTER:                  -7.978
REMARK INTRA:                  -0.309
REMARK UNBOUND:                -1.137
REMARK  Name = 
REMARK  5 active torsions:
REMARK  status: ('A' for Active; 'I' for Inactive)
REMARK    1  A    between atoms: C_2  and  C_4
REMARK    2  A    between atoms: N_8  and  C_9
REMARK    3  A    between atoms: C_9  and  C_10
REMARK    4  A    between atoms: C_13  and  O_14
REMARK    5  A    between atoms: O_14  and  C_15
REMARK                            x       y       z     vdW  Elec       q    Type
REMARK                         _______ _______ _______ _____ _____    ______ ____
ROOT
ATOM      1  C   UNL     1      48.235   4.155  16.680  0.00  0.00    +0.000 C 
ATOM      2  C   UNL     1      47.354   4.652  17.821  0.00  0.00    +0.000 C 
ATOM      3  C   UNL     1      48.163   5.629  17.049  0.00  0.00    +0.000 C 
ENDROOT
BRANCH   1   8
ATOM      4  C   UNL     1      45.710   5.001  12.160  0.00  0.00    +0.000 A 
ATOM      5  C   UNL     1      46.256   5.916  13.055  0.00  0.00    +0.000 A 
ATOM      6  C   UNL     1      46.846   5.454  14.231  0.00  0.00    +0.000 A 
ATOM      7  C   UNL     1      46.902   4.091  14.482  0.00  0.00    +0.000 A 
ATOM      8  N   UNL     1      47.466   3.526  15.616  0.00  0.00    +0.000 N 
ATOM      9  N   UNL     1      46.364   3.194  13.627  0.00  0.00    +0.000 NA
ATOM     10  C   UNL     1      45.766   3.659  12.499  0.00  0.00    +0.000 A 
ATOM     11  H   UNL     1      47.455   2.515  15.528  0.00  0.00    +0.000 HD
BRANCH   4  13
ATOM     12  N   UNL     1      45.879   5.821   9.886  0.00  0.00    +0.000 N 
ATOM     13  C   UNL     1      45.054   5.394  10.895  0.00  0.00    +0.000 C 
ATOM     14  O   UNL     1      43.844   5.298  10.745  0.00  0.00    +0.000 OA
ATOM     15  H   UNL     1      45.425   5.974   8.991  0.00  0.00    +0.000 HD
ATOM     16  H   UNL     1      46.868   5.656   9.884  0.00  0.00    +0.000 HD
ENDBRANCH   4  13
ENDBRANCH   1   8
BRANCH   1  17
ATOM     17  C   UNL     1      49.588   3.514  16.976  0.00  0.00    +0.000 A 
ATOM     18  C   UNL     1      50.639   4.284  17.505  0.00  0.00    +0.000 A 
ATOM     19  C   UNL     1      51.824   3.705  17.965  0.00  0.00    +0.000 A 
ATOM     20  C   UNL     1      51.971   2.325  17.942  0.00  0.00    +0.000 A 
ATOM     21  C   UNL     1      50.994   1.551  17.313  0.00  0.00    +0.000 A 
ATOM     22  C   UNL     1      49.819   2.139  16.831  0.00  0.00    +0.000 A 
BRANCH  20  23
ATOM     23  O   UNL     1      53.025   1.635  18.454  0.00  0.00    +0.000 OA
BRANCH  23  24
ATOM     24  C   UNL     1      54.178   1.443  17.638  0.00  0.00    +0.000 C 
ATOM     25  F   UNL     1      54.602   2.548  16.991  0.00  0.00    +0.000 F 
ATOM     26  F   UNL     1      55.194   1.014  18.423  0.00  0.00    +0.000 F 
ATOM     27  F   UNL     1      53.917   0.482  16.726  0.00  0.00    +0.000 F 
ENDBRANCH  23  24
ENDBRANCH  20  23
ENDBRANCH   1  17
TORSDOF 5
ENDMDL
