MODEL 1
REMARK VINA RESULT:    -8.276      0.000      0.000
REMARK INTER + INTRA:         -12.347
REMARK INTER:                 -11.179
REMARK INTRA:                  -1.168
REMARK UNBOUND:                -1.168
REMARK  Name = 
REMARK  6 active torsions:
REMARK  status: ('A' for Active; 'I' for Inactive)
REMARK    1  A    between atoms: C_2  and  C_26
REMARK    2  A    between atoms: N_3  and  C_4
REMARK    3  A    between atoms: C_4  and  C_5
REMARK    4  A    between atoms: C_8  and  C_9
REMARK    5  A    between atoms: C_9  and  N_10
REMARK    6  A    between atoms: C_11  and  C_13
REMARK                            x       y       z     vdW  Elec       q    Type
REMARK                         _______ _______ _______ _____ _____    ______ ____
ROOT
ATOM      1  C   UNL     1      44.703   5.727  10.851  0.00  0.00    +0.000 A 
ATOM      2  C   UNL     1      44.149   6.265  12.020  0.00  0.00    +0.000 A 
ATOM      3  C   UNL     1      44.918   7.058  12.878  0.00  0.00    +0.000 A 
ATOM      4  C   UNL     1      46.263   7.325  12.588  0.00  0.00    +0.000 A 
ATOM      5  C   UNL     1      46.801   6.807  11.408  0.00  0.00    +0.000 A 
ATOM      6  F   UNL     1      48.078   7.059  11.087  0.00  0.00    +0.000 F 
ATOM      7  C   UNL     1      46.040   6.018  10.545  0.00  0.00    +0.000 A 
ENDROOT
BRANCH   1   8
ATOM      8  C   UNL     1      43.882   4.850   9.947  0.00  0.00    +0.000 C 
BRANCH   8  11
ATOM      9  O   UNL     1      45.212   2.456  10.185  0.00  0.00    +0.000 OA
ATOM     10  C   UNL     1      45.292   3.039   9.109  0.00  0.00    +0.000 C 
ATOM     11  N   UNL     1      44.662   4.250   8.895  0.00  0.00    +0.000 N 
ATOM     12  H   UNL     1      44.712   4.668   7.976  0.00  0.00    +0.000 HD
BRANCH  10  13
ATOM     13  C   UNL     1      46.037   2.519   7.982  0.00  0.00    +0.000 A 
ATOM     14  C   UNL     1      46.401   3.131   6.796  0.00  0.00    +0.000 A 
ATOM     15  C   UNL     1      47.102   2.167   6.035  0.00  0.00    +0.000 A 
ATOM     16  C   UNL     1      47.124   1.025   6.798  0.00  0.00    +0.000 A 
ATOM     17  O   UNL     1      46.491   1.226   7.985  0.00  0.00    +0.000 OA
ENDBRANCH  10  13
ENDBRANCH   8  11
ENDBRANCH   1   8
BRANCH   4  18
ATOM     18  C   UNL     1      47.088   8.189  13.500  0.00  0.00    +0.000 C 
BRANCH  18  19
ATOM     19  N   UNL     1      47.528   7.453  14.659  0.00  0.00    +0.000 N 
ATOM     20  C   UNL     1      48.767   6.870  14.709  0.00  0.00    +0.000 C 
ATOM     21  O   UNL     1      49.568   6.957  13.782  0.00  0.00    +0.000 OA
ATOM     22  H   UNL     1      46.827   7.199  15.346  0.00  0.00    +0.000 HD
BRANCH  20  23
ATOM     23  C   UNL     1      49.113   6.182  15.959  0.00  0.00    +0.000 A 
ATOM     24  C   UNL     1      50.193   6.622  16.712  0.00  0.00    +0.000 A 
ATOM     25  S   UNL     1      50.417   5.751  18.162  0.00  0.00    +0.000 S 
ATOM     26  C   UNL     1      49.110   4.721  17.809  0.00  0.00    +0.000 A 
ATOM     27  N   UNL     1      48.763   3.715  18.655  0.00  0.00    +0.000 NA
ATOM     28  C   UNL     1      47.777   2.990  18.246  0.00  0.00    +0.000 A 
ATOM     29  N   UNL     1      47.101   3.182  17.069  0.00  0.00    +0.000 N 
ATOM     30  C   UNL     1      47.393   4.206  16.199  0.00  0.00    +0.000 A 
ATOM     31  O   UNL     1      46.736   4.379  15.178  0.00  0.00    +0.000 OA
ATOM     32  C   UNL     1      48.504   5.045  16.607  0.00  0.00    +0.000 A 
ATOM     33  H   UNL     1      46.332   2.582  16.810  0.00  0.00    +0.000 HD
ENDBRANCH  20  23
ENDBRANCH  18  19
ENDBRANCH   4  18
TORSDOF 6
ENDMDL
MODEL 2
REMARK VINA RESULT:    -7.885      1.809      2.011
REMARK INTER + INTRA:         -11.820
REMARK INTER:                 -10.920
REMARK INTRA:                  -0.899
REMARK UNBOUND:                -1.168
REMARK  Name = 
REMARK  6 active torsions:
REMARK  status: ('A' for Active; 'I' for Inactive)
REMARK    1  A    between atoms: C_2  and  C_26
REMARK    2  A    between atoms: N_3  and  C_4
REMARK    3  A    between atoms: C_4  and  C_5
REMARK    4  A    between atoms: C_8  and  C_9
REMARK    5  A    between atoms: C_9  and  N_10
REMARK    6  A    between atoms: C_11  and  C_13
REMARK                            x       y       z     vdW  Elec       q    Type
REMARK                         _______ _______ _______ _____ _____    ______ ____
ROOT
ATOM      1  C   UNL     1      45.320   4.566  12.091  0.00  0.00    +0.000 A 
ATOM      2  C   UNL     1      46.269   4.265  13.078  0.00  0.00    +0.000 A 
ATOM      3  C   UNL     1      47.082   5.267  13.618  0.00  0.00    +0.000 A 
ATOM      4  C   UNL     1      46.968   6.593  13.177  0.00  0.00    +0.000 A 
ATOM      5  C   UNL     1      46.003   6.889  12.212  0.00  0.00    +0.000 A 
ATOM      6  F   UNL     1      45.852   8.150  11.782  0.00  0.00    +0.000 F 
ATOM      7  C   UNL     1      45.186   5.897  11.672  0.00  0.00    +0.000 A 
ENDROOT
BRANCH   1   8
ATOM      8  C   UNL     1      44.469   3.482  11.491  0.00  0.00    +0.000 C 
BRANCH   8  11
ATOM      9  O   UNL     1      44.547   3.987   8.790  0.00  0.00    +0.000 OA
ATOM     10  C   UNL     1      45.170   3.012   9.197  0.00  0.00    +0.000 C 
ATOM     11  N   UNL     1      45.187   2.675  10.537  0.00  0.00    +0.000 N 
ATOM     12  H   UNL     1      45.758   1.895  10.834  0.00  0.00    +0.000 HD
BRANCH  10  13
ATOM     13  C   UNL     1      45.935   2.145   8.328  0.00  0.00    +0.000 A 
ATOM     14  C   UNL     1      46.766   2.456   7.266  0.00  0.00    +0.000 A 
ATOM     15  C   UNL     1      47.249   1.231   6.751  0.00  0.00    +0.000 A 
ATOM     16  C   UNL     1      46.685   0.245   7.524  0.00  0.00    +0.000 A 
ATOM     17  O   UNL     1      45.894   0.784   8.490  0.00  0.00    +0.000 OA
ENDBRANCH  10  13
ENDBRANCH   8  11
ENDBRANCH   1   8
BRANCH   4  18
ATOM     18  C   UNL     1      47.830   7.674  13.766  0.00  0.00    +0.000 C 
BRANCH  18  19
ATOM     19  N   UNL     1      47.904   7.560  15.201  0.00  0.00    +0.000 N 
ATOM     20  C   UNL     1      49.033   7.099  15.826  0.00  0.00    +0.000 C 
ATOM     21  O   UNL     1      50.039   6.776  15.200  0.00  0.00    +0.000 OA
ATOM     22  H   UNL     1      47.036   7.629  15.721  0.00  0.00    +0.000 HD
BRANCH  20  23
ATOM     23  C   UNL     1      48.998   7.066  17.293  0.00  0.00    +0.000 A 
ATOM     24  C   UNL     1      48.992   8.256  18.010  0.00  0.00    +0.000 A 
ATOM     25  S   UNL     1      48.888   8.037  19.698  0.00  0.00    +0.000 S 
ATOM     26  C   UNL     1      48.899   6.344  19.535  0.00  0.00    +0.000 A 
ATOM     27  N   UNL     1      48.849   5.535  20.626  0.00  0.00    +0.000 NA
ATOM     28  C   UNL     1      48.900   4.273  20.359  0.00  0.00    +0.000 A 
ATOM     29  N   UNL     1      48.995   3.745  19.097  0.00  0.00    +0.000 N 
ATOM     30  C   UNL     1      49.015   4.522  17.963  0.00  0.00    +0.000 A 
ATOM     31  O   UNL     1      49.050   4.015  16.847  0.00  0.00    +0.000 OA
ATOM     32  C   UNL     1      48.970   5.951  18.209  0.00  0.00    +0.000 A 
ATOM     33  H   UNL     1      49.025   2.747  18.955  0.00  0.00    +0.000 HD
ENDBRANCH  20  23
ENDBRANCH  18  19
ENDBRANCH   4  18
TORSDOF 6
ENDMDL
MODEL 3
REMARK VINA RESULT:    -7.657      1.515      1.628
REMARK INTER + INTRA:         -11.512
REMARK INTER:                 -10.575
REMARK INTRA:                  -0.937
REMARK UNBOUND:                -1.168
REMARK  Name = 
REMARK  6 active torsions:
REMARK  status: ('A' for Active; 'I' for Inactive)
REMARK    1  A    between atoms: C_2  and  C_26
REMARK    2  A    between atoms: N_3  and  C_4
REMARK    3  A    between atoms: C_4  and  C_5
REMARK    4  A    between atoms: C_8  and  C_9
REMARK    5  A    between atoms: C_9  and  N_10
REMARK    6  A    between atoms: C_11  and  C_13
REMARK                            x       y       z     vdW  Elec       q    Type
REMARK                         _______ _______ _______ _____ _____    ______ ____
ROOT
ATOM      1  C   UNL     1      44.626   5.083  11.352  0.00  0.00    +0.000 A 
ATOM      2  C   UNL     1      45.669   4.592  12.151  0.00  0.00    +0.000 A 
ATOM      3  C   UNL     1      46.481   5.465  12.883  0.00  0.00    +0.000 A 
ATOM      4  C   UNL     1      46.270   6.850  12.829  0.00  0.00    +0.000 A 
ATOM      5  C   UNL     1      45.214   7.329  12.051  0.00  0.00    +0.000 A 
ATOM      6  F   UNL     1      44.970   8.646  11.992  0.00  0.00    +0.000 F 
ATOM      7  C   UNL     1      44.397   6.465  11.321  0.00  0.00    +0.000 A 
ENDROOT
BRANCH   1   8
ATOM      8  C   UNL     1      43.775   4.144  10.542  0.00  0.00    +0.000 C 
BRANCH   8  11
ATOM      9  O   UNL     1      45.273   4.758   8.320  0.00  0.00    +0.000 OA
ATOM     10  C   UNL     1      45.280   3.592   8.698  0.00  0.00    +0.000 C 
ATOM     11  N   UNL     1      44.555   3.185   9.802  0.00  0.00    +0.000 N 
ATOM     12  H   UNL     1      44.634   2.225  10.108  0.00  0.00    +0.000 HD
BRANCH  10  13
ATOM     13  C   UNL     1      46.040   2.553   8.037  0.00  0.00    +0.000 A 
ATOM     14  C   UNL     1      46.868   2.621   6.931  0.00  0.00    +0.000 A 
ATOM     15  C   UNL     1      47.345   1.312   6.693  0.00  0.00    +0.000 A 
ATOM     16  C   UNL     1      46.779   0.521   7.664  0.00  0.00    +0.000 A 
ATOM     17  O   UNL     1      45.994   1.260   8.491  0.00  0.00    +0.000 OA
ENDBRANCH  10  13
ENDBRANCH   8  11
ENDBRANCH   1   8
BRANCH   4  18
ATOM     18  C   UNL     1      47.132   7.789  13.626  0.00  0.00    +0.000 C 
BRANCH  18  19
ATOM     19  N   UNL     1      48.118   7.069  14.392  0.00  0.00    +0.000 N 
ATOM     20  C   UNL     1      48.629   7.577  15.558  0.00  0.00    +0.000 C 
ATOM     21  O   UNL     1      48.263   8.657  16.015  0.00  0.00    +0.000 OA
ATOM     22  H   UNL     1      48.577   6.283  13.944  0.00  0.00    +0.000 HD
BRANCH  20  23
ATOM     23  C   UNL     1      49.597   6.732  16.267  0.00  0.00    +0.000 A 
ATOM     24  C   UNL     1      50.867   7.223  16.546  0.00  0.00    +0.000 A 
ATOM     25  S   UNL     1      51.842   6.136  17.428  0.00  0.00    +0.000 S 
ATOM     26  C   UNL     1      50.621   4.952  17.425  0.00  0.00    +0.000 A 
ATOM     27  N   UNL     1      50.818   3.742  18.013  0.00  0.00    +0.000 NA
ATOM     28  C   UNL     1      49.822   2.928  17.905  0.00  0.00    +0.000 A 
ATOM     29  N   UNL     1      48.644   3.214  17.265  0.00  0.00    +0.000 N 
ATOM     30  C   UNL     1      48.387   4.434  16.686  0.00  0.00    +0.000 A 
ATOM     31  O   UNL     1      47.303   4.674  16.164  0.00  0.00    +0.000 OA
ATOM     32  C   UNL     1      49.480   5.384  16.770  0.00  0.00    +0.000 A 
ATOM     33  H   UNL     1      47.900   2.534  17.222  0.00  0.00    +0.000 HD
ENDBRANCH  20  23
ENDBRANCH  18  19
ENDBRANCH   4  18
TORSDOF 6
ENDMDL
MODEL 4
REMARK VINA RESULT:    -7.502      3.758      5.028
REMARK INTER + INTRA:         -11.302
REMARK INTER:                 -10.264
REMARK INTRA:                  -1.038
REMARK UNBOUND:                -1.168
REMARK  Name = 
REMARK  6 active torsions:
REMARK  status: ('A' for Active; 'I' for Inactive)
REMARK    1  A    between atoms: C_2  and  C_26
REMARK    2  A    between atoms: N_3  and  C_4
REMARK    3  A    between atoms: C_4  and  C_5
REMARK    4  A    between atoms: C_8  and  C_9
REMARK    5  A    between atoms: C_9  and  N_10
REMARK    6  A    between atoms: C_11  and  C_13
REMARK                            x       y       z     vdW  Elec       q    Type
REMARK                         _______ _______ _______ _____ _____    ______ ____
ROOT
ATOM      1  C   UNL     1      44.769   4.679  11.831  0.00  0.00    +0.000 A 
ATOM      2  C   UNL     1      44.270   5.904  11.369  0.00  0.00    +0.000 A 
ATOM      3  C   UNL     1      44.805   7.113  11.827  0.00  0.00    +0.000 A 
ATOM      4  C   UNL     1      45.849   7.122  12.762  0.00  0.00    +0.000 A 
ATOM      5  C   UNL     1      46.358   5.897  13.198  0.00  0.00    +0.000 A 
ATOM      6  F   UNL     1      47.371   5.867  14.076  0.00  0.00    +0.000 F 
ATOM      7  C   UNL     1      45.833   4.687  12.744  0.00  0.00    +0.000 A 
ENDROOT
BRANCH   1   8
ATOM      8  C   UNL     1      44.170   3.382  11.360  0.00  0.00    +0.000 C 
BRANCH   8  11
ATOM      9  O   UNL     1      44.301   3.909   8.665  0.00  0.00    +0.000 OA
ATOM     10  C   UNL     1      45.023   3.018   9.099  0.00  0.00    +0.000 C 
ATOM     11  N   UNL     1      45.025   2.678  10.439  0.00  0.00    +0.000 N 
ATOM     12  H   UNL     1      45.676   1.974  10.760  0.00  0.00    +0.000 HD
BRANCH  10  13
ATOM     13  C   UNL     1      45.929   2.259   8.264  0.00  0.00    +0.000 A 
ATOM     14  C   UNL     1      46.771   2.681   7.250  0.00  0.00    +0.000 A 
ATOM     15  C   UNL     1      47.420   1.529   6.750  0.00  0.00    +0.000 A 
ATOM     16  C   UNL     1      46.937   0.472   7.484  0.00  0.00    +0.000 A 
ATOM     17  O   UNL     1      46.040   0.901   8.412  0.00  0.00    +0.000 OA
ENDBRANCH  10  13
ENDBRANCH   8  11
ENDBRANCH   1   8
BRANCH   4  18
ATOM     18  C   UNL     1      46.436   8.419  13.245  0.00  0.00    +0.000 C 
BRANCH  18  19
ATOM     19  N   UNL     1      47.583   8.797  12.459  0.00  0.00    +0.000 N 
ATOM     20  C   UNL     1      48.461   9.758  12.889  0.00  0.00    +0.000 C 
ATOM     21  O   UNL     1      48.325  10.330  13.967  0.00  0.00    +0.000 OA
ATOM     22  H   UNL     1      47.610   8.491  11.492  0.00  0.00    +0.000 HD
BRANCH  20  23
ATOM     23  C   UNL     1      49.611  10.027  12.018  0.00  0.00    +0.000 A 
ATOM     24  C   UNL     1      49.940  11.337  11.694  0.00  0.00    +0.000 A 
ATOM     25  S   UNL     1      51.337  11.473  10.725  0.00  0.00    +0.000 S 
ATOM     26  C   UNL     1      51.524   9.783  10.661  0.00  0.00    +0.000 A 
ATOM     27  N   UNL     1      52.542   9.217   9.960  0.00  0.00    +0.000 NA
ATOM     28  C   UNL     1      52.542   7.926   9.967  0.00  0.00    +0.000 A 
ATOM     29  N   UNL     1      51.618   7.148  10.615  0.00  0.00    +0.000 N 
ATOM     30  C   UNL     1      50.591   7.675  11.362  0.00  0.00    +0.000 A 
ATOM     31  O   UNL     1      49.811   6.950  11.970  0.00  0.00    +0.000 OA
ATOM     32  C   UNL     1      50.540   9.125  11.378  0.00  0.00    +0.000 A 
ATOM     33  H   UNL     1      51.679   6.141  10.586  0.00  0.00    +0.000 HD
ENDBRANCH  20  23
ENDBRANCH  18  19
ENDBRANCH   4  18
TORSDOF 6
ENDMDL
MODEL 5
REMARK VINA RESULT:    -7.257      2.806      4.455
REMARK INTER + INTRA:         -10.970
REMARK INTER:                  -9.966
REMARK INTRA:                  -1.004
REMARK UNBOUND:                -1.168
REMARK  Name = 
REMARK  6 active torsions:
REMARK  status: ('A' for Active; 'I' for Inactive)
REMARK    1  A    between atoms: C_2  and  C_26
REMARK    2  A    between atoms: N_3  and  C_4
REMARK    3  A    between atoms: C_4  and  C_5
REMARK    4  A    between atoms: C_8  and  C_9
REMARK    5  A    between atoms: C_9  and  N_10
REMARK    6  A    between atoms: C_11  and  C_13
REMARK                            x       y       z     vdW  Elec       q    Type
REMARK                         _______ _______ _______ _____ _____    ______ ____
ROOT
ATOM      1  C   UNL     1      44.830   4.420  11.512  0.00  0.00    +0.000 A 
ATOM      2  C   UNL     1      44.932   5.759  11.913  0.00  0.00    +0.000 A 
ATOM      3  C   UNL     1      45.732   6.121  13.001  0.00  0.00    +0.000 A 
ATOM      4  C   UNL     1      46.447   5.149  13.716  0.00  0.00    +0.000 A 
ATOM      5  C   UNL     1      46.361   3.821  13.294  0.00  0.00    +0.000 A 
ATOM      6  F   UNL     1      47.046   2.868  13.941  0.00  0.00    +0.000 F 
ATOM      7  C   UNL     1      45.567   3.452  12.208  0.00  0.00    +0.000 A 
ENDROOT
BRANCH   1   8
ATOM      8  C   UNL     1      43.944   4.031  10.361  0.00  0.00    +0.000 C 
BRANCH   8  11
ATOM      9  O   UNL     1      45.709   5.232   8.629  0.00  0.00    +0.000 OA
ATOM     10  C   UNL     1      45.529   4.026   8.501  0.00  0.00    +0.000 C 
ATOM     11  N   UNL     1      44.658   3.334   9.321  0.00  0.00    +0.000 N 
ATOM     12  H   UNL     1      44.582   2.332   9.213  0.00  0.00    +0.000 HD
BRANCH  10  13
ATOM     13  C   UNL     1      46.205   3.228   7.500  0.00  0.00    +0.000 A 
ATOM     14  C   UNL     1      46.676   1.929   7.565  0.00  0.00    +0.000 A 
ATOM     15  C   UNL     1      47.271   1.645   6.314  0.00  0.00    +0.000 A 
ATOM     16  C   UNL     1      47.131   2.785   5.561  0.00  0.00    +0.000 A 
ATOM     17  O   UNL     1      46.479   3.750   6.262  0.00  0.00    +0.000 OA
ENDBRANCH  10  13
ENDBRANCH   8  11
ENDBRANCH   1   8
BRANCH   4  18
ATOM     18  C   UNL     1      47.319   5.537  14.877  0.00  0.00    +0.000 C 
BRANCH  18  19
ATOM     19  N   UNL     1      47.884   6.850  14.690  0.00  0.00    +0.000 N 
ATOM     20  C   UNL     1      49.167   7.139  15.074  0.00  0.00    +0.000 C 
ATOM     21  O   UNL     1      49.903   6.295  15.580  0.00  0.00    +0.000 OA
ATOM     22  H   UNL     1      47.247   7.606  14.463  0.00  0.00    +0.000 HD
BRANCH  20  23
ATOM     23  C   UNL     1      49.640   8.500  14.795  0.00  0.00    +0.000 A 
ATOM     24  C   UNL     1      50.188   9.264  15.818  0.00  0.00    +0.000 A 
ATOM     25  S   UNL     1      50.742  10.794  15.309  0.00  0.00    +0.000 S 
ATOM     26  C   UNL     1      50.224  10.512  13.713  0.00  0.00    +0.000 A 
ATOM     27  N   UNL     1      50.386  11.454  12.747  0.00  0.00    +0.000 NA
ATOM     28  C   UNL     1      49.915  11.122  11.592  0.00  0.00    +0.000 A 
ATOM     29  N   UNL     1      49.299   9.930  11.314  0.00  0.00    +0.000 N 
ATOM     30  C   UNL     1      49.142   8.934  12.249  0.00  0.00    +0.000 A 
ATOM     31  O   UNL     1      48.631   7.859  11.952  0.00  0.00    +0.000 OA
ATOM     32  C   UNL     1      49.646   9.262  13.569  0.00  0.00    +0.000 A 
ATOM     33  H   UNL     1      48.958   9.728  10.385  0.00  0.00    +0.000 HD
ENDBRANCH  20  23
ENDBRANCH  18  19
ENDBRANCH   4  18
TORSDOF 6
ENDMDL
MODEL 6
REMARK VINA RESULT:    -7.127      3.513      4.321
REMARK INTER + INTRA:         -10.796
REMARK INTER:                  -9.834
REMARK INTRA:                  -0.962
REMARK UNBOUND:                -1.168
REMARK  Name = 
REMARK  6 active torsions:
REMARK  status: ('A' for Active; 'I' for Inactive)
REMARK    1  A    between atoms: C_2  and  C_26
REMARK    2  A    between atoms: N_3  and  C_4
REMARK    3  A    between atoms: C_4  and  C_5
REMARK    4  A    between atoms: C_8  and  C_9
REMARK    5  A    between atoms: C_9  and  N_10
REMARK    6  A    between atoms: C_11  and  C_13
REMARK                            x       y       z     vdW  Elec       q    Type
REMARK                         _______ _______ _______ _____ _____    ______ ____
ROOT
ATOM      1  C   UNL     1      44.775   4.895  11.808  0.00  0.00    +0.000 A 
ATOM      2  C   UNL     1      45.836   5.075  12.706  0.00  0.00    +0.000 A 
ATOM      3  C   UNL     1      46.270   6.359  13.052  0.00  0.00    +0.000 A 
ATOM      4  C   UNL     1      45.654   7.492  12.503  0.00  0.00    +0.000 A 
ATOM      5  C   UNL     1      44.581   7.304  11.630  0.00  0.00    +0.000 A 
ATOM      6  F   UNL     1      43.955   8.366  11.101  0.00  0.00    +0.000 F 
ATOM      7  C   UNL     1      44.140   6.028  11.282  0.00  0.00    +0.000 A 
ENDROOT
BRANCH   1   8
ATOM      8  C   UNL     1      44.331   3.512  11.415  0.00  0.00    +0.000 C 
BRANCH   8  11
ATOM      9  O   UNL     1      44.133   3.873   8.697  0.00  0.00    +0.000 OA
ATOM     10  C   UNL     1      45.033   3.146   9.103  0.00  0.00    +0.000 C 
ATOM     11  N   UNL     1      45.210   2.900  10.452  0.00  0.00    +0.000 N 
ATOM     12  H   UNL     1      45.997   2.336  10.743  0.00  0.00    +0.000 HD
BRANCH  10  13
ATOM     13  C   UNL     1      45.979   2.493   8.223  0.00  0.00    +0.000 A 
ATOM     14  C   UNL     1      46.752   3.016   7.202  0.00  0.00    +0.000 A 
ATOM     15  C   UNL     1      47.486   1.940   6.651  0.00  0.00    +0.000 A 
ATOM     16  C   UNL     1      47.118   0.825   7.366  0.00  0.00    +0.000 A 
ATOM     17  O   UNL     1      46.212   1.147   8.328  0.00  0.00    +0.000 OA
ENDBRANCH  10  13
ENDBRANCH   8  11
ENDBRANCH   1   8
BRANCH   4  18
ATOM     18  C   UNL     1      46.109   8.873  12.884  0.00  0.00    +0.000 C 
BRANCH  18  19
ATOM     19  N   UNL     1      47.538   9.005  12.760  0.00  0.00    +0.000 N 
ATOM     20  C   UNL     1      48.355   9.021  13.860  0.00  0.00    +0.000 C 
ATOM     21  O   UNL     1      47.914   8.907  15.001  0.00  0.00    +0.000 OA
ATOM     22  H   UNL     1      47.905   9.297  11.860  0.00  0.00    +0.000 HD
BRANCH  20  23
ATOM     23  C   UNL     1      49.796   9.121  13.601  0.00  0.00    +0.000 A 
ATOM     24  C   UNL     1      50.594   9.898  14.431  0.00  0.00    +0.000 A 
ATOM     25  S   UNL     1      52.250   9.855  14.026  0.00  0.00    +0.000 S 
ATOM     26  C   UNL     1      51.954   8.837  12.695  0.00  0.00    +0.000 A 
ATOM     27  N   UNL     1      52.968   8.424  11.890  0.00  0.00    +0.000 NA
ATOM     28  C   UNL     1      52.597   7.686  10.899  0.00  0.00    +0.000 A 
ATOM     29  N   UNL     1      51.302   7.319  10.640  0.00  0.00    +0.000 N 
ATOM     30  C   UNL     1      50.248   7.685  11.444  0.00  0.00    +0.000 A 
ATOM     31  O   UNL     1      49.108   7.297  11.212  0.00  0.00    +0.000 OA
ATOM     32  C   UNL     1      50.611   8.526  12.569  0.00  0.00    +0.000 A 
ATOM     33  H   UNL     1      51.078   6.733   9.850  0.00  0.00    +0.000 HD
ENDBRANCH  20  23
ENDBRANCH  18  19
ENDBRANCH   4  18
TORSDOF 6
ENDMDL
MODEL 7
REMARK VINA RESULT:    -6.964      3.385      4.733
REMARK INTER + INTRA:         -10.575
REMARK INTER:                  -9.738
REMARK INTRA:                  -0.837
REMARK UNBOUND:                -1.168
REMARK  Name = 
REMARK  6 active torsions:
REMARK  status: ('A' for Active; 'I' for Inactive)
REMARK    1  A    between atoms: C_2  and  C_26
REMARK    2  A    between atoms: N_3  and  C_4
REMARK    3  A    between atoms: C_4  and  C_5
REMARK    4  A    between atoms: C_8  and  C_9
REMARK    5  A    between atoms: C_9  and  N_10
REMARK    6  A    between atoms: C_11  and  C_13
REMARK                            x       y       z     vdW  Elec       q    Type
REMARK                         _______ _______ _______ _____ _____    ______ ____
ROOT
ATOM      1  C   UNL     1      44.685   4.736  11.702  0.00  0.00    +0.000 A 
ATOM      2  C   UNL     1      45.633   4.568  12.721  0.00  0.00    +0.000 A 
ATOM      3  C   UNL     1      46.299   5.669  13.268  0.00  0.00    +0.000 A 
ATOM      4  C   UNL     1      46.035   6.965  12.804  0.00  0.00    +0.000 A 
ATOM      5  C   UNL     1      45.071   7.127  11.807  0.00  0.00    +0.000 A 
ATOM      6  F   UNL     1      44.777   8.354  11.353  0.00  0.00    +0.000 F 
ATOM      7  C   UNL     1      44.400   6.034  11.258  0.00  0.00    +0.000 A 
ENDROOT
BRANCH   1   8
ATOM      8  C   UNL     1      43.994   3.546  11.095  0.00  0.00    +0.000 C 
BRANCH   8  11
ATOM      9  O   UNL     1      44.428   4.052   8.428  0.00  0.00    +0.000 OA
ATOM     10  C   UNL     1      45.023   3.101   8.924  0.00  0.00    +0.000 C 
ATOM     11  N   UNL     1      44.866   2.766  10.256  0.00  0.00    +0.000 N 
ATOM     12  H   UNL     1      45.417   2.007  10.633  0.00  0.00    +0.000 HD
BRANCH  10  13
ATOM     13  C   UNL     1      45.932   2.261   8.175  0.00  0.00    +0.000 A 
ATOM     14  C   UNL     1      46.859   2.596   7.203  0.00  0.00    +0.000 A 
ATOM     15  C   UNL     1      47.469   1.391   6.784  0.00  0.00    +0.000 A 
ATOM     16  C   UNL     1      46.879   0.393   7.521  0.00  0.00    +0.000 A 
ATOM     17  O   UNL     1      45.954   0.906   8.375  0.00  0.00    +0.000 OA
ENDBRANCH  10  13
ENDBRANCH   8  11
ENDBRANCH   1   8
BRANCH   4  18
ATOM     18  C   UNL     1      46.738   8.152  13.400  0.00  0.00    +0.000 C 
BRANCH  18  19
ATOM     19  N   UNL     1      48.026   8.358  12.788  0.00  0.00    +0.000 N 
ATOM     20  C   UNL     1      49.178   7.896  13.369  0.00  0.00    +0.000 C 
ATOM     21  O   UNL     1      49.170   7.273  14.427  0.00  0.00    +0.000 OA
ATOM     22  H   UNL     1      48.082   9.030  12.030  0.00  0.00    +0.000 HD
BRANCH  20  23
ATOM     23  C   UNL     1      50.423   8.134  12.629  0.00  0.00    +0.000 A 
ATOM     24  C   UNL     1      50.543   7.687  11.319  0.00  0.00    +0.000 A 
ATOM     25  S   UNL     1      52.028   8.101  10.589  0.00  0.00    +0.000 S 
ATOM     26  C   UNL     1      52.584   8.847  12.012  0.00  0.00    +0.000 A 
ATOM     27  N   UNL     1      53.821   9.407  12.073  0.00  0.00    +0.000 NA
ATOM     28  C   UNL     1      54.127   9.906  13.223  0.00  0.00    +0.000 A 
ATOM     29  N   UNL     1      53.305   9.899  14.320  0.00  0.00    +0.000 N 
ATOM     30  C   UNL     1      52.034   9.376  14.298  0.00  0.00    +0.000 A 
ATOM     31  O   UNL     1      51.307   9.431  15.284  0.00  0.00    +0.000 OA
ATOM     32  C   UNL     1      51.645   8.792  13.028  0.00  0.00    +0.000 A 
ATOM     33  H   UNL     1      53.602  10.313  15.191  0.00  0.00    +0.000 HD
ENDBRANCH  20  23
ENDBRANCH  18  19
ENDBRANCH   4  18
TORSDOF 6
ENDMDL
MODEL 8
REMARK VINA RESULT:    -6.959      4.190      6.220
REMARK INTER + INTRA:         -10.569
REMARK INTER:                  -9.581
REMARK INTRA:                  -0.988
REMARK UNBOUND:                -1.168
REMARK  Name = 
REMARK  6 active torsions:
REMARK  status: ('A' for Active; 'I' for Inactive)
REMARK    1  A    between atoms: C_2  and  C_26
REMARK    2  A    between atoms: N_3  and  C_4
REMARK    3  A    between atoms: C_4  and  C_5
REMARK    4  A    between atoms: C_8  and  C_9
REMARK    5  A    between atoms: C_9  and  N_10
REMARK    6  A    between atoms: C_11  and  C_13
REMARK                            x       y       z     vdW  Elec       q    Type
REMARK                         _______ _______ _______ _____ _____    ______ ____
ROOT
ATOM      1  C   UNL     1      44.461   8.111  11.461  0.00  0.00    +0.000 A 
ATOM      2  C   UNL     1      45.597   8.187  12.278  0.00  0.00    +0.000 A 
ATOM      3  C   UNL     1      46.087   7.050  12.929  0.00  0.00    +0.000 A 
ATOM      4  C   UNL     1      45.447   5.812  12.781  0.00  0.00    +0.000 A 
ATOM      5  C   UNL     1      44.331   5.740  11.944  0.00  0.00    +0.000 A 
ATOM      6  F   UNL     1      43.706   4.568  11.763  0.00  0.00    +0.000 F 
ATOM      7  C   UNL     1      43.839   6.868  11.289  0.00  0.00    +0.000 A 
ENDROOT
BRANCH   1   8
ATOM      8  C   UNL     1      43.920   9.342  10.787  0.00  0.00    +0.000 C 
BRANCH   8  11
ATOM      9  O   UNL     1      42.416  11.322   9.613  0.00  0.00    +0.000 OA
ATOM     10  C   UNL     1      41.831  10.531  10.345  0.00  0.00    +0.000 C 
ATOM     11  N   UNL     1      42.502   9.505  10.983  0.00  0.00    +0.000 N 
ATOM     12  H   UNL     1      41.969   8.846  11.535  0.00  0.00    +0.000 HD
BRANCH  10  13
ATOM     13  C   UNL     1      40.408  10.596  10.600  0.00  0.00    +0.000 A 
ATOM     14  C   UNL     1      39.422  11.333   9.967  0.00  0.00    +0.000 A 
ATOM     15  C   UNL     1      38.205  11.039  10.624  0.00  0.00    +0.000 A 
ATOM     16  C   UNL     1      38.517  10.143  11.618  0.00  0.00    +0.000 A 
ATOM     17  O   UNL     1      39.847   9.858  11.609  0.00  0.00    +0.000 OA
ENDBRANCH  10  13
ENDBRANCH   8  11
ENDBRANCH   1   8
BRANCH   4  18
ATOM     18  C   UNL     1      45.980   4.586  13.468  0.00  0.00    +0.000 C 
BRANCH  18  19
ATOM     19  N   UNL     1      46.616   4.921  14.717  0.00  0.00    +0.000 N 
ATOM     20  C   UNL     1      47.420   4.027  15.374  0.00  0.00    +0.000 C 
ATOM     21  O   UNL     1      47.651   2.906  14.928  0.00  0.00    +0.000 OA
ATOM     22  H   UNL     1      46.290   5.751  15.200  0.00  0.00    +0.000 HD
BRANCH  20  23
ATOM     23  C   UNL     1      48.042   4.500  16.616  0.00  0.00    +0.000 A 
ATOM     24  C   UNL     1      47.766   3.856  17.815  0.00  0.00    +0.000 A 
ATOM     25  S   UNL     1      48.619   4.494  19.147  0.00  0.00    +0.000 S 
ATOM     26  C   UNL     1      49.347   5.688  18.179  0.00  0.00    +0.000 A 
ATOM     27  N   UNL     1      50.201   6.600  18.716  0.00  0.00    +0.000 NA
ATOM     28  C   UNL     1      50.653   7.468  17.875  0.00  0.00    +0.000 A 
ATOM     29  N   UNL     1      50.330   7.507  16.543  0.00  0.00    +0.000 N 
ATOM     30  C   UNL     1      49.498   6.587  15.949  0.00  0.00    +0.000 A 
ATOM     31  O   UNL     1      49.270   6.622  14.745  0.00  0.00    +0.000 OA
ATOM     32  C   UNL     1      48.955   5.594  16.855  0.00  0.00    +0.000 A 
ATOM     33  H   UNL     1      50.724   8.210  15.936  0.00  0.00    +0.000 HD
ENDBRANCH  20  23
ENDBRANCH  18  19
ENDBRANCH   4  18
TORSDOF 6
ENDMDL
MODEL 9
REMARK VINA RESULT:    -6.946      4.169      6.098
REMARK INTER + INTRA:         -10.550
REMARK INTER:                  -9.778
REMARK INTRA:                  -0.773
REMARK UNBOUND:                -1.168
REMARK  Name = 
REMARK  6 active torsions:
REMARK  status: ('A' for Active; 'I' for Inactive)
REMARK    1  A    between atoms: C_2  and  C_26
REMARK    2  A    between atoms: N_3  and  C_4
REMARK    3  A    between atoms: C_4  and  C_5
REMARK    4  A    between atoms: C_8  and  C_9
REMARK    5  A    between atoms: C_9  and  N_10
REMARK    6  A    between atoms: C_11  and  C_13
REMARK                            x       y       z     vdW  Elec       q    Type
REMARK                         _______ _______ _______ _____ _____    ______ ____
ROOT
ATOM      1  C   UNL     1      45.227   7.603  11.906  0.00  0.00    +0.000 A 
ATOM      2  C   UNL     1      46.541   7.464  12.374  0.00  0.00    +0.000 A 
ATOM      3  C   UNL     1      46.917   6.348  13.129  0.00  0.00    +0.000 A 
ATOM      4  C   UNL     1      45.984   5.348  13.437  0.00  0.00    +0.000 A 
ATOM      5  C   UNL     1      44.684   5.482  12.945  0.00  0.00    +0.000 A 
ATOM      6  F   UNL     1      43.770   4.535  13.203  0.00  0.00    +0.000 F 
ATOM      7  C   UNL     1      44.302   6.590  12.189  0.00  0.00    +0.000 A 
ENDROOT
BRANCH   1   8
ATOM      8  C   UNL     1      44.819   8.820  11.122  0.00  0.00    +0.000 C 
BRANCH   8  11
ATOM      9  O   UNL     1      43.378  10.635   9.643  0.00  0.00    +0.000 OA
ATOM     10  C   UNL     1      42.863  10.214  10.673  0.00  0.00    +0.000 C 
ATOM     11  N   UNL     1      43.511   9.303  11.485  0.00  0.00    +0.000 N 
ATOM     12  H   UNL     1      43.026   8.943  12.296  0.00  0.00    +0.000 HD
BRANCH  10  13
ATOM     13  C   UNL     1      41.549  10.622  11.123  0.00  0.00    +0.000 A 
ATOM     14  C   UNL     1      41.179  11.390  12.213  0.00  0.00    +0.000 A 
ATOM     15  C   UNL     1      39.767  11.468  12.200  0.00  0.00    +0.000 A 
ATOM     16  C   UNL     1      39.358  10.743  11.107  0.00  0.00    +0.000 A 
ATOM     17  O   UNL     1      40.427  10.233  10.439  0.00  0.00    +0.000 OA
ENDBRANCH  10  13
ENDBRANCH   8  11
ENDBRANCH   1   8
BRANCH   4  18
ATOM     18  C   UNL     1      46.389   4.140  14.235  0.00  0.00    +0.000 C 
BRANCH  18  19
ATOM     19  N   UNL     1      47.463   4.451  15.144  0.00  0.00    +0.000 N 
ATOM     20  C   UNL     1      47.451   4.014  16.443  0.00  0.00    +0.000 C 
ATOM     21  O   UNL     1      46.539   3.325  16.892  0.00  0.00    +0.000 OA
ATOM     22  H   UNL     1      48.119   5.172  14.864  0.00  0.00    +0.000 HD
BRANCH  20  23
ATOM     23  C   UNL     1      48.621   4.363  17.258  0.00  0.00    +0.000 A 
ATOM     24  C   UNL     1      48.636   5.557  17.968  0.00  0.00    +0.000 A 
ATOM     25  S   UNL     1      50.041   5.775  18.910  0.00  0.00    +0.000 S 
ATOM     26  C   UNL     1      50.703   4.306  18.364  0.00  0.00    +0.000 A 
ATOM     27  N   UNL     1      51.928   3.892  18.782  0.00  0.00    +0.000 NA
ATOM     28  C   UNL     1      52.321   2.778  18.261  0.00  0.00    +0.000 A 
ATOM     29  N   UNL     1      51.599   2.038  17.361  0.00  0.00    +0.000 N 
ATOM     30  C   UNL     1      50.343   2.400  16.935  0.00  0.00    +0.000 A 
ATOM     31  O   UNL     1      49.704   1.689  16.166  0.00  0.00    +0.000 OA
ATOM     32  C   UNL     1      49.858   3.652  17.483  0.00  0.00    +0.000 A 
ATOM     33  H   UNL     1      51.962   1.170  16.996  0.00  0.00    +0.000 HD
ENDBRANCH  20  23
ENDBRANCH  18  19
ENDBRANCH   4  18
TORSDOF 6
ENDMDL
