MODEL 1
REMARK VINA RESULT:    -8.265      0.000      0.000
REMARK INTER + INTRA:         -12.698
REMARK INTER:                 -11.647
REMARK INTRA:                  -1.051
REMARK UNBOUND:                -1.051
REMARK  Name = 
REMARK  8 active torsions:
REMARK  status: ('A' for Active; 'I' for Inactive)
REMARK    1  A    between atoms: C_1  and  O_2
REMARK    2  A    between atoms: O_2  and  C_3
REMARK    3  A    between atoms: C_10  and  C_11
REMARK    4  A    between atoms: N_13  and  C_14
REMARK    5  A    between atoms: C_14  and  C_15
REMARK    6  A    between atoms: C_18  and  N_19
REMARK    7  A    between atoms: N_19  and  C_20
REMARK    8  A    between atoms: C_20  and  C_21
REMARK                            x       y       z     vdW  Elec       q    Type
REMARK                         _______ _______ _______ _____ _____    ______ ____
ROOT
ATOM      1  C   UNL     1      46.769   8.128  13.164  0.00  0.00    +0.000 C 
ENDROOT
BRANCH   1   2
ATOM      2  C   UNL     1      46.105   7.156  12.211  0.00  0.00    +0.000 A 
ATOM      3  C   UNL     1      44.839   6.630  12.506  0.00  0.00    +0.000 A 
ATOM      4  C   UNL     1      44.184   5.766  11.613  0.00  0.00    +0.000 A 
ATOM      5  C   UNL     1      44.782   5.371  10.413  0.00  0.00    +0.000 A 
ATOM      6  C   UNL     1      46.070   5.847  10.149  0.00  0.00    +0.000 A 
ATOM      7  C   UNL     1      46.713   6.749  11.015  0.00  0.00    +0.000 A 
BRANCH   5   8
ATOM      8  N   UNL     1      44.168   4.566   9.465  0.00  0.00    +0.000 N 
ATOM      9  H   UNL     1      43.923   5.007   8.578  0.00  0.00    +0.000 HD
BRANCH   8  10
ATOM     10  C   UNL     1      44.513   3.155   9.338  0.00  0.00    +0.000 C 
BRANCH  10  11
ATOM     11  C   UNL     1      45.523   2.938   8.226  0.00  0.00    +0.000 A 
ATOM     12  N   UNL     1      45.944   4.014   7.496  0.00  0.00    +0.000 NA
ATOM     13  C   UNL     1      46.839   3.772   6.508  0.00  0.00    +0.000 A 
ATOM     14  C   UNL     1      47.350   2.516   6.216  0.00  0.00    +0.000 A 
ATOM     15  C   UNL     1      46.934   1.438   6.991  0.00  0.00    +0.000 A 
ATOM     16  C   UNL     1      46.018   1.655   8.009  0.00  0.00    +0.000 A 
ATOM     17  F   UNL     1      45.617   0.625   8.766  0.00  0.00    +0.000 F 
ENDBRANCH  10  11
ENDBRANCH   8  10
ENDBRANCH   5   8
ENDBRANCH   1   2
BRANCH   1  20
ATOM     18  C   UNL     1      48.521   6.880  14.412  0.00  0.00    +0.000 C 
ATOM     19  O   UNL     1      49.283   6.867  13.453  0.00  0.00    +0.000 OA
ATOM     20  N   UNL     1      47.283   7.478  14.342  0.00  0.00    +0.000 N 
ATOM     21  H   UNL     1      46.694   7.491  15.159  0.00  0.00    +0.000 HD
BRANCH  18  29
ATOM     22  C   UNL     1      47.226   4.219  16.163  0.00  0.00    +0.000 A 
ATOM     23  N   UNL     1      46.960   3.191  16.991  0.00  0.00    +0.000 NA
ATOM     24  C   UNL     1      47.743   3.032  18.062  0.00  0.00    +0.000 A 
ATOM     25  N   UNL     1      48.769   3.800  18.422  0.00  0.00    +0.000 NA
ATOM     26  C   UNL     1      49.003   4.808  17.564  0.00  0.00    +0.000 A 
ATOM     27  S   UNL     1      50.268   5.897  17.868  0.00  0.00    +0.000 S 
ATOM     28  C   UNL     1      49.937   6.763  16.440  0.00  0.00    +0.000 A 
ATOM     29  C   UNL     1      48.879   6.242  15.700  0.00  0.00    +0.000 A 
ATOM     30  C   UNL     1      48.304   5.092  16.396  0.00  0.00    +0.000 A 
BRANCH  22  32
ATOM     31  C   UNL     1      46.961   3.708  13.898  0.00  0.00    +0.000 C 
ATOM     32  O   UNL     1      46.435   4.363  15.048  0.00  0.00    +0.000 OA
ENDBRANCH  22  32
ENDBRANCH  18  29
ENDBRANCH   1  20
TORSDOF 7
ENDMDL
MODEL 2
REMARK VINA RESULT:    -8.123      1.811      2.263
REMARK INTER + INTRA:         -12.499
REMARK INTER:                 -11.498
REMARK INTRA:                  -1.000
REMARK UNBOUND:                -1.051
REMARK  Name = 
REMARK  8 active torsions:
REMARK  status: ('A' for Active; 'I' for Inactive)
REMARK    1  A    between atoms: C_1  and  O_2
REMARK    2  A    between atoms: O_2  and  C_3
REMARK    3  A    between atoms: C_10  and  C_11
REMARK    4  A    between atoms: N_13  and  C_14
REMARK    5  A    between atoms: C_14  and  C_15
REMARK    6  A    between atoms: C_18  and  N_19
REMARK    7  A    between atoms: N_19  and  C_20
REMARK    8  A    between atoms: C_20  and  C_21
REMARK                            x       y       z     vdW  Elec       q    Type
REMARK                         _______ _______ _______ _____ _____    ______ ____
ROOT
ATOM      1  C   UNL     1      47.517   7.430  13.272  0.00  0.00    +0.000 C 
ENDROOT
BRANCH   1   2
ATOM      2  C   UNL     1      46.764   6.231  12.732  0.00  0.00    +0.000 A 
ATOM      3  C   UNL     1      45.965   6.356  11.588  0.00  0.00    +0.000 A 
ATOM      4  C   UNL     1      45.298   5.246  11.043  0.00  0.00    +0.000 A 
ATOM      5  C   UNL     1      45.378   3.985  11.638  0.00  0.00    +0.000 A 
ATOM      6  C   UNL     1      46.126   3.876  12.815  0.00  0.00    +0.000 A 
ATOM      7  C   UNL     1      46.835   4.971  13.340  0.00  0.00    +0.000 A 
BRANCH   5   8
ATOM      8  N   UNL     1      44.790   2.841  11.120  0.00  0.00    +0.000 N 
ATOM      9  H   UNL     1      44.277   2.251  11.776  0.00  0.00    +0.000 HD
BRANCH   8  10
ATOM     10  C   UNL     1      44.241   2.823   9.769  0.00  0.00    +0.000 C 
BRANCH  10  11
ATOM     11  C   UNL     1      45.303   2.447   8.752  0.00  0.00    +0.000 A 
ATOM     12  N   UNL     1      45.710   1.145   8.672  0.00  0.00    +0.000 NA
ATOM     13  C   UNL     1      46.666   0.858   7.756  0.00  0.00    +0.000 A 
ATOM     14  C   UNL     1      47.228   1.795   6.902  0.00  0.00    +0.000 A 
ATOM     15  C   UNL     1      46.777   3.109   6.976  0.00  0.00    +0.000 A 
ATOM     16  C   UNL     1      45.800   3.434   7.905  0.00  0.00    +0.000 A 
ATOM     17  F   UNL     1      45.353   4.695   7.978  0.00  0.00    +0.000 F 
ENDBRANCH  10  11
ENDBRANCH   8  10
ENDBRANCH   5   8
ENDBRANCH   1   2
BRANCH   1  20
ATOM     18  C   UNL     1      48.793   7.050  15.372  0.00  0.00    +0.000 C 
ATOM     19  O   UNL     1      49.811   6.735  14.771  0.00  0.00    +0.000 OA
ATOM     20  N   UNL     1      47.641   7.402  14.707  0.00  0.00    +0.000 N 
ATOM     21  H   UNL     1      46.829   7.679  15.236  0.00  0.00    +0.000 HD
BRANCH  18  29
ATOM     22  C   UNL     1      48.686   4.558  17.740  0.00  0.00    +0.000 A 
ATOM     23  N   UNL     1      48.710   3.788  18.844  0.00  0.00    +0.000 NA
ATOM     24  C   UNL     1      48.739   4.399  20.032  0.00  0.00    +0.000 A 
ATOM     25  N   UNL     1      48.728   5.712  20.255  0.00  0.00    +0.000 NA
ATOM     26  C   UNL     1      48.710   6.441  19.126  0.00  0.00    +0.000 A 
ATOM     27  S   UNL     1      48.684   8.135  19.217  0.00  0.00    +0.000 S 
ATOM     28  C   UNL     1      48.695   8.279  17.520  0.00  0.00    +0.000 A 
ATOM     29  C   UNL     1      48.734   7.058  16.853  0.00  0.00    +0.000 A 
ATOM     30  C   UNL     1      48.709   5.961  17.820  0.00  0.00    +0.000 A 
BRANCH  22  32
ATOM     31  C   UNL     1      48.702   2.505  16.623  0.00  0.00    +0.000 C 
ATOM     32  O   UNL     1      48.684   3.925  16.520  0.00  0.00    +0.000 OA
ENDBRANCH  22  32
ENDBRANCH  18  29
ENDBRANCH   1  20
TORSDOF 7
ENDMDL
MODEL 3
REMARK VINA RESULT:    -8.042      1.919      2.519
REMARK INTER + INTRA:         -12.384
REMARK INTER:                 -11.345
REMARK INTRA:                  -1.039
REMARK UNBOUND:                -1.051
REMARK  Name = 
REMARK  8 active torsions:
REMARK  status: ('A' for Active; 'I' for Inactive)
REMARK    1  A    between atoms: C_1  and  O_2
REMARK    2  A    between atoms: O_2  and  C_3
REMARK    3  A    between atoms: C_10  and  C_11
REMARK    4  A    between atoms: N_13  and  C_14
REMARK    5  A    between atoms: C_14  and  C_15
REMARK    6  A    between atoms: C_18  and  N_19
REMARK    7  A    between atoms: N_19  and  C_20
REMARK    8  A    between atoms: C_20  and  C_21
REMARK                            x       y       z     vdW  Elec       q    Type
REMARK                         _______ _______ _______ _____ _____    ______ ____
ROOT
ATOM      1  C   UNL     1      45.683   7.949  12.990  0.00  0.00    +0.000 C 
ENDROOT
BRANCH   1   2
ATOM      2  C   UNL     1      45.430   6.572  12.409  0.00  0.00    +0.000 A 
ATOM      3  C   UNL     1      45.163   6.420  11.042  0.00  0.00    +0.000 A 
ATOM      4  C   UNL     1      44.975   5.149  10.474  0.00  0.00    +0.000 A 
ATOM      5  C   UNL     1      45.012   3.992  11.256  0.00  0.00    +0.000 A 
ATOM      6  C   UNL     1      45.217   4.149  12.630  0.00  0.00    +0.000 A 
ATOM      7  C   UNL     1      45.454   5.414  13.198  0.00  0.00    +0.000 A 
BRANCH   5   8
ATOM      8  N   UNL     1      44.890   2.706  10.749  0.00  0.00    +0.000 N 
ATOM      9  H   UNL     1      44.620   1.976  11.409  0.00  0.00    +0.000 HD
BRANCH   8  10
ATOM     10  C   UNL     1      44.402   2.475   9.395  0.00  0.00    +0.000 C 
BRANCH  10  11
ATOM     11  C   UNL     1      45.546   2.170   8.446  0.00  0.00    +0.000 A 
ATOM     12  N   UNL     1      46.027   0.893   8.379  0.00  0.00    +0.000 NA
ATOM     13  C   UNL     1      47.054   0.668   7.525  0.00  0.00    +0.000 A 
ATOM     14  C   UNL     1      47.620   1.645   6.719  0.00  0.00    +0.000 A 
ATOM     15  C   UNL     1      47.096   2.932   6.776  0.00  0.00    +0.000 A 
ATOM     16  C   UNL     1      46.044   3.192   7.643  0.00  0.00    +0.000 A 
ATOM     17  F   UNL     1      45.526   4.427   7.699  0.00  0.00    +0.000 F 
ENDBRANCH  10  11
ENDBRANCH   8  10
ENDBRANCH   5   8
ENDBRANCH   1   2
BRANCH   1  20
ATOM     18  C   UNL     1      48.138   8.019  13.377  0.00  0.00    +0.000 C 
ATOM     19  O   UNL     1      48.390   8.032  12.179  0.00  0.00    +0.000 OA
ATOM     20  N   UNL     1      46.844   7.981  13.843  0.00  0.00    +0.000 N 
ATOM     21  H   UNL     1      46.675   7.996  14.836  0.00  0.00    +0.000 HD
BRANCH  18  29
ATOM     22  C   UNL     1      49.055   5.815  15.854  0.00  0.00    +0.000 A 
ATOM     23  N   UNL     1      49.650   5.102  16.828  0.00  0.00    +0.000 NA
ATOM     24  C   UNL     1      50.747   5.612  17.396  0.00  0.00    +0.000 A 
ATOM     25  N   UNL     1      51.322   6.780  17.115  0.00  0.00    +0.000 NA
ATOM     26  C   UNL     1      50.699   7.454  16.132  0.00  0.00    +0.000 A 
ATOM     27  S   UNL     1      51.287   8.969  15.647  0.00  0.00    +0.000 S 
ATOM     28  C   UNL     1      50.073   9.120  14.462  0.00  0.00    +0.000 A 
ATOM     29  C   UNL     1      49.212   8.029  14.399  0.00  0.00    +0.000 A 
ATOM     30  C   UNL     1      49.572   7.050  15.424  0.00  0.00    +0.000 A 
BRANCH  22  32
ATOM     31  C   UNL     1      47.273   4.319  16.071  0.00  0.00    +0.000 C 
ATOM     32  O   UNL     1      47.943   5.274  15.254  0.00  0.00    +0.000 OA
ENDBRANCH  22  32
ENDBRANCH  18  29
ENDBRANCH   1  20
TORSDOF 7
ENDMDL
MODEL 4
REMARK VINA RESULT:    -7.988      1.901      3.475
REMARK INTER + INTRA:         -12.308
REMARK INTER:                 -11.075
REMARK INTRA:                  -1.233
REMARK UNBOUND:                -1.051
REMARK  Name = 
REMARK  8 active torsions:
REMARK  status: ('A' for Active; 'I' for Inactive)
REMARK    1  A    between atoms: C_1  and  O_2
REMARK    2  A    between atoms: O_2  and  C_3
REMARK    3  A    between atoms: C_10  and  C_11
REMARK    4  A    between atoms: N_13  and  C_14
REMARK    5  A    between atoms: C_14  and  C_15
REMARK    6  A    between atoms: C_18  and  N_19
REMARK    7  A    between atoms: N_19  and  C_20
REMARK    8  A    between atoms: C_20  and  C_21
REMARK                            x       y       z     vdW  Elec       q    Type
REMARK                         _______ _______ _______ _____ _____    ______ ____
ROOT
ATOM      1  C   UNL     1      46.738   4.385  14.885  0.00  0.00    +0.000 C 
ENDROOT
BRANCH   1   2
ATOM      2  C   UNL     1      46.233   4.611  13.475  0.00  0.00    +0.000 A 
ATOM      3  C   UNL     1      46.405   5.855  12.853  0.00  0.00    +0.000 A 
ATOM      4  C   UNL     1      45.989   6.069  11.529  0.00  0.00    +0.000 A 
ATOM      5  C   UNL     1      45.356   5.064  10.793  0.00  0.00    +0.000 A 
ATOM      6  C   UNL     1      45.128   3.843  11.436  0.00  0.00    +0.000 A 
ATOM      7  C   UNL     1      45.585   3.605  12.745  0.00  0.00    +0.000 A 
BRANCH   5   8
ATOM      8  N   UNL     1      44.972   5.194   9.467  0.00  0.00    +0.000 N 
ATOM      9  H   UNL     1      45.507   5.849   8.896  0.00  0.00    +0.000 HD
BRANCH   8  10
ATOM     10  C   UNL     1      44.459   4.053   8.717  0.00  0.00    +0.000 C 
BRANCH  10  11
ATOM     11  C   UNL     1      45.589   3.254   8.095  0.00  0.00    +0.000 A 
ATOM     12  N   UNL     1      46.509   3.904   7.322  0.00  0.00    +0.000 NA
ATOM     13  C   UNL     1      47.496   3.150   6.779  0.00  0.00    +0.000 A 
ATOM     14  C   UNL     1      47.625   1.783   6.980  0.00  0.00    +0.000 A 
ATOM     15  C   UNL     1      46.698   1.145   7.797  0.00  0.00    +0.000 A 
ATOM     16  C   UNL     1      45.676   1.892   8.365  0.00  0.00    +0.000 A 
ATOM     17  F   UNL     1      44.783   1.288   9.161  0.00  0.00    +0.000 F 
ENDBRANCH  10  11
ENDBRANCH   8  10
ENDBRANCH   5   8
ENDBRANCH   1   2
BRANCH   1  20
ATOM     18  C   UNL     1      48.533   5.358  16.306  0.00  0.00    +0.000 C 
ATOM     19  O   UNL     1      48.815   4.274  16.801  0.00  0.00    +0.000 OA
ATOM     20  N   UNL     1      47.535   5.485  15.366  0.00  0.00    +0.000 N 
ATOM     21  H   UNL     1      47.348   6.389  14.963  0.00  0.00    +0.000 HD
BRANCH  18  29
ATOM     22  C   UNL     1      50.078   7.855  14.515  0.00  0.00    +0.000 A 
ATOM     23  N   UNL     1      50.669   8.973  14.055  0.00  0.00    +0.000 NA
ATOM     24  C   UNL     1      51.070   9.881  14.949  0.00  0.00    +0.000 A 
ATOM     25  N   UNL     1      50.966   9.798  16.274  0.00  0.00    +0.000 NA
ATOM     26  C   UNL     1      50.364   8.669  16.688  0.00  0.00    +0.000 A 
ATOM     27  S   UNL     1      50.154   8.387  18.347  0.00  0.00    +0.000 S 
ATOM     28  C   UNL     1      49.370   6.904  18.049  0.00  0.00    +0.000 A 
ATOM     29  C   UNL     1      49.238   6.601  16.698  0.00  0.00    +0.000 A 
ATOM     30  C   UNL     1      49.865   7.646  15.889  0.00  0.00    +0.000 A 
BRANCH  22  32
ATOM     31  C   UNL     1      49.613   7.446  12.261  0.00  0.00    +0.000 C 
ATOM     32  O   UNL     1      49.642   6.935  13.591  0.00  0.00    +0.000 OA
ENDBRANCH  22  32
ENDBRANCH  18  29
ENDBRANCH   1  20
TORSDOF 7
ENDMDL
MODEL 5
REMARK VINA RESULT:    -7.777      2.495      3.335
REMARK INTER + INTRA:         -12.010
REMARK INTER:                 -11.143
REMARK INTRA:                  -0.867
REMARK UNBOUND:                -1.051
REMARK  Name = 
REMARK  8 active torsions:
REMARK  status: ('A' for Active; 'I' for Inactive)
REMARK    1  A    between atoms: C_1  and  O_2
REMARK    2  A    between atoms: O_2  and  C_3
REMARK    3  A    between atoms: C_10  and  C_11
REMARK    4  A    between atoms: N_13  and  C_14
REMARK    5  A    between atoms: C_14  and  C_15
REMARK    6  A    between atoms: C_18  and  N_19
REMARK    7  A    between atoms: N_19  and  C_20
REMARK    8  A    between atoms: C_20  and  C_21
REMARK                            x       y       z     vdW  Elec       q    Type
REMARK                         _______ _______ _______ _____ _____    ______ ____
ROOT
ATOM      1  C   UNL     1      47.150   4.276  14.796  0.00  0.00    +0.000 C 
ENDROOT
BRANCH   1   2
ATOM      2  C   UNL     1      46.528   4.563  13.445  0.00  0.00    +0.000 A 
ATOM      3  C   UNL     1      46.786   5.776  12.791  0.00  0.00    +0.000 A 
ATOM      4  C   UNL     1      46.260   6.041  11.516  0.00  0.00    +0.000 A 
ATOM      5  C   UNL     1      45.433   5.122  10.865  0.00  0.00    +0.000 A 
ATOM      6  C   UNL     1      45.126   3.939  11.545  0.00  0.00    +0.000 A 
ATOM      7  C   UNL     1      45.687   3.646  12.801  0.00  0.00    +0.000 A 
BRANCH   5   8
ATOM      8  N   UNL     1      44.928   5.299   9.586  0.00  0.00    +0.000 N 
ATOM      9  H   UNL     1      45.380   6.008   9.008  0.00  0.00    +0.000 HD
BRANCH   8  10
ATOM     10  C   UNL     1      44.404   4.173   8.822  0.00  0.00    +0.000 C 
BRANCH  10  11
ATOM     11  C   UNL     1      45.526   3.377   8.182  0.00  0.00    +0.000 A 
ATOM     12  N   UNL     1      46.459   4.035   7.432  0.00  0.00    +0.000 NA
ATOM     13  C   UNL     1      47.438   3.283   6.873  0.00  0.00    +0.000 A 
ATOM     14  C   UNL     1      47.547   1.910   7.034  0.00  0.00    +0.000 A 
ATOM     15  C   UNL     1      46.607   1.261   7.828  0.00  0.00    +0.000 A 
ATOM     16  C   UNL     1      45.592   2.006   8.412  0.00  0.00    +0.000 A 
ATOM     17  F   UNL     1      44.686   1.392   9.186  0.00  0.00    +0.000 F 
ENDBRANCH  10  11
ENDBRANCH   8  10
ENDBRANCH   5   8
ENDBRANCH   1   2
BRANCH   1  20
ATOM     18  C   UNL     1      48.524   5.565  16.420  0.00  0.00    +0.000 C 
ATOM     19  O   UNL     1      49.229   4.599  16.685  0.00  0.00    +0.000 OA
ATOM     20  N   UNL     1      47.496   5.480  15.509  0.00  0.00    +0.000 N 
ATOM     21  H   UNL     1      46.953   6.302  15.298  0.00  0.00    +0.000 HD
BRANCH  18  29
ATOM     22  C   UNL     1      48.364   6.620  19.689  0.00  0.00    +0.000 A 
ATOM     23  N   UNL     1      48.435   7.260  20.872  0.00  0.00    +0.000 NA
ATOM     24  C   UNL     1      48.784   8.549  20.866  0.00  0.00    +0.000 A 
ATOM     25  N   UNL     1      49.058   9.297  19.799  0.00  0.00    +0.000 NA
ATOM     26  C   UNL     1      48.982   8.618  18.642  0.00  0.00    +0.000 A 
ATOM     27  S   UNL     1      49.291   9.413  17.176  0.00  0.00    +0.000 S 
ATOM     28  C   UNL     1      49.034   7.985  16.285  0.00  0.00    +0.000 A 
ATOM     29  C   UNL     1      48.726   6.880  17.073  0.00  0.00    +0.000 A 
ATOM     30  C   UNL     1      48.664   7.273  18.480  0.00  0.00    +0.000 A 
BRANCH  22  32
ATOM     31  C   UNL     1      48.741   4.540  20.684  0.00  0.00    +0.000 C 
ATOM     32  O   UNL     1      48.031   5.287  19.701  0.00  0.00    +0.000 OA
ENDBRANCH  22  32
ENDBRANCH  18  29
ENDBRANCH   1  20
TORSDOF 7
ENDMDL
MODEL 6
REMARK VINA RESULT:    -7.683      2.323      3.322
REMARK INTER + INTRA:         -11.877
REMARK INTER:                 -10.976
REMARK INTRA:                  -0.901
REMARK UNBOUND:                -1.051
REMARK  Name = 
REMARK  8 active torsions:
REMARK  status: ('A' for Active; 'I' for Inactive)
REMARK    1  A    between atoms: C_1  and  O_2
REMARK    2  A    between atoms: O_2  and  C_3
REMARK    3  A    between atoms: C_10  and  C_11
REMARK    4  A    between atoms: N_13  and  C_14
REMARK    5  A    between atoms: C_14  and  C_15
REMARK    6  A    between atoms: C_18  and  N_19
REMARK    7  A    between atoms: N_19  and  C_20
REMARK    8  A    between atoms: C_20  and  C_21
REMARK                            x       y       z     vdW  Elec       q    Type
REMARK                         _______ _______ _______ _____ _____    ______ ____
ROOT
ATOM      1  C   UNL     1      46.680   4.449  14.902  0.00  0.00    +0.000 C 
ENDROOT
BRANCH   1   2
ATOM      2  C   UNL     1      46.243   4.704  13.474  0.00  0.00    +0.000 A 
ATOM      3  C   UNL     1      46.655   5.866  12.806  0.00  0.00    +0.000 A 
ATOM      4  C   UNL     1      46.303   6.097  11.466  0.00  0.00    +0.000 A 
ATOM      5  C   UNL     1      45.501   5.197  10.759  0.00  0.00    +0.000 A 
ATOM      6  C   UNL     1      45.040   4.070  11.446  0.00  0.00    +0.000 A 
ATOM      7  C   UNL     1      45.427   3.807  12.772  0.00  0.00    +0.000 A 
BRANCH   5   8
ATOM      8  N   UNL     1      45.165   5.340   9.421  0.00  0.00    +0.000 N 
ATOM      9  H   UNL     1      45.767   5.941   8.858  0.00  0.00    +0.000 HD
BRANCH   8  10
ATOM     10  C   UNL     1      44.580   4.234   8.671  0.00  0.00    +0.000 C 
BRANCH  10  11
ATOM     11  C   UNL     1      45.658   3.346   8.077  0.00  0.00    +0.000 A 
ATOM     12  N   UNL     1      46.633   3.916   7.307  0.00  0.00    +0.000 NA
ATOM     13  C   UNL     1      47.569   3.084   6.790  0.00  0.00    +0.000 A 
ATOM     14  C   UNL     1      47.597   1.715   7.012  0.00  0.00    +0.000 A 
ATOM     15  C   UNL     1      46.616   1.158   7.825  0.00  0.00    +0.000 A 
ATOM     16  C   UNL     1      45.643   1.985   8.367  0.00  0.00    +0.000 A 
ATOM     17  F   UNL     1      44.698   1.460   9.158  0.00  0.00    +0.000 F 
ENDBRANCH  10  11
ENDBRANCH   8  10
ENDBRANCH   5   8
ENDBRANCH   1   2
BRANCH   1  20
ATOM     18  C   UNL     1      48.269   5.359  16.586  0.00  0.00    +0.000 C 
ATOM     19  O   UNL     1      47.802   4.674  17.487  0.00  0.00    +0.000 OA
ATOM     20  N   UNL     1      47.773   5.298  15.303  0.00  0.00    +0.000 N 
ATOM     21  H   UNL     1      48.198   5.858  14.582  0.00  0.00    +0.000 HD
BRANCH  18  29
ATOM     22  C   UNL     1      51.600   4.931  17.326  0.00  0.00    +0.000 A 
ATOM     23  N   UNL     1      52.924   5.033  17.543  0.00  0.00    +0.000 NA
ATOM     24  C   UNL     1      53.461   6.256  17.574  0.00  0.00    +0.000 A 
ATOM     25  N   UNL     1      52.819   7.413  17.429  0.00  0.00    +0.000 NA
ATOM     26  C   UNL     1      51.501   7.264  17.207  0.00  0.00    +0.000 A 
ATOM     27  S   UNL     1      50.520   8.633  17.008  0.00  0.00    +0.000 S 
ATOM     28  C   UNL     1      49.134   7.671  16.771  0.00  0.00    +0.000 A 
ATOM     29  C   UNL     1      49.385   6.303  16.822  0.00  0.00    +0.000 A 
ATOM     30  C   UNL     1      50.799   6.067  17.117  0.00  0.00    +0.000 A 
BRANCH  22  32
ATOM     31  C   UNL     1      51.962   2.649  17.676  0.00  0.00    +0.000 C 
ATOM     32  O   UNL     1      51.057   3.670  17.268  0.00  0.00    +0.000 OA
ENDBRANCH  22  32
ENDBRANCH  18  29
ENDBRANCH   1  20
TORSDOF 7
ENDMDL
MODEL 7
REMARK VINA RESULT:    -7.020      1.769      2.469
REMARK INTER + INTRA:         -10.943
REMARK INTER:                  -9.705
REMARK INTRA:                  -1.238
REMARK UNBOUND:                -1.051
REMARK  Name = 
REMARK  8 active torsions:
REMARK  status: ('A' for Active; 'I' for Inactive)
REMARK    1  A    between atoms: C_1  and  O_2
REMARK    2  A    between atoms: O_2  and  C_3
REMARK    3  A    between atoms: C_10  and  C_11
REMARK    4  A    between atoms: N_13  and  C_14
REMARK    5  A    between atoms: C_14  and  C_15
REMARK    6  A    between atoms: C_18  and  N_19
REMARK    7  A    between atoms: N_19  and  C_20
REMARK    8  A    between atoms: C_20  and  C_21
REMARK                            x       y       z     vdW  Elec       q    Type
REMARK                         _______ _______ _______ _____ _____    ______ ____
ROOT
ATOM      1  C   UNL     1      48.907   7.147  13.691  0.00  0.00    +0.000 C 
ENDROOT
BRANCH   1   2
ATOM      2  C   UNL     1      47.597   6.572  13.194  0.00  0.00    +0.000 A 
ATOM      3  C   UNL     1      47.361   5.192  13.261  0.00  0.00    +0.000 A 
ATOM      4  C   UNL     1      46.134   4.643  12.852  0.00  0.00    +0.000 A 
ATOM      5  C   UNL     1      45.117   5.446  12.330  0.00  0.00    +0.000 A 
ATOM      6  C   UNL     1      45.377   6.815  12.205  0.00  0.00    +0.000 A 
ATOM      7  C   UNL     1      46.584   7.377  12.657  0.00  0.00    +0.000 A 
BRANCH   5   8
ATOM      8  N   UNL     1      43.866   4.975  11.961  0.00  0.00    +0.000 N 
ATOM      9  H   UNL     1      43.109   5.107  12.632  0.00  0.00    +0.000 HD
BRANCH   8  10
ATOM     10  C   UNL     1      43.425   5.021  10.571  0.00  0.00    +0.000 C 
BRANCH  10  11
ATOM     11  C   UNL     1      44.293   4.139   9.693  0.00  0.00    +0.000 A 
ATOM     12  N   UNL     1      45.079   4.723   8.741  0.00  0.00    +0.000 NA
ATOM     13  C   UNL     1      45.830   3.896   7.974  0.00  0.00    +0.000 A 
ATOM     14  C   UNL     1      45.853   2.517   8.115  0.00  0.00    +0.000 A 
ATOM     15  C   UNL     1      45.071   1.942   9.111  0.00  0.00    +0.000 A 
ATOM     16  C   UNL     1      44.291   2.764   9.911  0.00  0.00    +0.000 A 
ATOM     17  F   UNL     1      43.540   2.221  10.879  0.00  0.00    +0.000 F 
ENDBRANCH  10  11
ENDBRANCH   8  10
ENDBRANCH   5   8
ENDBRANCH   1   2
BRANCH   1  20
ATOM     18  C   UNL     1      50.229   7.219  15.796  0.00  0.00    +0.000 C 
ATOM     19  O   UNL     1      51.274   7.461  15.206  0.00  0.00    +0.000 OA
ATOM     20  N   UNL     1      49.040   7.057  15.123  0.00  0.00    +0.000 N 
ATOM     21  H   UNL     1      48.196   6.883  15.644  0.00  0.00    +0.000 HD
BRANCH  18  29
ATOM     22  C   UNL     1      48.914   4.826  17.887  0.00  0.00    +0.000 A 
ATOM     23  N   UNL     1      48.558   4.013  18.899  0.00  0.00    +0.000 NA
ATOM     24  C   UNL     1      48.884   4.381  20.141  0.00  0.00    +0.000 A 
ATOM     25  N   UNL     1      49.519   5.494  20.503  0.00  0.00    +0.000 NA
ATOM     26  C   UNL     1      49.861   6.272  19.461  0.00  0.00    +0.000 A 
ATOM     27  S   UNL     1      50.670   7.737  19.734  0.00  0.00    +0.000 S 
ATOM     28  C   UNL     1      50.749   8.066  18.065  0.00  0.00    +0.000 A 
ATOM     29  C   UNL     1      50.183   7.073  17.270  0.00  0.00    +0.000 A 
ATOM     30  C   UNL     1      49.623   6.018  18.115  0.00  0.00    +0.000 A 
BRANCH  22  32
ATOM     31  C   UNL     1      47.717   3.313  16.567  0.00  0.00    +0.000 C 
ATOM     32  O   UNL     1      48.600   4.430  16.608  0.00  0.00    +0.000 OA
ENDBRANCH  22  32
ENDBRANCH  18  29
ENDBRANCH   1  20
TORSDOF 7
ENDMDL
MODEL 8
REMARK VINA RESULT:    -7.012      4.602      9.083
REMARK INTER + INTRA:         -10.932
REMARK INTER:                 -10.208
REMARK INTRA:                  -0.724
REMARK UNBOUND:                -1.051
REMARK  Name = 
REMARK  8 active torsions:
REMARK  status: ('A' for Active; 'I' for Inactive)
REMARK    1  A    between atoms: C_1  and  O_2
REMARK    2  A    between atoms: O_2  and  C_3
REMARK    3  A    between atoms: C_10  and  C_11
REMARK    4  A    between atoms: N_13  and  C_14
REMARK    5  A    between atoms: C_14  and  C_15
REMARK    6  A    between atoms: C_18  and  N_19
REMARK    7  A    between atoms: N_19  and  C_20
REMARK    8  A    between atoms: C_20  and  C_21
REMARK                            x       y       z     vdW  Elec       q    Type
REMARK                         _______ _______ _______ _____ _____    ______ ____
ROOT
ATOM      1  C   UNL     1      47.193   3.456  16.859  0.00  0.00    +0.000 C 
ENDROOT
BRANCH   1   2
ATOM      2  C   UNL     1      48.666   3.498  17.211  0.00  0.00    +0.000 A 
ATOM      3  C   UNL     1      49.467   2.361  17.036  0.00  0.00    +0.000 A 
ATOM      4  C   UNL     1      50.844   2.393  17.310  0.00  0.00    +0.000 A 
ATOM      5  C   UNL     1      51.462   3.547  17.798  0.00  0.00    +0.000 A 
ATOM      6  C   UNL     1      50.650   4.662  18.032  0.00  0.00    +0.000 A 
ATOM      7  C   UNL     1      49.280   4.652  17.716  0.00  0.00    +0.000 A 
BRANCH   5   8
ATOM      8  N   UNL     1      52.824   3.660  18.035  0.00  0.00    +0.000 N 
ATOM      9  H   UNL     1      53.216   4.603  18.020  0.00  0.00    +0.000 HD
BRANCH   8  10
ATOM     10  C   UNL     1      53.503   2.762  18.962  0.00  0.00    +0.000 C 
BRANCH  10  11
ATOM     11  C   UNL     1      54.041   1.539  18.243  0.00  0.00    +0.000 A 
ATOM     12  N   UNL     1      53.616   0.301  18.636  0.00  0.00    +0.000 NA
ATOM     13  C   UNL     1      54.129  -0.762  17.972  0.00  0.00    +0.000 A 
ATOM     14  C   UNL     1      55.032  -0.659  16.924  0.00  0.00    +0.000 A 
ATOM     15  C   UNL     1      55.429   0.610  16.516  0.00  0.00    +0.000 A 
ATOM     16  C   UNL     1      54.921   1.718  17.179  0.00  0.00    +0.000 A 
ATOM     17  F   UNL     1      55.290   2.945  16.788  0.00  0.00    +0.000 F 
ENDBRANCH  10  11
ENDBRANCH   8  10
ENDBRANCH   5   8
ENDBRANCH   1   2
BRANCH   1  20
ATOM     18  C   UNL     1      46.904   4.194  14.502  0.00  0.00    +0.000 C 
ATOM     19  O   UNL     1      47.271   3.116  14.054  0.00  0.00    +0.000 OA
ATOM     20  N   UNL     1      46.839   4.429  15.857  0.00  0.00    +0.000 N 
ATOM     21  H   UNL     1      46.509   5.320  16.189  0.00  0.00    +0.000 HD
BRANCH  18  29
ATOM     22  C   UNL     1      44.064   4.906  12.698  0.00  0.00    +0.000 A 
ATOM     23  N   UNL     1      43.062   5.441  11.975  0.00  0.00    +0.000 NA
ATOM     24  C   UNL     1      43.264   6.637  11.416  0.00  0.00    +0.000 A 
ATOM     25  N   UNL     1      44.375   7.369  11.476  0.00  0.00    +0.000 NA
ATOM     26  C   UNL     1      45.345   6.800  12.212  0.00  0.00    +0.000 A 
ATOM     27  S   UNL     1      46.837   7.587  12.392  0.00  0.00    +0.000 S 
ATOM     28  C   UNL     1      47.435   6.340  13.387  0.00  0.00    +0.000 A 
ATOM     29  C   UNL     1      46.520   5.317  13.614  0.00  0.00    +0.000 A 
ATOM     30  C   UNL     1      45.282   5.582  12.881  0.00  0.00    +0.000 A 
BRANCH  22  32
ATOM     31  C   UNL     1      43.585   2.643  12.361  0.00  0.00    +0.000 C 
ATOM     32  O   UNL     1      43.842   3.688  13.295  0.00  0.00    +0.000 OA
ENDBRANCH  22  32
ENDBRANCH  18  29
ENDBRANCH   1  20
TORSDOF 7
ENDMDL
MODEL 9
REMARK VINA RESULT:    -6.401      2.440      3.257
REMARK INTER + INTRA:         -10.071
REMARK INTER:                  -8.833
REMARK INTRA:                  -1.238
REMARK UNBOUND:                -1.051
REMARK  Name = 
REMARK  8 active torsions:
REMARK  status: ('A' for Active; 'I' for Inactive)
REMARK    1  A    between atoms: C_1  and  O_2
REMARK    2  A    between atoms: O_2  and  C_3
REMARK    3  A    between atoms: C_10  and  C_11
REMARK    4  A    between atoms: N_13  and  C_14
REMARK    5  A    between atoms: C_14  and  C_15
REMARK    6  A    between atoms: C_18  and  N_19
REMARK    7  A    between atoms: N_19  and  C_20
REMARK    8  A    between atoms: C_20  and  C_21
REMARK                            x       y       z     vdW  Elec       q    Type
REMARK                         _______ _______ _______ _____ _____    ______ ____
ROOT
ATOM      1  C   UNL     1      48.051   9.674  12.501  0.00  0.00    +0.000 C 
ENDROOT
BRANCH   1   2
ATOM      2  C   UNL     1      47.123   8.523  12.170  0.00  0.00    +0.000 A 
ATOM      3  C   UNL     1      47.646   7.259  11.863  0.00  0.00    +0.000 A 
ATOM      4  C   UNL     1      46.803   6.167  11.601  0.00  0.00    +0.000 A 
ATOM      5  C   UNL     1      45.412   6.305  11.603  0.00  0.00    +0.000 A 
ATOM      6  C   UNL     1      44.893   7.580  11.849  0.00  0.00    +0.000 A 
ATOM      7  C   UNL     1      45.729   8.667  12.158  0.00  0.00    +0.000 A 
BRANCH   5   8
ATOM      8  N   UNL     1      44.526   5.256  11.408  0.00  0.00    +0.000 N 
ATOM      9  H   UNL     1      43.913   5.022  12.190  0.00  0.00    +0.000 HD
BRANCH   8  10
ATOM     10  C   UNL     1      43.922   5.015  10.103  0.00  0.00    +0.000 C 
BRANCH  10  11
ATOM     11  C   UNL     1      44.784   4.091   9.263  0.00  0.00    +0.000 A 
ATOM     12  N   UNL     1      45.627   4.635   8.336  0.00  0.00    +0.000 NA
ATOM     13  C   UNL     1      46.372   3.773   7.603  0.00  0.00    +0.000 A 
ATOM     14  C   UNL     1      46.335   2.394   7.756  0.00  0.00    +0.000 A 
ATOM     15  C   UNL     1      45.495   1.860   8.727  0.00  0.00    +0.000 A 
ATOM     16  C   UNL     1      44.720   2.720   9.492  0.00  0.00    +0.000 A 
ATOM     17  F   UNL     1      43.914   2.215  10.437  0.00  0.00    +0.000 F 
ENDBRANCH  10  11
ENDBRANCH   8  10
ENDBRANCH   5   8
ENDBRANCH   1   2
BRANCH   1  20
ATOM     18  C   UNL     1      50.410   8.985  12.879  0.00  0.00    +0.000 C 
ATOM     19  O   UNL     1      50.688   9.061  11.689  0.00  0.00    +0.000 OA
ATOM     20  N   UNL     1      49.147   9.271  13.345  0.00  0.00    +0.000 N 
ATOM     21  H   UNL     1      48.962   9.221  14.334  0.00  0.00    +0.000 HD
BRANCH  18  29
ATOM     22  C   UNL     1      50.288   6.859  15.580  0.00  0.00    +0.000 A 
ATOM     23  N   UNL     1      50.520   6.042  16.625  0.00  0.00    +0.000 NA
ATOM     24  C   UNL     1      51.757   6.004  17.127  0.00  0.00    +0.000 A 
ATOM     25  N   UNL     1      52.808   6.711  16.715  0.00  0.00    +0.000 NA
ATOM     26  C   UNL     1      52.533   7.507  15.667  0.00  0.00    +0.000 A 
ATOM     27  S   UNL     1      53.752   8.490  15.014  0.00  0.00    +0.000 S 
ATOM     28  C   UNL     1      52.695   9.101  13.826  0.00  0.00    +0.000 A 
ATOM     29  C   UNL     1      51.411   8.567  13.888  0.00  0.00    +0.000 A 
ATOM     30  C   UNL     1      51.312   7.638  15.014  0.00  0.00    +0.000 A 
BRANCH  22  32
ATOM     31  C   UNL     1      48.234   5.752  15.439  0.00  0.00    +0.000 C 
ATOM     32  O   UNL     1      49.020   6.875  15.049  0.00  0.00    +0.000 OA
ENDBRANCH  22  32
ENDBRANCH  18  29
ENDBRANCH   1  20
TORSDOF 7
ENDMDL
