MODEL 1
REMARK VINA RESULT:    -8.135      0.000      0.000
REMARK INTER + INTRA:         -14.357
REMARK INTER:                 -13.128
REMARK INTRA:                  -1.229
REMARK UNBOUND:                -1.229
REMARK  Name = 
REMARK  11 active torsions:
REMARK  status: ('A' for Active; 'I' for Inactive)
REMARK    1  A    between atoms: N_1  and  C_2
REMARK    2  A    between atoms: C_2  and  C_3
REMARK    3  A    between atoms: C_3  and  C_4
REMARK    4  A    between atoms: C_4  and  N_5
REMARK    5  A    between atoms: N_5  and  C_6
REMARK    6  A    between atoms: N_5  and  C_27
REMARK    7  A    between atoms: C_6  and  C_7
REMARK    8  A    between atoms: C_10  and  C_11
REMARK    9  A    between atoms: C_11  and  N_12
REMARK   10  A    between atoms: C_13  and  C_15
REMARK   11  A    between atoms: C_27  and  C_28
REMARK                            x       y       z     vdW  Elec       q    Type
REMARK                         _______ _______ _______ _____ _____    ______ ____
ROOT
ATOM      1  C   UNL     1      46.070   3.959  12.596  0.00  0.00    +0.000 A 
ATOM      2  C   UNL     1      46.330   5.319  12.372  0.00  0.00    +0.000 A 
ATOM      3  C   UNL     1      47.060   6.073  13.300  0.00  0.00    +0.000 A 
ATOM      4  C   UNL     1      47.569   5.479  14.461  0.00  0.00    +0.000 A 
ATOM      5  C   UNL     1      47.396   4.101  14.638  0.00  0.00    +0.000 A 
ATOM      6  C   UNL     1      46.659   3.349  13.713  0.00  0.00    +0.000 A 
ENDROOT
BRANCH   1   7
ATOM      7  C   UNL     1      45.029   3.235  11.758  0.00  0.00    +0.000 C 
BRANCH   7   8
ATOM      8  N   UNL     1      44.830   3.612  10.353  0.00  0.00    +0.000 NA
BRANCH   8   9
ATOM      9  C   UNL     1      43.821   4.660  10.117  0.00  0.00    +0.000 C 
BRANCH   9  10
ATOM     10  C   UNL     1      42.709   4.651  11.180  0.00  0.00    +0.000 C 
BRANCH  10  11
ATOM     11  C   UNL     1      42.646   5.948  11.983  0.00  0.00    +0.000 C 
BRANCH  11  12
ATOM     12  N   UNL     1      42.825   5.638  13.401  0.00  0.00    +0.000 NA
ATOM     13  H   UNL     1      41.921   5.625  13.869  0.00  0.00    +0.000 HD
ATOM     14  H   UNL     1      43.372   6.374  13.847  0.00  0.00    +0.000 HD
ENDBRANCH  11  12
ENDBRANCH  10  11
ENDBRANCH   9  10
ENDBRANCH   8   9
BRANCH   8  15
ATOM     15  C   UNL     1      44.650   2.429   9.489  0.00  0.00    +0.000 C 
BRANCH  15  16
ATOM     16  C   UNL     1      45.685   2.302   8.379  0.00  0.00    +0.000 A 
ATOM     17  C   UNL     1      45.941   3.370   7.515  0.00  0.00    +0.000 A 
ATOM     18  C   UNL     1      46.825   3.180   6.456  0.00  0.00    +0.000 A 
ATOM     19  C   UNL     1      47.435   1.943   6.292  0.00  0.00    +0.000 A 
ATOM     20  C   UNL     1      47.151   0.946   7.208  0.00  0.00    +0.000 A 
ATOM     21  N   UNL     1      46.291   1.096   8.239  0.00  0.00    +0.000 NA
ENDBRANCH  15  16
ENDBRANCH   8  15
ENDBRANCH   7   8
ENDBRANCH   1   7
BRANCH   4  22
ATOM     22  C   UNL     1      48.228   6.314  15.531  0.00  0.00    +0.000 C 
BRANCH  22  23
ATOM     23  N   UNL     1      49.428   5.688  16.049  0.00  0.00    +0.000 N 
ATOM     24  C   UNL     1      49.443   5.165  17.320  0.00  0.00    +0.000 C 
ATOM     25  O   UNL     1      48.437   5.174  18.029  0.00  0.00    +0.000 OA
ATOM     26  H   UNL     1      50.306   5.874  15.572  0.00  0.00    +0.000 HD
BRANCH  24  27
ATOM     27  C   UNL     1      50.686   4.530  17.786  0.00  0.00    +0.000 A 
ATOM     28  C   UNL     1      51.633   5.302  18.447  0.00  0.00    +0.000 A 
ATOM     29  S   UNL     1      52.998   4.425  18.969  0.00  0.00    +0.000 S 
ATOM     30  C   UNL     1      52.398   2.987  18.286  0.00  0.00    +0.000 A 
ATOM     31  N   UNL     1      53.112   1.833  18.363  0.00  0.00    +0.000 NA
ATOM     32  C   UNL     1      52.565   0.829  17.766  0.00  0.00    +0.000 A 
ATOM     33  N   UNL     1      51.363   0.872  17.106  0.00  0.00    +0.000 N 
ATOM     34  C   UNL     1      50.590   2.011  17.031  0.00  0.00    +0.000 A 
ATOM     35  O   UNL     1      49.502   2.012  16.469  0.00  0.00    +0.000 OA
ATOM     36  C   UNL     1      51.168   3.175  17.679  0.00  0.00    +0.000 A 
ATOM     37  H   UNL     1      50.987   0.046  16.667  0.00  0.00    +0.000 HD
ENDBRANCH  24  27
ENDBRANCH  22  23
ENDBRANCH   4  22
TORSDOF 11
ENDMDL
MODEL 2
REMARK VINA RESULT:    -7.306      3.529      4.290
REMARK INTER + INTRA:         -13.019
REMARK INTER:                 -11.183
REMARK INTRA:                  -1.836
REMARK UNBOUND:                -1.229
REMARK  Name = 
REMARK  11 active torsions:
REMARK  status: ('A' for Active; 'I' for Inactive)
REMARK    1  A    between atoms: N_1  and  C_2
REMARK    2  A    between atoms: C_2  and  C_3
REMARK    3  A    between atoms: C_3  and  C_4
REMARK    4  A    between atoms: C_4  and  N_5
REMARK    5  A    between atoms: N_5  and  C_6
REMARK    6  A    between atoms: N_5  and  C_27
REMARK    7  A    between atoms: C_6  and  C_7
REMARK    8  A    between atoms: C_10  and  C_11
REMARK    9  A    between atoms: C_11  and  N_12
REMARK   10  A    between atoms: C_13  and  C_15
REMARK   11  A    between atoms: C_27  and  C_28
REMARK                            x       y       z     vdW  Elec       q    Type
REMARK                         _______ _______ _______ _____ _____    ______ ____
ROOT
ATOM      1  C   UNL     1      46.216   4.390  12.594  0.00  0.00    +0.000 A 
ATOM      2  C   UNL     1      46.312   5.521  11.771  0.00  0.00    +0.000 A 
ATOM      3  C   UNL     1      46.960   6.681  12.216  0.00  0.00    +0.000 A 
ATOM      4  C   UNL     1      47.551   6.727  13.484  0.00  0.00    +0.000 A 
ATOM      5  C   UNL     1      47.543   5.567  14.267  0.00  0.00    +0.000 A 
ATOM      6  C   UNL     1      46.888   4.409  13.824  0.00  0.00    +0.000 A 
ENDROOT
BRANCH   1   7
ATOM      7  C   UNL     1      45.257   3.267  12.236  0.00  0.00    +0.000 C 
BRANCH   7   8
ATOM      8  N   UNL     1      44.230   3.482  11.208  0.00  0.00    +0.000 NA
BRANCH   8   9
ATOM      9  C   UNL     1      42.882   3.789  11.717  0.00  0.00    +0.000 C 
BRANCH   9  10
ATOM     10  C   UNL     1      42.886   4.962  12.714  0.00  0.00    +0.000 C 
BRANCH  10  11
ATOM     11  C   UNL     1      42.661   6.313  12.039  0.00  0.00    +0.000 C 
BRANCH  11  12
ATOM     12  N   UNL     1      42.895   6.172  10.603  0.00  0.00    +0.000 NA
ATOM     13  H   UNL     1      42.084   6.506  10.086  0.00  0.00    +0.000 HD
ATOM     14  H   UNL     1      43.003   5.186  10.368  0.00  0.00    +0.000 HD
ENDBRANCH  11  12
ENDBRANCH  10  11
ENDBRANCH   9  10
ENDBRANCH   8   9
BRANCH   8  15
ATOM     15  C   UNL     1      44.236   2.409  10.194  0.00  0.00    +0.000 C 
BRANCH  15  16
ATOM     16  C   UNL     1      45.257   2.604   9.082  0.00  0.00    +0.000 A 
ATOM     17  C   UNL     1      45.459   3.864   8.512  0.00  0.00    +0.000 A 
ATOM     18  C   UNL     1      46.333   3.979   7.433  0.00  0.00    +0.000 A 
ATOM     19  C   UNL     1      46.985   2.847   6.961  0.00  0.00    +0.000 A 
ATOM     20  C   UNL     1      46.753   1.642   7.600  0.00  0.00    +0.000 A 
ATOM     21  N   UNL     1      45.905   1.496   8.642  0.00  0.00    +0.000 NA
ENDBRANCH  15  16
ENDBRANCH   8  15
ENDBRANCH   7   8
ENDBRANCH   1   7
BRANCH   4  22
ATOM     22  C   UNL     1      48.120   8.015  14.024  0.00  0.00    +0.000 C 
BRANCH  22  23
ATOM     23  N   UNL     1      47.841   8.185  15.436  0.00  0.00    +0.000 N 
ATOM     24  C   UNL     1      48.291   9.299  16.103  0.00  0.00    +0.000 C 
ATOM     25  O   UNL     1      48.900  10.194  15.517  0.00  0.00    +0.000 OA
ATOM     26  H   UNL     1      47.546   7.367  15.965  0.00  0.00    +0.000 HD
BRANCH  24  27
ATOM     27  C   UNL     1      47.965   9.423  17.532  0.00  0.00    +0.000 A 
ATOM     28  C   UNL     1      47.692  10.679  18.057  0.00  0.00    +0.000 A 
ATOM     29  S   UNL     1      47.286  10.665  19.712  0.00  0.00    +0.000 S 
ATOM     30  C   UNL     1      47.511   8.982  19.804  0.00  0.00    +0.000 A 
ATOM     31  N   UNL     1      47.338   8.322  20.980  0.00  0.00    +0.000 NA
ATOM     32  C   UNL     1      47.583   7.057  20.921  0.00  0.00    +0.000 A 
ATOM     33  N   UNL     1      47.978   6.389  19.790  0.00  0.00    +0.000 N 
ATOM     34  C   UNL     1      48.133   7.010  18.569  0.00  0.00    +0.000 A 
ATOM     35  O   UNL     1      48.448   6.383  17.566  0.00  0.00    +0.000 OA
ATOM     36  C   UNL     1      47.879   8.440  18.584  0.00  0.00    +0.000 A 
ATOM     37  H   UNL     1      48.145   5.395  19.811  0.00  0.00    +0.000 HD
ENDBRANCH  24  27
ENDBRANCH  22  23
ENDBRANCH   4  22
TORSDOF 11
ENDMDL
MODEL 3
REMARK VINA RESULT:    -7.069      3.711      9.098
REMARK INTER + INTRA:         -12.638
REMARK INTER:                 -10.876
REMARK INTRA:                  -1.761
REMARK UNBOUND:                -1.229
REMARK  Name = 
REMARK  11 active torsions:
REMARK  status: ('A' for Active; 'I' for Inactive)
REMARK    1  A    between atoms: N_1  and  C_2
REMARK    2  A    between atoms: C_2  and  C_3
REMARK    3  A    between atoms: C_3  and  C_4
REMARK    4  A    between atoms: C_4  and  N_5
REMARK    5  A    between atoms: N_5  and  C_6
REMARK    6  A    between atoms: N_5  and  C_27
REMARK    7  A    between atoms: C_6  and  C_7
REMARK    8  A    between atoms: C_10  and  C_11
REMARK    9  A    between atoms: C_11  and  N_12
REMARK   10  A    between atoms: C_13  and  C_15
REMARK   11  A    between atoms: C_27  and  C_28
REMARK                            x       y       z     vdW  Elec       q    Type
REMARK                         _______ _______ _______ _____ _____    ______ ____
ROOT
ATOM      1  C   UNL     1      49.466   8.172  15.732  0.00  0.00    +0.000 A 
ATOM      2  C   UNL     1      49.637   7.158  14.779  0.00  0.00    +0.000 A 
ATOM      3  C   UNL     1      48.910   7.167  13.582  0.00  0.00    +0.000 A 
ATOM      4  C   UNL     1      48.015   8.205  13.297  0.00  0.00    +0.000 A 
ATOM      5  C   UNL     1      47.915   9.268  14.202  0.00  0.00    +0.000 A 
ATOM      6  C   UNL     1      48.638   9.254  15.404  0.00  0.00    +0.000 A 
ENDROOT
BRANCH   1   7
ATOM      7  C   UNL     1      50.010   7.993  17.140  0.00  0.00    +0.000 C 
BRANCH   7   8
ATOM      8  N   UNL     1      49.719   6.762  17.885  0.00  0.00    +0.000 NA
BRANCH   8   9
ATOM      9  C   UNL     1      49.362   6.952  19.303  0.00  0.00    +0.000 C 
BRANCH   9  10
ATOM     10  C   UNL     1      47.870   7.275  19.493  0.00  0.00    +0.000 C 
BRANCH  10  11
ATOM     11  C   UNL     1      47.031   6.037  19.801  0.00  0.00    +0.000 C 
BRANCH  11  12
ATOM     12  N   UNL     1      46.656   5.392  18.543  0.00  0.00    +0.000 NA
ATOM     13  H   UNL     1      46.838   6.021  17.764  0.00  0.00    +0.000 HD
ATOM     14  H   UNL     1      45.654   5.204  18.538  0.00  0.00    +0.000 HD
ENDBRANCH  11  12
ENDBRANCH  10  11
ENDBRANCH   9  10
ENDBRANCH   8   9
BRANCH   8  15
ATOM     15  C   UNL     1      50.764   5.738  17.683  0.00  0.00    +0.000 C 
BRANCH  15  16
ATOM     16  C   UNL     1      50.226   4.343  17.400  0.00  0.00    +0.000 A 
ATOM     17  C   UNL     1      51.024   3.214  17.605  0.00  0.00    +0.000 A 
ATOM     18  C   UNL     1      50.525   1.965  17.243  0.00  0.00    +0.000 A 
ATOM     19  C   UNL     1      49.250   1.872  16.699  0.00  0.00    +0.000 A 
ATOM     20  C   UNL     1      48.513   3.034  16.556  0.00  0.00    +0.000 A 
ATOM     21  N   UNL     1      48.972   4.261  16.888  0.00  0.00    +0.000 NA
ENDBRANCH  15  16
ENDBRANCH   8  15
ENDBRANCH   7   8
ENDBRANCH   1   7
BRANCH   4  22
ATOM     22  C   UNL     1      47.125   8.145  12.081  0.00  0.00    +0.000 C 
BRANCH  22  23
ATOM     23  N   UNL     1      46.571   6.822  11.875  0.00  0.00    +0.000 N 
ATOM     24  C   UNL     1      45.226   6.662  11.642  0.00  0.00    +0.000 C 
ATOM     25  O   UNL     1      44.470   7.630  11.560  0.00  0.00    +0.000 OA
ATOM     26  H   UNL     1      47.130   6.022  12.160  0.00  0.00    +0.000 HD
BRANCH  24  27
ATOM     27  C   UNL     1      44.724   5.296  11.427  0.00  0.00    +0.000 A 
ATOM     28  C   UNL     1      44.001   4.674  12.436  0.00  0.00    +0.000 A 
ATOM     29  S   UNL     1      43.444   3.115  12.030  0.00  0.00    +0.000 S 
ATOM     30  C   UNL     1      44.193   3.191  10.505  0.00  0.00    +0.000 A 
ATOM     31  N   UNL     1      44.118   2.143   9.643  0.00  0.00    +0.000 NA
ATOM     32  C   UNL     1      44.767   2.313   8.540  0.00  0.00    +0.000 A 
ATOM     33  N   UNL     1      45.477   3.442   8.218  0.00  0.00    +0.000 N 
ATOM     34  C   UNL     1      45.553   4.541   9.047  0.00  0.00    +0.000 A 
ATOM     35  O   UNL     1      46.163   5.551   8.717  0.00  0.00    +0.000 OA
ATOM     36  C   UNL     1      44.848   4.395  10.307  0.00  0.00    +0.000 A 
ATOM     37  H   UNL     1      45.956   3.514   7.334  0.00  0.00    +0.000 HD
ENDBRANCH  24  27
ENDBRANCH  22  23
ENDBRANCH   4  22
TORSDOF 11
ENDMDL
MODEL 4
REMARK VINA RESULT:    -7.031      1.833      2.332
REMARK INTER + INTRA:         -12.576
REMARK INTER:                 -11.023
REMARK INTRA:                  -1.553
REMARK UNBOUND:                -1.229
REMARK  Name = 
REMARK  11 active torsions:
REMARK  status: ('A' for Active; 'I' for Inactive)
REMARK    1  A    between atoms: N_1  and  C_2
REMARK    2  A    between atoms: C_2  and  C_3
REMARK    3  A    between atoms: C_3  and  C_4
REMARK    4  A    between atoms: C_4  and  N_5
REMARK    5  A    between atoms: N_5  and  C_6
REMARK    6  A    between atoms: N_5  and  C_27
REMARK    7  A    between atoms: C_6  and  C_7
REMARK    8  A    between atoms: C_10  and  C_11
REMARK    9  A    between atoms: C_11  and  N_12
REMARK   10  A    between atoms: C_13  and  C_15
REMARK   11  A    between atoms: C_27  and  C_28
REMARK                            x       y       z     vdW  Elec       q    Type
REMARK                         _______ _______ _______ _____ _____    ______ ____
ROOT
ATOM      1  C   UNL     1      46.422   4.248  13.176  0.00  0.00    +0.000 A 
ATOM      2  C   UNL     1      46.776   5.430  12.508  0.00  0.00    +0.000 A 
ATOM      3  C   UNL     1      47.478   6.445  13.169  0.00  0.00    +0.000 A 
ATOM      4  C   UNL     1      47.866   6.293  14.505  0.00  0.00    +0.000 A 
ATOM      5  C   UNL     1      47.601   5.076  15.143  0.00  0.00    +0.000 A 
ATOM      6  C   UNL     1      46.892   4.062  14.483  0.00  0.00    +0.000 A 
ENDROOT
BRANCH   1   7
ATOM      7  C   UNL     1      45.405   3.301  12.560  0.00  0.00    +0.000 C 
BRANCH   7   8
ATOM      8  N   UNL     1      44.302   3.838  11.753  0.00  0.00    +0.000 NA
BRANCH   8   9
ATOM      9  C   UNL     1      43.129   4.302  12.515  0.00  0.00    +0.000 C 
BRANCH   9  10
ATOM     10  C   UNL     1      42.426   5.493  11.841  0.00  0.00    +0.000 C 
BRANCH  10  11
ATOM     11  C   UNL     1      43.408   6.514  11.272  0.00  0.00    +0.000 C 
BRANCH  11  12
ATOM     12  N   UNL     1      42.705   7.777  11.051  0.00  0.00    +0.000 NA
ATOM     13  H   UNL     1      42.964   8.164  10.146  0.00  0.00    +0.000 HD
ATOM     14  H   UNL     1      42.995   8.459  11.752  0.00  0.00    +0.000 HD
ENDBRANCH  11  12
ENDBRANCH  10  11
ENDBRANCH   9  10
ENDBRANCH   8   9
BRANCH   8  15
ATOM     15  C   UNL     1      43.948   2.935  10.639  0.00  0.00    +0.000 C 
BRANCH  15  16
ATOM     16  C   UNL     1      44.873   3.037   9.434  0.00  0.00    +0.000 A 
ATOM     17  C   UNL     1      45.409   1.888   8.846  0.00  0.00    +0.000 A 
ATOM     18  C   UNL     1      46.325   2.031   7.807  0.00  0.00    +0.000 A 
ATOM     19  C   UNL     1      46.673   3.306   7.376  0.00  0.00    +0.000 A 
ATOM     20  C   UNL     1      46.074   4.391   7.991  0.00  0.00    +0.000 A 
ATOM     21  N   UNL     1      45.190   4.285   9.007  0.00  0.00    +0.000 NA
ENDBRANCH  15  16
ENDBRANCH   8  15
ENDBRANCH   7   8
ENDBRANCH   1   7
BRANCH   4  22
ATOM     22  C   UNL     1      48.492   7.437  15.263  0.00  0.00    +0.000 C 
BRANCH  22  23
ATOM     23  N   UNL     1      49.595   7.001  16.096  0.00  0.00    +0.000 N 
ATOM     24  C   UNL     1      50.887   7.089  15.637  0.00  0.00    +0.000 C 
ATOM     25  O   UNL     1      51.144   7.573  14.535  0.00  0.00    +0.000 OA
ATOM     26  H   UNL     1      49.383   6.405  16.892  0.00  0.00    +0.000 HD
BRANCH  24  27
ATOM     27  C   UNL     1      51.965   6.644  16.533  0.00  0.00    +0.000 A 
ATOM     28  C   UNL     1      53.098   7.436  16.673  0.00  0.00    +0.000 A 
ATOM     29  S   UNL     1      54.241   6.820  17.777  0.00  0.00    +0.000 S 
ATOM     30  C   UNL     1      53.289   5.442  18.072  0.00  0.00    +0.000 A 
ATOM     31  N   UNL     1      53.713   4.476  18.929  0.00  0.00    +0.000 NA
ATOM     32  C   UNL     1      52.917   3.465  19.027  0.00  0.00    +0.000 A 
ATOM     33  N   UNL     1      51.730   3.337  18.352  0.00  0.00    +0.000 N 
ATOM     34  C   UNL     1      51.244   4.306  17.500  0.00  0.00    +0.000 A 
ATOM     35  O   UNL     1      50.162   4.183  16.941  0.00  0.00    +0.000 OA
ATOM     36  C   UNL     1      52.110   5.461  17.345  0.00  0.00    +0.000 A 
ATOM     37  H   UNL     1      51.150   2.523  18.482  0.00  0.00    +0.000 HD
ENDBRANCH  24  27
ENDBRANCH  22  23
ENDBRANCH   4  22
TORSDOF 11
ENDMDL
MODEL 5
REMARK VINA RESULT:    -6.998      3.800      9.079
REMARK INTER + INTRA:         -12.522
REMARK INTER:                 -10.149
REMARK INTRA:                  -2.374
REMARK UNBOUND:                -1.229
REMARK  Name = 
REMARK  11 active torsions:
REMARK  status: ('A' for Active; 'I' for Inactive)
REMARK    1  A    between atoms: N_1  and  C_2
REMARK    2  A    between atoms: C_2  and  C_3
REMARK    3  A    between atoms: C_3  and  C_4
REMARK    4  A    between atoms: C_4  and  N_5
REMARK    5  A    between atoms: N_5  and  C_6
REMARK    6  A    between atoms: N_5  and  C_27
REMARK    7  A    between atoms: C_6  and  C_7
REMARK    8  A    between atoms: C_10  and  C_11
REMARK    9  A    between atoms: C_11  and  N_12
REMARK   10  A    between atoms: C_13  and  C_15
REMARK   11  A    between atoms: C_27  and  C_28
REMARK                            x       y       z     vdW  Elec       q    Type
REMARK                         _______ _______ _______ _____ _____    ______ ____
ROOT
ATOM      1  C   UNL     1      50.443   7.125  15.945  0.00  0.00    +0.000 A 
ATOM      2  C   UNL     1      49.146   6.634  15.730  0.00  0.00    +0.000 A 
ATOM      3  C   UNL     1      48.465   6.904  14.537  0.00  0.00    +0.000 A 
ATOM      4  C   UNL     1      49.073   7.649  13.519  0.00  0.00    +0.000 A 
ATOM      5  C   UNL     1      50.401   8.054  13.690  0.00  0.00    +0.000 A 
ATOM      6  C   UNL     1      51.080   7.790  14.888  0.00  0.00    +0.000 A 
ENDROOT
BRANCH   1   7
ATOM      7  C   UNL     1      51.045   7.098  17.339  0.00  0.00    +0.000 C 
BRANCH   7   8
ATOM      8  N   UNL     1      50.184   6.857  18.504  0.00  0.00    +0.000 NA
BRANCH   8   9
ATOM      9  C   UNL     1      50.167   7.933  19.510  0.00  0.00    +0.000 C 
BRANCH   9  10
ATOM     10  C   UNL     1      48.738   8.341  19.907  0.00  0.00    +0.000 C 
BRANCH  10  11
ATOM     11  C   UNL     1      47.778   8.369  18.719  0.00  0.00    +0.000 C 
BRANCH  11  12
ATOM     12  N   UNL     1      47.102   7.076  18.625  0.00  0.00    +0.000 NA
ATOM     13  H   UNL     1      46.693   6.967  17.699  0.00  0.00    +0.000 HD
ATOM     14  H   UNL     1      46.330   7.043  19.289  0.00  0.00    +0.000 HD
ENDBRANCH  11  12
ENDBRANCH  10  11
ENDBRANCH   9  10
ENDBRANCH   8   9
BRANCH   8  15
ATOM     15  C   UNL     1      50.414   5.520  19.088  0.00  0.00    +0.000 C 
BRANCH  15  16
ATOM     16  C   UNL     1      49.705   4.388  18.358  0.00  0.00    +0.000 A 
ATOM     17  C   UNL     1      50.434   3.414  17.672  0.00  0.00    +0.000 A 
ATOM     18  C   UNL     1      49.744   2.451  16.939  0.00  0.00    +0.000 A 
ATOM     19  C   UNL     1      48.355   2.478  16.917  0.00  0.00    +0.000 A 
ATOM     20  C   UNL     1      47.708   3.459  17.648  0.00  0.00    +0.000 A 
ATOM     21  N   UNL     1      48.348   4.411  18.360  0.00  0.00    +0.000 NA
ENDBRANCH  15  16
ENDBRANCH   8  15
ENDBRANCH   7   8
ENDBRANCH   1   7
BRANCH   4  22
ATOM     22  C   UNL     1      48.294   8.065  12.296  0.00  0.00    +0.000 C 
BRANCH  22  23
ATOM     23  N   UNL     1      47.630   6.943  11.664  0.00  0.00    +0.000 N 
ATOM     24  C   UNL     1      46.260   6.922  11.550  0.00  0.00    +0.000 C 
ATOM     25  O   UNL     1      45.571   7.865  11.938  0.00  0.00    +0.000 OA
ATOM     26  H   UNL     1      48.157   6.080  11.550  0.00  0.00    +0.000 HD
BRANCH  24  27
ATOM     27  C   UNL     1      45.644   5.763  10.887  0.00  0.00    +0.000 A 
ATOM     28  C   UNL     1      45.791   5.613   9.514  0.00  0.00    +0.000 A 
ATOM     29  S   UNL     1      45.064   4.202   8.890  0.00  0.00    +0.000 S 
ATOM     30  C   UNL     1      44.481   3.763  10.426  0.00  0.00    +0.000 A 
ATOM     31  N   UNL     1      43.740   2.636  10.590  0.00  0.00    +0.000 NA
ATOM     32  C   UNL     1      43.323   2.444  11.796  0.00  0.00    +0.000 A 
ATOM     33  N   UNL     1      43.588   3.274  12.855  0.00  0.00    +0.000 N 
ATOM     34  C   UNL     1      44.361   4.409  12.743  0.00  0.00    +0.000 A 
ATOM     35  O   UNL     1      44.615   5.111  13.714  0.00  0.00    +0.000 OA
ATOM     36  C   UNL     1      44.846   4.676  11.401  0.00  0.00    +0.000 A 
ATOM     37  H   UNL     1      43.238   3.060  13.776  0.00  0.00    +0.000 HD
ENDBRANCH  24  27
ENDBRANCH  22  23
ENDBRANCH   4  22
TORSDOF 11
ENDMDL
MODEL 6
REMARK VINA RESULT:    -6.508      3.501      9.139
REMARK INTER + INTRA:         -11.731
REMARK INTER:                 -10.245
REMARK INTRA:                  -1.486
REMARK UNBOUND:                -1.229
REMARK  Name = 
REMARK  11 active torsions:
REMARK  status: ('A' for Active; 'I' for Inactive)
REMARK    1  A    between atoms: N_1  and  C_2
REMARK    2  A    between atoms: C_2  and  C_3
REMARK    3  A    between atoms: C_3  and  C_4
REMARK    4  A    between atoms: C_4  and  N_5
REMARK    5  A    between atoms: N_5  and  C_6
REMARK    6  A    between atoms: N_5  and  C_27
REMARK    7  A    between atoms: C_6  and  C_7
REMARK    8  A    between atoms: C_10  and  C_11
REMARK    9  A    between atoms: C_11  and  N_12
REMARK   10  A    between atoms: C_13  and  C_15
REMARK   11  A    between atoms: C_27  and  C_28
REMARK                            x       y       z     vdW  Elec       q    Type
REMARK                         _______ _______ _______ _____ _____    ______ ____
ROOT
ATOM      1  C   UNL     1      49.454   7.150  16.365  0.00  0.00    +0.000 A 
ATOM      2  C   UNL     1      49.036   8.487  16.284  0.00  0.00    +0.000 A 
ATOM      3  C   UNL     1      48.175   8.909  15.264  0.00  0.00    +0.000 A 
ATOM      4  C   UNL     1      47.690   8.001  14.315  0.00  0.00    +0.000 A 
ATOM      5  C   UNL     1      48.026   6.649  14.452  0.00  0.00    +0.000 A 
ATOM      6  C   UNL     1      48.893   6.228  15.470  0.00  0.00    +0.000 A 
ENDROOT
BRANCH   1   7
ATOM      7  C   UNL     1      50.615   6.769  17.267  0.00  0.00    +0.000 C 
BRANCH   7   8
ATOM      8  N   UNL     1      50.394   5.860  18.399  0.00  0.00    +0.000 NA
BRANCH   8   9
ATOM      9  C   UNL     1      49.673   6.441  19.545  0.00  0.00    +0.000 C 
BRANCH   9  10
ATOM     10  C   UNL     1      48.405   5.646  19.903  0.00  0.00    +0.000 C 
BRANCH  10  11
ATOM     11  C   UNL     1      47.928   4.748  18.764  0.00  0.00    +0.000 C 
BRANCH  11  12
ATOM     12  N   UNL     1      46.598   5.185  18.340  0.00  0.00    +0.000 NA
ATOM     13  H   UNL     1      46.082   5.547  19.139  0.00  0.00    +0.000 HD
ATOM     14  H   UNL     1      46.070   4.387  17.990  0.00  0.00    +0.000 HD
ENDBRANCH  11  12
ENDBRANCH  10  11
ENDBRANCH   9  10
ENDBRANCH   8   9
BRANCH   8  15
ATOM     15  C   UNL     1      51.634   5.160  18.790  0.00  0.00    +0.000 C 
BRANCH  15  16
ATOM     16  C   UNL     1      51.745   3.739  18.256  0.00  0.00    +0.000 A 
ATOM     17  C   UNL     1      50.691   3.157  17.547  0.00  0.00    +0.000 A 
ATOM     18  C   UNL     1      50.797   1.824  17.159  0.00  0.00    +0.000 A 
ATOM     19  C   UNL     1      51.947   1.112  17.477  0.00  0.00    +0.000 A 
ATOM     20  C   UNL     1      52.958   1.769  18.155  0.00  0.00    +0.000 A 
ATOM     21  N   UNL     1      52.881   3.058  18.553  0.00  0.00    +0.000 NA
ENDBRANCH  15  16
ENDBRANCH   8  15
ENDBRANCH   7   8
ENDBRANCH   1   7
BRANCH   4  22
ATOM     22  C   UNL     1      46.882   8.476  13.133  0.00  0.00    +0.000 C 
BRANCH  22  23
ATOM     23  N   UNL     1      46.137   7.398  12.514  0.00  0.00    +0.000 N 
ATOM     24  C   UNL     1      46.649   6.739  11.422  0.00  0.00    +0.000 C 
ATOM     25  O   UNL     1      47.761   7.013  10.971  0.00  0.00    +0.000 OA
ATOM     26  H   UNL     1      45.146   7.319  12.730  0.00  0.00    +0.000 HD
BRANCH  24  27
ATOM     27  C   UNL     1      45.852   5.645  10.845  0.00  0.00    +0.000 A 
ATOM     28  C   UNL     1      45.805   5.498   9.465  0.00  0.00    +0.000 A 
ATOM     29  S   UNL     1      44.884   4.162   8.942  0.00  0.00    +0.000 S 
ATOM     30  C   UNL     1      44.470   3.759  10.541  0.00  0.00    +0.000 A 
ATOM     31  N   UNL     1      43.661   2.697  10.801  0.00  0.00    +0.000 NA
ATOM     32  C   UNL     1      43.390   2.528  12.051  0.00  0.00    +0.000 A 
ATOM     33  N   UNL     1      43.862   3.321  13.066  0.00  0.00    +0.000 N 
ATOM     34  C   UNL     1      44.710   4.386  12.853  0.00  0.00    +0.000 A 
ATOM     35  O   UNL     1      45.148   5.053  13.783  0.00  0.00    +0.000 OA
ATOM     36  C   UNL     1      45.037   4.626  11.460  0.00  0.00    +0.000 A 
ATOM     37  H   UNL     1      43.618   3.128  14.025  0.00  0.00    +0.000 HD
ENDBRANCH  24  27
ENDBRANCH  22  23
ENDBRANCH   4  22
TORSDOF 11
ENDMDL
MODEL 7
REMARK VINA RESULT:    -6.240      2.954      4.928
REMARK INTER + INTRA:         -11.298
REMARK INTER:                  -9.776
REMARK INTRA:                  -1.523
REMARK UNBOUND:                -1.229
REMARK  Name = 
REMARK  11 active torsions:
REMARK  status: ('A' for Active; 'I' for Inactive)
REMARK    1  A    between atoms: N_1  and  C_2
REMARK    2  A    between atoms: C_2  and  C_3
REMARK    3  A    between atoms: C_3  and  C_4
REMARK    4  A    between atoms: C_4  and  N_5
REMARK    5  A    between atoms: N_5  and  C_6
REMARK    6  A    between atoms: N_5  and  C_27
REMARK    7  A    between atoms: C_6  and  C_7
REMARK    8  A    between atoms: C_10  and  C_11
REMARK    9  A    between atoms: C_11  and  N_12
REMARK   10  A    between atoms: C_13  and  C_15
REMARK   11  A    between atoms: C_27  and  C_28
REMARK                            x       y       z     vdW  Elec       q    Type
REMARK                         _______ _______ _______ _____ _____    ______ ____
ROOT
ATOM      1  C   UNL     1      47.952   6.242  14.994  0.00  0.00    +0.000 A 
ATOM      2  C   UNL     1      47.255   5.040  14.803  0.00  0.00    +0.000 A 
ATOM      3  C   UNL     1      47.334   4.007  15.746  0.00  0.00    +0.000 A 
ATOM      4  C   UNL     1      48.090   4.161  16.914  0.00  0.00    +0.000 A 
ATOM      5  C   UNL     1      48.706   5.395  17.153  0.00  0.00    +0.000 A 
ATOM      6  C   UNL     1      48.633   6.426  16.206  0.00  0.00    +0.000 A 
ENDROOT
BRANCH   1   7
ATOM      7  C   UNL     1      48.115   7.219  13.841  0.00  0.00    +0.000 C 
BRANCH   7   8
ATOM      8  N   UNL     1      47.509   6.919  12.538  0.00  0.00    +0.000 NA
BRANCH   8   9
ATOM      9  C   UNL     1      48.268   7.390  11.365  0.00  0.00    +0.000 C 
BRANCH   9  10
ATOM     10  C   UNL     1      49.727   7.735  11.712  0.00  0.00    +0.000 C 
BRANCH  10  11
ATOM     11  C   UNL     1      50.052   9.212  11.502  0.00  0.00    +0.000 C 
BRANCH  11  12
ATOM     12  N   UNL     1      48.810   9.982  11.535  0.00  0.00    +0.000 NA
ATOM     13  H   UNL     1      48.774  10.615  10.739  0.00  0.00    +0.000 HD
ATOM     14  H   UNL     1      48.790  10.565  12.372  0.00  0.00    +0.000 HD
ENDBRANCH  11  12
ENDBRANCH  10  11
ENDBRANCH   9  10
ENDBRANCH   8   9
BRANCH   8  15
ATOM     15  C   UNL     1      46.083   7.299  12.496  0.00  0.00    +0.000 C 
BRANCH  15  16
ATOM     16  C   UNL     1      45.134   6.137  12.239  0.00  0.00    +0.000 A 
ATOM     17  C   UNL     1      45.248   5.364  11.080  0.00  0.00    +0.000 A 
ATOM     18  C   UNL     1      44.300   4.372  10.839  0.00  0.00    +0.000 A 
ATOM     19  C   UNL     1      43.277   4.171  11.757  0.00  0.00    +0.000 A 
ATOM     20  C   UNL     1      43.252   4.958  12.894  0.00  0.00    +0.000 A 
ATOM     21  N   UNL     1      44.150   5.934  13.151  0.00  0.00    +0.000 NA
ENDBRANCH  15  16
ENDBRANCH   8  15
ENDBRANCH   7   8
ENDBRANCH   1   7
BRANCH   4  22
ATOM     22  C   UNL     1      48.297   3.003  17.858  0.00  0.00    +0.000 C 
BRANCH  22  23
ATOM     23  N   UNL     1      49.701   2.767  18.132  0.00  0.00    +0.000 N 
ATOM     24  C   UNL     1      50.473   2.068  17.235  0.00  0.00    +0.000 C 
ATOM     25  O   UNL     1      50.011   1.667  16.167  0.00  0.00    +0.000 OA
ATOM     26  H   UNL     1      50.027   2.891  19.087  0.00  0.00    +0.000 HD
BRANCH  24  27
ATOM     27  C   UNL     1      51.894   1.872  17.560  0.00  0.00    +0.000 A 
ATOM     28  C   UNL     1      52.380   0.580  17.715  0.00  0.00    +0.000 A 
ATOM     29  S   UNL     1      54.051   0.503  18.044  0.00  0.00    +0.000 S 
ATOM     30  C   UNL     1      54.180   2.199  18.043  0.00  0.00    +0.000 A 
ATOM     31  N   UNL     1      55.372   2.803  18.287  0.00  0.00    +0.000 NA
ATOM     32  C   UNL     1      55.322   4.093  18.301  0.00  0.00    +0.000 A 
ATOM     33  N   UNL     1      54.188   4.832  18.084  0.00  0.00    +0.000 N 
ATOM     34  C   UNL     1      52.965   4.263  17.800  0.00  0.00    +0.000 A 
ATOM     35  O   UNL     1      51.976   4.949  17.571  0.00  0.00    +0.000 OA
ATOM     36  C   UNL     1      52.965   2.812  17.784  0.00  0.00    +0.000 A 
ATOM     37  H   UNL     1      54.219   5.840  18.100  0.00  0.00    +0.000 HD
ENDBRANCH  24  27
ENDBRANCH  22  23
ENDBRANCH   4  22
TORSDOF 11
ENDMDL
MODEL 8
REMARK VINA RESULT:    -6.209      3.853      9.530
REMARK INTER + INTRA:         -11.250
REMARK INTER:                  -9.591
REMARK INTRA:                  -1.658
REMARK UNBOUND:                -1.229
REMARK  Name = 
REMARK  11 active torsions:
REMARK  status: ('A' for Active; 'I' for Inactive)
REMARK    1  A    between atoms: N_1  and  C_2
REMARK    2  A    between atoms: C_2  and  C_3
REMARK    3  A    between atoms: C_3  and  C_4
REMARK    4  A    between atoms: C_4  and  N_5
REMARK    5  A    between atoms: N_5  and  C_6
REMARK    6  A    between atoms: N_5  and  C_27
REMARK    7  A    between atoms: C_6  and  C_7
REMARK    8  A    between atoms: C_10  and  C_11
REMARK    9  A    between atoms: C_11  and  N_12
REMARK   10  A    between atoms: C_13  and  C_15
REMARK   11  A    between atoms: C_27  and  C_28
REMARK                            x       y       z     vdW  Elec       q    Type
REMARK                         _______ _______ _______ _____ _____    ______ ____
ROOT
ATOM      1  C   UNL     1      50.224   8.213  15.571  0.00  0.00    +0.000 A 
ATOM      2  C   UNL     1      50.628   7.959  14.252  0.00  0.00    +0.000 A 
ATOM      3  C   UNL     1      49.712   8.032  13.195  0.00  0.00    +0.000 A 
ATOM      4  C   UNL     1      48.378   8.386  13.427  0.00  0.00    +0.000 A 
ATOM      5  C   UNL     1      47.997   8.735  14.728  0.00  0.00    +0.000 A 
ATOM      6  C   UNL     1      48.911   8.655  15.787  0.00  0.00    +0.000 A 
ENDROOT
BRANCH   1   7
ATOM      7  C   UNL     1      51.129   7.831  16.731  0.00  0.00    +0.000 C 
BRANCH   7   8
ATOM      8  N   UNL     1      50.665   6.863  17.733  0.00  0.00    +0.000 NA
BRANCH   8   9
ATOM      9  C   UNL     1      51.231   7.032  19.083  0.00  0.00    +0.000 C 
BRANCH   9  10
ATOM     10  C   UNL     1      52.251   8.182  19.151  0.00  0.00    +0.000 C 
BRANCH  10  11
ATOM     11  C   UNL     1      53.670   7.699  19.441  0.00  0.00    +0.000 C 
BRANCH  11  12
ATOM     12  N   UNL     1      53.935   6.498  18.650  0.00  0.00    +0.000 NA
ATOM     13  H   UNL     1      54.918   6.467  18.387  0.00  0.00    +0.000 HD
ATOM     14  H   UNL     1      53.403   6.536  17.781  0.00  0.00    +0.000 HD
ENDBRANCH  11  12
ENDBRANCH  10  11
ENDBRANCH   9  10
ENDBRANCH   8   9
BRANCH   8  15
ATOM     15  C   UNL     1      50.754   5.475  17.237  0.00  0.00    +0.000 C 
BRANCH  15  16
ATOM     16  C   UNL     1      49.434   4.718  17.258  0.00  0.00    +0.000 A 
ATOM     17  C   UNL     1      49.182   3.748  18.232  0.00  0.00    +0.000 A 
ATOM     18  C   UNL     1      48.001   3.013  18.157  0.00  0.00    +0.000 A 
ATOM     19  C   UNL     1      47.103   3.268  17.128  0.00  0.00    +0.000 A 
ATOM     20  C   UNL     1      47.414   4.266  16.221  0.00  0.00    +0.000 A 
ATOM     21  N   UNL     1      48.554   4.990  16.261  0.00  0.00    +0.000 NA
ENDBRANCH  15  16
ENDBRANCH   8  15
ENDBRANCH   7   8
ENDBRANCH   1   7
BRANCH   4  22
ATOM     22  C   UNL     1      47.358   8.324  12.318  0.00  0.00    +0.000 C 
BRANCH  22  23
ATOM     23  N   UNL     1      46.748   7.013  12.211  0.00  0.00    +0.000 N 
ATOM     24  C   UNL     1      45.486   6.877  11.685  0.00  0.00    +0.000 C 
ATOM     25  O   UNL     1      44.862   7.847  11.255  0.00  0.00    +0.000 OA
ATOM     26  H   UNL     1      47.149   6.255  12.757  0.00  0.00    +0.000 HD
BRANCH  24  27
ATOM     27  C   UNL     1      44.924   5.521  11.589  0.00  0.00    +0.000 A 
ATOM     28  C   UNL     1      44.289   4.972  12.695  0.00  0.00    +0.000 A 
ATOM     29  S   UNL     1      43.648   3.416  12.424  0.00  0.00    +0.000 S 
ATOM     30  C   UNL     1      44.241   3.394  10.830  0.00  0.00    +0.000 A 
ATOM     31  N   UNL     1      44.048   2.311  10.033  0.00  0.00    +0.000 NA
ATOM     32  C   UNL     1      44.586   2.407   8.865  0.00  0.00    +0.000 A 
ATOM     33  N   UNL     1      45.294   3.494   8.418  0.00  0.00    +0.000 N 
ATOM     34  C   UNL     1      45.486   4.627   9.178  0.00  0.00    +0.000 A 
ATOM     35  O   UNL     1      46.088   5.599   8.740  0.00  0.00    +0.000 OA
ATOM     36  C   UNL     1      44.908   4.564  10.509  0.00  0.00    +0.000 A 
ATOM     37  H   UNL     1      45.682   3.508   7.487  0.00  0.00    +0.000 HD
ENDBRANCH  24  27
ENDBRANCH  22  23
ENDBRANCH   4  22
TORSDOF 11
ENDMDL
