MODEL 1
REMARK VINA RESULT:    -8.936      0.000      0.000
REMARK INTER + INTRA:         -13.713
REMARK INTER:                 -12.593
REMARK INTRA:                  -1.120
REMARK UNBOUND:                -1.120
REMARK  Name = 
REMARK  7 active torsions:
REMARK  status: ('A' for Active; 'I' for Inactive)
REMARK    1  A    between atoms: C_2  and  C_3
REMARK    2  A    between atoms: C_5  and  C_6
REMARK    3  A    between atoms: C_11  and  N_12
REMARK    4  A    between atoms: N_12  and  C_13
REMARK    5  A    between atoms: C_13  and  C_14
REMARK    6  A    between atoms: C_18  and  C_19
REMARK    7  A    between atoms: C_23  and  C_24
REMARK                            x       y       z     vdW  Elec       q    Type
REMARK                         _______ _______ _______ _____ _____    ______ ____
ROOT
ATOM      1  C   UNL     1      43.763   5.712  11.088  0.00  0.00    +0.000 C 
ATOM      2  C   UNL     1      42.455   5.280  11.760  0.00  0.00    +0.000 C 
ATOM      3  C   UNL     1      42.721   6.729  11.494  0.00  0.00    +0.000 C 
ENDROOT
BRANCH   1   4
ATOM      4  C   UNL     1      45.031   5.754  11.898  0.00  0.00    +0.000 A 
ATOM      5  C   UNL     1      45.377   4.687  12.735  0.00  0.00    +0.000 A 
ATOM      6  C   UNL     1      46.611   4.638  13.368  0.00  0.00    +0.000 A 
ATOM      7  C   UNL     1      47.527   5.661  13.161  0.00  0.00    +0.000 A 
ATOM      8  C   UNL     1      47.218   6.752  12.341  0.00  0.00    +0.000 A 
ATOM      9  C   UNL     1      45.944   6.803  11.760  0.00  0.00    +0.000 A 
BRANCH   8  10
ATOM     10  C   UNL     1      48.216   7.777  12.016  0.00  0.00    +0.000 A 
ATOM     11  C   UNL     1      47.940   9.141  12.092  0.00  0.00    +0.000 A 
ATOM     12  N   UNL     1      48.833  10.121  11.821  0.00  0.00    +0.000 NA
ATOM     13  C   UNL     1      50.072   9.725  11.460  0.00  0.00    +0.000 A 
ATOM     14  C   UNL     1      50.470   8.405  11.353  0.00  0.00    +0.000 A 
ATOM     15  C   UNL     1      49.516   7.423  11.637  0.00  0.00    +0.000 A 
BRANCH  14  16
ATOM     16  C   UNL     1      51.863   8.052  10.952  0.00  0.00    +0.000 C 
ATOM     17  F   UNL     1      51.946   6.857  10.306  0.00  0.00    +0.000 F 
ATOM     18  F   UNL     1      52.411   8.972  10.110  0.00  0.00    +0.000 F 
ATOM     19  F   UNL     1      52.714   7.965  12.010  0.00  0.00    +0.000 F 
ENDBRANCH  14  16
ENDBRANCH   8  10
ENDBRANCH   1   4
BRANCH   1  20
ATOM     20  N   UNL     1      43.941   5.193   9.735  0.00  0.00    +0.000 N 
ATOM     21  H   UNL     1      43.275   5.491   9.029  0.00  0.00    +0.000 HD
BRANCH  20  27
ATOM     22  C   UNL     1      44.551   2.754   9.658  0.00  0.00    +0.000 A 
ATOM     23  C   UNL     1      45.310   1.791   8.984  0.00  0.00    +0.000 A 
ATOM     24  C   UNL     1      46.195   2.155   7.978  0.00  0.00    +0.000 A 
ATOM     25  C   UNL     1      46.229   3.490   7.638  0.00  0.00    +0.000 A 
ATOM     26  N   UNL     1      45.439   4.430   8.222  0.00  0.00    +0.000 NA
ATOM     27  C   UNL     1      44.601   4.080   9.239  0.00  0.00    +0.000 A 
BRANCH  24  28
ATOM     28  C   UNL     1      47.055   1.091   7.423  0.00  0.00    +0.000 C 
ATOM     29  N   UNL     1      46.768  -0.207   7.697  0.00  0.00    +0.000 N 
ATOM     30  O   UNL     1      48.003   1.369   6.696  0.00  0.00    +0.000 OA
ATOM     31  H   UNL     1      45.964  -0.547   8.207  0.00  0.00    +0.000 HD
ATOM     32  H   UNL     1      47.342  -0.890   7.218  0.00  0.00    +0.000 HD
ENDBRANCH  24  28
BRANCH  22  34
ATOM     33  N   UNL     1      43.090   1.787  11.546  0.00  0.00    +0.000 NA
ATOM     34  C   UNL     1      43.813   2.227  10.772  0.00  0.00    +0.000 C 
ENDBRANCH  22  34
ENDBRANCH  20  27
ENDBRANCH   1  20
TORSDOF 7
ENDMDL
MODEL 2
REMARK VINA RESULT:    -8.852      3.207      4.408
REMARK INTER + INTRA:         -13.594
REMARK INTER:                 -12.363
REMARK INTRA:                  -1.231
REMARK UNBOUND:                -1.120
REMARK  Name = 
REMARK  7 active torsions:
REMARK  status: ('A' for Active; 'I' for Inactive)
REMARK    1  A    between atoms: C_2  and  C_3
REMARK    2  A    between atoms: C_5  and  C_6
REMARK    3  A    between atoms: C_11  and  N_12
REMARK    4  A    between atoms: N_12  and  C_13
REMARK    5  A    between atoms: C_13  and  C_14
REMARK    6  A    between atoms: C_18  and  C_19
REMARK    7  A    between atoms: C_23  and  C_24
REMARK                            x       y       z     vdW  Elec       q    Type
REMARK                         _______ _______ _______ _____ _____    ______ ____
ROOT
ATOM      1  C   UNL     1      43.777   5.778  11.050  0.00  0.00    +0.000 C 
ATOM      2  C   UNL     1      42.657   5.293  11.976  0.00  0.00    +0.000 C 
ATOM      3  C   UNL     1      42.696   6.720  11.528  0.00  0.00    +0.000 C 
ENDROOT
BRANCH   1   4
ATOM      4  C   UNL     1      45.143   6.047  11.620  0.00  0.00    +0.000 A 
ATOM      5  C   UNL     1      45.858   7.192  11.249  0.00  0.00    +0.000 A 
ATOM      6  C   UNL     1      47.046   7.537  11.877  0.00  0.00    +0.000 A 
ATOM      7  C   UNL     1      47.535   6.736  12.903  0.00  0.00    +0.000 A 
ATOM      8  C   UNL     1      46.858   5.577  13.298  0.00  0.00    +0.000 A 
ATOM      9  C   UNL     1      45.691   5.224  12.608  0.00  0.00    +0.000 A 
BRANCH   8  10
ATOM     10  C   UNL     1      47.294   4.790  14.457  0.00  0.00    +0.000 A 
ATOM     11  C   UNL     1      47.372   3.399  14.430  0.00  0.00    +0.000 A 
ATOM     12  N   UNL     1      47.786   2.633  15.466  0.00  0.00    +0.000 NA
ATOM     13  C   UNL     1      48.150   3.285  16.591  0.00  0.00    +0.000 A 
ATOM     14  C   UNL     1      48.122   4.659  16.740  0.00  0.00    +0.000 A 
ATOM     15  C   UNL     1      47.683   5.414  15.647  0.00  0.00    +0.000 A 
BRANCH  14  16
ATOM     16  C   UNL     1      48.547   5.303  18.017  0.00  0.00    +0.000 C 
ATOM     17  F   UNL     1      49.715   4.804  18.504  0.00  0.00    +0.000 F 
ATOM     18  F   UNL     1      48.739   6.645  17.884  0.00  0.00    +0.000 F 
ATOM     19  F   UNL     1      47.633   5.157  19.015  0.00  0.00    +0.000 F 
ENDBRANCH  14  16
ENDBRANCH   8  10
ENDBRANCH   1   4
BRANCH   1  20
ATOM     20  N   UNL     1      43.799   5.126   9.744  0.00  0.00    +0.000 N 
ATOM     21  H   UNL     1      42.993   5.261   9.140  0.00  0.00    +0.000 HD
BRANCH  20  27
ATOM     22  C   UNL     1      44.523   2.718   9.674  0.00  0.00    +0.000 A 
ATOM     23  C   UNL     1      45.325   1.789   9.001  0.00  0.00    +0.000 A 
ATOM     24  C   UNL     1      46.189   2.190   7.991  0.00  0.00    +0.000 A 
ATOM     25  C   UNL     1      46.159   3.524   7.646  0.00  0.00    +0.000 A 
ATOM     26  N   UNL     1      45.327   4.428   8.229  0.00  0.00    +0.000 NA
ATOM     27  C   UNL     1      44.509   4.042   9.250  0.00  0.00    +0.000 A 
BRANCH  24  28
ATOM     28  C   UNL     1      47.096   1.166   7.438  0.00  0.00    +0.000 C 
ATOM     29  N   UNL     1      46.813  -0.148   7.629  0.00  0.00    +0.000 N 
ATOM     30  O   UNL     1      48.082   1.491   6.785  0.00  0.00    +0.000 OA
ATOM     31  H   UNL     1      45.984  -0.522   8.071  0.00  0.00    +0.000 HD
ATOM     32  H   UNL     1      47.425  -0.799   7.152  0.00  0.00    +0.000 HD
ENDBRANCH  24  28
BRANCH  22  34
ATOM     33  N   UNL     1      43.121   1.832  11.644  0.00  0.00    +0.000 NA
ATOM     34  C   UNL     1      43.814   2.161  10.792  0.00  0.00    +0.000 C 
ENDBRANCH  22  34
ENDBRANCH  20  27
ENDBRANCH   1  20
TORSDOF 7
ENDMDL
MODEL 3
REMARK VINA RESULT:    -8.011      4.662      7.823
REMARK INTER + INTRA:         -12.409
REMARK INTER:                 -11.098
REMARK INTRA:                  -1.311
REMARK UNBOUND:                -1.120
REMARK  Name = 
REMARK  7 active torsions:
REMARK  status: ('A' for Active; 'I' for Inactive)
REMARK    1  A    between atoms: C_2  and  C_3
REMARK    2  A    between atoms: C_5  and  C_6
REMARK    3  A    between atoms: C_11  and  N_12
REMARK    4  A    between atoms: N_12  and  C_13
REMARK    5  A    between atoms: C_13  and  C_14
REMARK    6  A    between atoms: C_18  and  C_19
REMARK    7  A    between atoms: C_23  and  C_24
REMARK                            x       y       z     vdW  Elec       q    Type
REMARK                         _______ _______ _______ _____ _____    ______ ____
ROOT
ATOM      1  C   UNL     1      48.277   8.126  13.432  0.00  0.00    +0.000 C 
ATOM      2  C   UNL     1      49.361   8.959  12.739  0.00  0.00    +0.000 C 
ATOM      3  C   UNL     1      48.628   9.512  13.921  0.00  0.00    +0.000 C 
ENDROOT
BRANCH   1   4
ATOM      4  C   UNL     1      46.917   8.009  12.799  0.00  0.00    +0.000 A 
ATOM      5  C   UNL     1      46.105   9.138  12.640  0.00  0.00    +0.000 A 
ATOM      6  C   UNL     1      44.919   9.078  11.923  0.00  0.00    +0.000 A 
ATOM      7  C   UNL     1      44.531   7.878  11.340  0.00  0.00    +0.000 A 
ATOM      8  C   UNL     1      45.309   6.722  11.482  0.00  0.00    +0.000 A 
ATOM      9  C   UNL     1      46.471   6.799  12.259  0.00  0.00    +0.000 A 
BRANCH   8  10
ATOM     10  C   UNL     1      44.977   5.482  10.773  0.00  0.00    +0.000 A 
ATOM     11  C   UNL     1      43.933   4.649  11.170  0.00  0.00    +0.000 A 
ATOM     12  N   UNL     1      43.579   3.506  10.538  0.00  0.00    +0.000 NA
ATOM     13  C   UNL     1      44.297   3.174   9.445  0.00  0.00    +0.000 A 
ATOM     14  C   UNL     1      45.351   3.919   8.947  0.00  0.00    +0.000 A 
ATOM     15  C   UNL     1      45.689   5.090   9.634  0.00  0.00    +0.000 A 
BRANCH  14  16
ATOM     16  C   UNL     1      46.092   3.484   7.728  0.00  0.00    +0.000 C 
ATOM     17  F   UNL     1      45.285   3.312   6.646  0.00  0.00    +0.000 F 
ATOM     18  F   UNL     1      47.042   4.384   7.348  0.00  0.00    +0.000 F 
ATOM     19  F   UNL     1      46.747   2.303   7.897  0.00  0.00    +0.000 F 
ENDBRANCH  14  16
ENDBRANCH   8  10
ENDBRANCH   1   4
BRANCH   1  20
ATOM     20  N   UNL     1      48.764   6.883  14.024  0.00  0.00    +0.000 N 
ATOM     21  H   UNL     1      49.094   6.161  13.390  0.00  0.00    +0.000 HD
BRANCH  20  27
ATOM     22  C   UNL     1      47.815   5.148  15.578  0.00  0.00    +0.000 A 
ATOM     23  C   UNL     1      47.750   4.727  16.910  0.00  0.00    +0.000 A 
ATOM     24  C   UNL     1      48.312   5.485  17.928  0.00  0.00    +0.000 A 
ATOM     25  C   UNL     1      48.990   6.624  17.547  0.00  0.00    +0.000 A 
ATOM     26  N   UNL     1      49.137   7.007  16.251  0.00  0.00    +0.000 NA
ATOM     27  C   UNL     1      48.548   6.285  15.256  0.00  0.00    +0.000 A 
BRANCH  24  28
ATOM     28  C   UNL     1      48.072   5.035  19.313  0.00  0.00    +0.000 C 
ATOM     29  N   UNL     1      48.510   3.811  19.701  0.00  0.00    +0.000 N 
ATOM     30  O   UNL     1      47.509   5.768  20.120  0.00  0.00    +0.000 OA
ATOM     31  H   UNL     1      49.060   3.169  19.145  0.00  0.00    +0.000 HD
ATOM     32  H   UNL     1      48.391   3.597  20.683  0.00  0.00    +0.000 HD
ENDBRANCH  24  28
BRANCH  22  34
ATOM     33  N   UNL     1      46.584   3.593  13.934  0.00  0.00    +0.000 NA
ATOM     34  C   UNL     1      47.046   4.332  14.680  0.00  0.00    +0.000 C 
ENDBRANCH  22  34
ENDBRANCH  20  27
ENDBRANCH   1  20
TORSDOF 7
ENDMDL
MODEL 4
REMARK VINA RESULT:    -7.863      1.393      2.048
REMARK INTER + INTRA:         -12.200
REMARK INTER:                 -11.530
REMARK INTRA:                  -0.671
REMARK UNBOUND:                -1.120
REMARK  Name = 
REMARK  7 active torsions:
REMARK  status: ('A' for Active; 'I' for Inactive)
REMARK    1  A    between atoms: C_2  and  C_3
REMARK    2  A    between atoms: C_5  and  C_6
REMARK    3  A    between atoms: C_11  and  N_12
REMARK    4  A    between atoms: N_12  and  C_13
REMARK    5  A    between atoms: C_13  and  C_14
REMARK    6  A    between atoms: C_18  and  C_19
REMARK    7  A    between atoms: C_23  and  C_24
REMARK                            x       y       z     vdW  Elec       q    Type
REMARK                         _______ _______ _______ _____ _____    ______ ____
ROOT
ATOM      1  C   UNL     1      44.831   5.951  11.500  0.00  0.00    +0.000 C 
ATOM      2  C   UNL     1      45.198   4.805  12.448  0.00  0.00    +0.000 C 
ATOM      3  C   UNL     1      43.939   5.585  12.664  0.00  0.00    +0.000 C 
ENDROOT
BRANCH   1   4
ATOM      4  C   UNL     1      45.532   7.276  11.637  0.00  0.00    +0.000 A 
ATOM      5  C   UNL     1      44.798   8.460  11.773  0.00  0.00    +0.000 A 
ATOM      6  C   UNL     1      45.421   9.668  12.054  0.00  0.00    +0.000 A 
ATOM      7  C   UNL     1      46.800   9.704  12.216  0.00  0.00    +0.000 A 
ATOM      8  C   UNL     1      47.574   8.545  12.079  0.00  0.00    +0.000 A 
ATOM      9  C   UNL     1      46.924   7.352  11.738  0.00  0.00    +0.000 A 
BRANCH   8  10
ATOM     10  C   UNL     1      49.013   8.544  12.365  0.00  0.00    +0.000 A 
ATOM     11  C   UNL     1      49.524   8.833  13.629  0.00  0.00    +0.000 A 
ATOM     12  N   UNL     1      50.840   8.826  13.944  0.00  0.00    +0.000 NA
ATOM     13  C   UNL     1      51.697   8.509  12.951  0.00  0.00    +0.000 A 
ATOM     14  C   UNL     1      51.314   8.200  11.659  0.00  0.00    +0.000 A 
ATOM     15  C   UNL     1      49.945   8.223  11.373  0.00  0.00    +0.000 A 
BRANCH  14  16
ATOM     16  C   UNL     1      52.326   7.854  10.619  0.00  0.00    +0.000 C 
ATOM     17  F   UNL     1      52.135   6.622  10.075  0.00  0.00    +0.000 F 
ATOM     18  F   UNL     1      52.318   8.730   9.575  0.00  0.00    +0.000 F 
ATOM     19  F   UNL     1      53.601   7.858  11.096  0.00  0.00    +0.000 F 
ENDBRANCH  14  16
ENDBRANCH   8  10
ENDBRANCH   1   4
BRANCH   1  20
ATOM     20  N   UNL     1      44.612   5.538  10.117  0.00  0.00    +0.000 N 
ATOM     21  H   UNL     1      43.731   5.801   9.684  0.00  0.00    +0.000 HD
BRANCH  20  27
ATOM     22  C   UNL     1      44.953   3.164   9.358  0.00  0.00    +0.000 A 
ATOM     23  C   UNL     1      45.640   2.345   8.455  0.00  0.00    +0.000 A 
ATOM     24  C   UNL     1      46.617   2.866   7.618  0.00  0.00    +0.000 A 
ATOM     25  C   UNL     1      46.817   4.229   7.676  0.00  0.00    +0.000 A 
ATOM     26  N   UNL     1      46.103   5.055   8.486  0.00  0.00    +0.000 NA
ATOM     27  C   UNL     1      45.173   4.537   9.339  0.00  0.00    +0.000 A 
BRANCH  24  28
ATOM     28  C   UNL     1      47.385   1.906   6.803  0.00  0.00    +0.000 C 
ATOM     29  N   UNL     1      48.451   2.343   6.086  0.00  0.00    +0.000 N 
ATOM     30  O   UNL     1      47.088   0.716   6.794  0.00  0.00    +0.000 OA
ATOM     31  H   UNL     1      48.833   3.279   6.094  0.00  0.00    +0.000 HD
ATOM     32  H   UNL     1      48.987   1.623   5.617  0.00  0.00    +0.000 HD
ENDBRANCH  24  28
BRANCH  22  34
ATOM     33  N   UNL     1      43.387   2.016  11.050  0.00  0.00    +0.000 NA
ATOM     34  C   UNL     1      44.097   2.439  10.255  0.00  0.00    +0.000 C 
ENDBRANCH  22  34
ENDBRANCH  20  27
ENDBRANCH   1  20
TORSDOF 7
ENDMDL
MODEL 5
REMARK VINA RESULT:    -7.642      4.749      8.348
REMARK INTER + INTRA:         -11.890
REMARK INTER:                 -10.441
REMARK INTRA:                  -1.448
REMARK UNBOUND:                -1.120
REMARK  Name = 
REMARK  7 active torsions:
REMARK  status: ('A' for Active; 'I' for Inactive)
REMARK    1  A    between atoms: C_2  and  C_3
REMARK    2  A    between atoms: C_5  and  C_6
REMARK    3  A    between atoms: C_11  and  N_12
REMARK    4  A    between atoms: N_12  and  C_13
REMARK    5  A    between atoms: C_13  and  C_14
REMARK    6  A    between atoms: C_18  and  C_19
REMARK    7  A    between atoms: C_23  and  C_24
REMARK                            x       y       z     vdW  Elec       q    Type
REMARK                         _______ _______ _______ _____ _____    ______ ____
ROOT
ATOM      1  C   UNL     1      49.029   7.939  12.918  0.00  0.00    +0.000 C 
ATOM      2  C   UNL     1      49.988   8.102  11.735  0.00  0.00    +0.000 C 
ATOM      3  C   UNL     1      49.638   9.282  12.586  0.00  0.00    +0.000 C 
ENDROOT
BRANCH   1   4
ATOM      4  C   UNL     1      47.550   7.839  12.662  0.00  0.00    +0.000 A 
ATOM      5  C   UNL     1      46.715   8.945  12.864  0.00  0.00    +0.000 A 
ATOM      6  C   UNL     1      45.380   8.919  12.488  0.00  0.00    +0.000 A 
ATOM      7  C   UNL     1      44.860   7.778  11.890  0.00  0.00    +0.000 A 
ATOM      8  C   UNL     1      45.656   6.646  11.679  0.00  0.00    +0.000 A 
ATOM      9  C   UNL     1      46.985   6.681  12.120  0.00  0.00    +0.000 A 
BRANCH   8  10
ATOM     10  C   UNL     1      45.156   5.481  10.941  0.00  0.00    +0.000 A 
ATOM     11  C   UNL     1      44.032   4.764  11.348  0.00  0.00    +0.000 A 
ATOM     12  N   UNL     1      43.524   3.696  10.690  0.00  0.00    +0.000 NA
ATOM     13  C   UNL     1      44.163   3.322   9.561  0.00  0.00    +0.000 A 
ATOM     14  C   UNL     1      45.283   3.954   9.052  0.00  0.00    +0.000 A 
ATOM     15  C   UNL     1      45.780   5.050   9.765  0.00  0.00    +0.000 A 
BRANCH  14  16
ATOM     16  C   UNL     1      45.927   3.480   7.793  0.00  0.00    +0.000 C 
ATOM     17  F   UNL     1      46.888   4.328   7.333  0.00  0.00    +0.000 F 
ATOM     18  F   UNL     1      46.536   2.271   7.944  0.00  0.00    +0.000 F 
ATOM     19  F   UNL     1      45.044   3.326   6.770  0.00  0.00    +0.000 F 
ENDBRANCH  14  16
ENDBRANCH   8  10
ENDBRANCH   1   4
BRANCH   1  20
ATOM     20  N   UNL     1      49.512   7.038  13.961  0.00  0.00    +0.000 N 
ATOM     21  H   UNL     1      50.047   6.227  13.666  0.00  0.00    +0.000 HD
BRANCH  20  27
ATOM     22  C   UNL     1      49.164   7.652  16.375  0.00  0.00    +0.000 A 
ATOM     23  C   UNL     1      48.674   7.201  17.605  0.00  0.00    +0.000 A 
ATOM     24  C   UNL     1      48.232   5.894  17.763  0.00  0.00    +0.000 A 
ATOM     25  C   UNL     1      48.237   5.101  16.636  0.00  0.00    +0.000 A 
ATOM     26  N   UNL     1      48.630   5.544  15.412  0.00  0.00    +0.000 NA
ATOM     27  C   UNL     1      49.105   6.814  15.267  0.00  0.00    +0.000 A 
BRANCH  24  28
ATOM     28  C   UNL     1      47.867   5.469  19.128  0.00  0.00    +0.000 C 
ATOM     29  N   UNL     1      48.242   4.240  19.565  0.00  0.00    +0.000 N 
ATOM     30  O   UNL     1      47.257   6.225  19.876  0.00  0.00    +0.000 OA
ATOM     31  H   UNL     1      48.820   3.579  19.065  0.00  0.00    +0.000 HD
ATOM     32  H   UNL     1      48.037   4.042  20.537  0.00  0.00    +0.000 HD
ENDBRANCH  24  28
BRANCH  22  34
ATOM     33  N   UNL     1      50.322   9.947  16.541  0.00  0.00    +0.000 NA
ATOM     34  C   UNL     1      49.728   8.972  16.431  0.00  0.00    +0.000 C 
ENDBRANCH  22  34
ENDBRANCH  20  27
ENDBRANCH   1  20
TORSDOF 7
ENDMDL
MODEL 6
REMARK VINA RESULT:    -7.371      5.722      8.396
REMARK INTER + INTRA:         -11.507
REMARK INTER:                 -10.489
REMARK INTRA:                  -1.019
REMARK UNBOUND:                -1.120
REMARK  Name = 
REMARK  7 active torsions:
REMARK  status: ('A' for Active; 'I' for Inactive)
REMARK    1  A    between atoms: C_2  and  C_3
REMARK    2  A    between atoms: C_5  and  C_6
REMARK    3  A    between atoms: C_11  and  N_12
REMARK    4  A    between atoms: N_12  and  C_13
REMARK    5  A    between atoms: C_13  and  C_14
REMARK    6  A    between atoms: C_18  and  C_19
REMARK    7  A    between atoms: C_23  and  C_24
REMARK                            x       y       z     vdW  Elec       q    Type
REMARK                         _______ _______ _______ _____ _____    ______ ____
ROOT
ATOM      1  C   UNL     1      49.104   7.719  16.744  0.00  0.00    +0.000 C 
ATOM      2  C   UNL     1      50.156   8.735  17.203  0.00  0.00    +0.000 C 
ATOM      3  C   UNL     1      48.708   9.113  17.173  0.00  0.00    +0.000 C 
ENDROOT
BRANCH   1   4
ATOM      4  C   UNL     1      48.936   7.442  15.275  0.00  0.00    +0.000 A 
ATOM      5  C   UNL     1      49.917   7.837  14.359  0.00  0.00    +0.000 A 
ATOM      6  C   UNL     1      49.855   7.456  13.026  0.00  0.00    +0.000 A 
ATOM      7  C   UNL     1      48.805   6.658  12.591  0.00  0.00    +0.000 A 
ATOM      8  C   UNL     1      47.796   6.248  13.472  0.00  0.00    +0.000 A 
ATOM      9  C   UNL     1      47.855   6.695  14.798  0.00  0.00    +0.000 A 
BRANCH   8  10
ATOM     10  C   UNL     1      46.750   5.308  13.057  0.00  0.00    +0.000 A 
ATOM     11  C   UNL     1      46.792   3.952  13.377  0.00  0.00    +0.000 A 
ATOM     12  N   UNL     1      45.842   3.052  13.033  0.00  0.00    +0.000 NA
ATOM     13  C   UNL     1      44.787   3.524  12.337  0.00  0.00    +0.000 A 
ATOM     14  C   UNL     1      44.627   4.846  11.963  0.00  0.00    +0.000 A 
ATOM     15  C   UNL     1      45.634   5.743  12.333  0.00  0.00    +0.000 A 
BRANCH  14  16
ATOM     16  C   UNL     1      43.426   5.289  11.197  0.00  0.00    +0.000 C 
ATOM     17  F   UNL     1      43.338   6.641  11.077  0.00  0.00    +0.000 F 
ATOM     18  F   UNL     1      43.410   4.798   9.926  0.00  0.00    +0.000 F 
ATOM     19  F   UNL     1      42.256   4.887  11.764  0.00  0.00    +0.000 F 
ENDBRANCH  14  16
ENDBRANCH   8  10
ENDBRANCH   1   4
BRANCH   1  20
ATOM     20  N   UNL     1      49.014   6.529  17.586  0.00  0.00    +0.000 N 
ATOM     21  H   UNL     1      48.664   6.651  18.532  0.00  0.00    +0.000 HD
BRANCH  20  27
ATOM     22  C   UNL     1      49.103   4.027  17.348  0.00  0.00    +0.000 A 
ATOM     23  C   UNL     1      49.952   2.916  17.320  0.00  0.00    +0.000 A 
ATOM     24  C   UNL     1      51.309   3.046  17.582  0.00  0.00    +0.000 A 
ATOM     25  C   UNL     1      51.776   4.325  17.798  0.00  0.00    +0.000 A 
ATOM     26  N   UNL     1      50.983   5.428  17.748  0.00  0.00    +0.000 NA
ATOM     27  C   UNL     1      49.643   5.295  17.532  0.00  0.00    +0.000 A 
BRANCH  24  28
ATOM     28  C   UNL     1      52.099   1.803  17.670  0.00  0.00    +0.000 C 
ATOM     29  N   UNL     1      51.458   0.608  17.718  0.00  0.00    +0.000 N 
ATOM     30  O   UNL     1      53.325   1.839  17.668  0.00  0.00    +0.000 OA
ATOM     31  H   UNL     1      50.460   0.462  17.636  0.00  0.00    +0.000 HD
ATOM     32  H   UNL     1      52.055  -0.209  17.690  0.00  0.00    +0.000 HD
ENDBRANCH  24  28
BRANCH  22  34
ATOM     33  N   UNL     1      46.645   3.273  17.196  0.00  0.00    +0.000 NA
ATOM     34  C   UNL     1      47.713   3.690  17.216  0.00  0.00    +0.000 C 
ENDBRANCH  22  34
ENDBRANCH  20  27
ENDBRANCH   1  20
TORSDOF 7
ENDMDL
MODEL 7
REMARK VINA RESULT:    -7.349      2.192      2.920
REMARK INTER + INTRA:         -11.476
REMARK INTER:                 -11.211
REMARK INTRA:                  -0.264
REMARK UNBOUND:                -1.120
REMARK  Name = 
REMARK  7 active torsions:
REMARK  status: ('A' for Active; 'I' for Inactive)
REMARK    1  A    between atoms: C_2  and  C_3
REMARK    2  A    between atoms: C_5  and  C_6
REMARK    3  A    between atoms: C_11  and  N_12
REMARK    4  A    between atoms: N_12  and  C_13
REMARK    5  A    between atoms: C_13  and  C_14
REMARK    6  A    between atoms: C_18  and  C_19
REMARK    7  A    between atoms: C_23  and  C_24
REMARK                            x       y       z     vdW  Elec       q    Type
REMARK                         _______ _______ _______ _____ _____    ______ ____
ROOT
ATOM      1  C   UNL     1      44.612   5.986  11.579  0.00  0.00    +0.000 C 
ATOM      2  C   UNL     1      44.914   4.881  12.598  0.00  0.00    +0.000 C 
ATOM      3  C   UNL     1      43.682   5.720  12.740  0.00  0.00    +0.000 C 
ENDROOT
BRANCH   1   4
ATOM      4  C   UNL     1      45.361   7.289  11.658  0.00  0.00    +0.000 A 
ATOM      5  C   UNL     1      44.698   8.504  11.453  0.00  0.00    +0.000 A 
ATOM      6  C   UNL     1      45.333   9.719  11.673  0.00  0.00    +0.000 A 
ATOM      7  C   UNL     1      46.650   9.731  12.116  0.00  0.00    +0.000 A 
ATOM      8  C   UNL     1      47.353   8.539  12.324  0.00  0.00    +0.000 A 
ATOM      9  C   UNL     1      46.705   7.330  12.039  0.00  0.00    +0.000 A 
BRANCH   8  10
ATOM     10  C   UNL     1      48.699   8.533  12.906  0.00  0.00    +0.000 A 
ATOM     11  C   UNL     1      49.758   9.250  12.351  0.00  0.00    +0.000 A 
ATOM     12  N   UNL     1      51.010   9.289  12.863  0.00  0.00    +0.000 NA
ATOM     13  C   UNL     1      51.223   8.582  13.992  0.00  0.00    +0.000 A 
ATOM     14  C   UNL     1      50.256   7.836  14.640  0.00  0.00    +0.000 A 
ATOM     15  C   UNL     1      48.976   7.817  14.076  0.00  0.00    +0.000 A 
BRANCH  14  16
ATOM     16  C   UNL     1      50.573   7.085  15.890  0.00  0.00    +0.000 C 
ATOM     17  F   UNL     1      51.820   6.541  15.885  0.00  0.00    +0.000 F 
ATOM     18  F   UNL     1      50.513   7.873  17.000  0.00  0.00    +0.000 F 
ATOM     19  F   UNL     1      49.716   6.053  16.121  0.00  0.00    +0.000 F 
ENDBRANCH  14  16
ENDBRANCH   8  10
ENDBRANCH   1   4
BRANCH   1  20
ATOM     20  N   UNL     1      44.407   5.503  10.216  0.00  0.00    +0.000 N 
ATOM     21  H   UNL     1      43.579   5.827   9.725  0.00  0.00    +0.000 HD
BRANCH  20  27
ATOM     22  C   UNL     1      44.607   3.046   9.714  0.00  0.00    +0.000 A 
ATOM     23  C   UNL     1      45.215   2.101   8.881  0.00  0.00    +0.000 A 
ATOM     24  C   UNL     1      46.175   2.478   7.952  0.00  0.00    +0.000 A 
ATOM     25  C   UNL     1      46.439   3.827   7.850  0.00  0.00    +0.000 A 
ATOM     26  N   UNL     1      45.799   4.772   8.590  0.00  0.00    +0.000 NA
ATOM     27  C   UNL     1      44.887   4.397   9.533  0.00  0.00    +0.000 A 
BRANCH  24  28
ATOM     28  C   UNL     1      46.862   1.397   7.219  0.00  0.00    +0.000 C 
ATOM     29  N   UNL     1      46.725   0.115   7.641  0.00  0.00    +0.000 N 
ATOM     30  O   UNL     1      47.528   1.645   6.219  0.00  0.00    +0.000 OA
ATOM     31  H   UNL     1      46.131  -0.206   8.394  0.00  0.00    +0.000 HD
ATOM     32  H   UNL     1      47.149  -0.587   7.047  0.00  0.00    +0.000 HD
ENDBRANCH  24  28
BRANCH  22  34
ATOM     33  N   UNL     1      43.109   2.156  11.611  0.00  0.00    +0.000 NA
ATOM     34  C   UNL     1      43.762   2.466  10.720  0.00  0.00    +0.000 C 
ENDBRANCH  22  34
ENDBRANCH  20  27
ENDBRANCH   1  20
TORSDOF 7
ENDMDL
MODEL 8
REMARK VINA RESULT:    -7.249      6.691      9.086
REMARK INTER + INTRA:         -11.335
REMARK INTER:                 -10.119
REMARK INTRA:                  -1.216
REMARK UNBOUND:                -1.120
REMARK  Name = 
REMARK  7 active torsions:
REMARK  status: ('A' for Active; 'I' for Inactive)
REMARK    1  A    between atoms: C_2  and  C_3
REMARK    2  A    between atoms: C_5  and  C_6
REMARK    3  A    between atoms: C_11  and  N_12
REMARK    4  A    between atoms: N_12  and  C_13
REMARK    5  A    between atoms: C_13  and  C_14
REMARK    6  A    between atoms: C_18  and  C_19
REMARK    7  A    between atoms: C_23  and  C_24
REMARK                            x       y       z     vdW  Elec       q    Type
REMARK                         _______ _______ _______ _____ _____    ______ ____
ROOT
ATOM      1  C   UNL     1      49.395   5.218  17.854  0.00  0.00    +0.000 C 
ATOM      2  C   UNL     1      48.839   5.815  19.151  0.00  0.00    +0.000 C 
ATOM      3  C   UNL     1      48.282   4.534  18.614  0.00  0.00    +0.000 C 
ENDROOT
BRANCH   1   4
ATOM      4  C   UNL     1      48.984   5.809  16.533  0.00  0.00    +0.000 A 
ATOM      5  C   UNL     1      49.733   6.835  15.947  0.00  0.00    +0.000 A 
ATOM      6  C   UNL     1      49.461   7.285  14.663  0.00  0.00    +0.000 A 
ATOM      7  C   UNL     1      48.431   6.700  13.937  0.00  0.00    +0.000 A 
ATOM      8  C   UNL     1      47.649   5.678  14.488  0.00  0.00    +0.000 A 
ATOM      9  C   UNL     1      47.911   5.284  15.807  0.00  0.00    +0.000 A 
BRANCH   8  10
ATOM     10  C   UNL     1      46.641   4.968  13.694  0.00  0.00    +0.000 A 
ATOM     11  C   UNL     1      46.656   3.585  13.527  0.00  0.00    +0.000 A 
ATOM     12  N   UNL     1      45.738   2.887  12.820  0.00  0.00    +0.000 NA
ATOM     13  C   UNL     1      44.744   3.600  12.251  0.00  0.00    +0.000 A 
ATOM     14  C   UNL     1      44.616   4.974  12.346  0.00  0.00    +0.000 A 
ATOM     15  C   UNL     1      45.589   5.659  13.082  0.00  0.00    +0.000 A 
BRANCH  14  16
ATOM     16  C   UNL     1      43.483   5.688  11.690  0.00  0.00    +0.000 C 
ATOM     17  F   UNL     1      43.710   7.021  11.534  0.00  0.00    +0.000 F 
ATOM     18  F   UNL     1      43.215   5.205  10.445  0.00  0.00    +0.000 F 
ATOM     19  F   UNL     1      42.317   5.587  12.386  0.00  0.00    +0.000 F 
ENDBRANCH  14  16
ENDBRANCH   8  10
ENDBRANCH   1   4
BRANCH   1  20
ATOM     20  N   UNL     1      50.805   4.845  17.923  0.00  0.00    +0.000 N 
ATOM     21  H   UNL     1      51.489   5.554  17.676  0.00  0.00    +0.000 HD
BRANCH  20  27
ATOM     22  C   UNL     1      51.069   2.423  17.297  0.00  0.00    +0.000 A 
ATOM     23  C   UNL     1      51.905   1.306  17.398  0.00  0.00    +0.000 A 
ATOM     24  C   UNL     1      53.053   1.340  18.178  0.00  0.00    +0.000 A 
ATOM     25  C   UNL     1      53.355   2.543  18.779  0.00  0.00    +0.000 A 
ATOM     26  N   UNL     1      52.602   3.665  18.626  0.00  0.00    +0.000 NA
ATOM     27  C   UNL     1      51.451   3.619  17.896  0.00  0.00    +0.000 A 
BRANCH  24  28
ATOM     28  C   UNL     1      53.795   0.075  18.338  0.00  0.00    +0.000 C 
ATOM     29  N   UNL     1      53.971  -0.735  17.263  0.00  0.00    +0.000 N 
ATOM     30  O   UNL     1      54.277  -0.235  19.423  0.00  0.00    +0.000 OA
ATOM     31  H   UNL     1      53.695  -0.532  16.311  0.00  0.00    +0.000 HD
ATOM     32  H   UNL     1      54.560  -1.543  17.418  0.00  0.00    +0.000 HD
ENDBRANCH  24  28
BRANCH  22  34
ATOM     33  N   UNL     1      48.818   1.881  16.168  0.00  0.00    +0.000 NA
ATOM     34  C   UNL     1      49.848   2.164  16.586  0.00  0.00    +0.000 C 
ENDBRANCH  22  34
ENDBRANCH  20  27
ENDBRANCH   1  20
TORSDOF 7
ENDMDL
MODEL 9
REMARK VINA RESULT:    -7.030      4.895      6.433
REMARK INTER + INTRA:         -11.027
REMARK INTER:                  -9.613
REMARK INTRA:                  -1.414
REMARK UNBOUND:                -1.120
REMARK  Name = 
REMARK  7 active torsions:
REMARK  status: ('A' for Active; 'I' for Inactive)
REMARK    1  A    between atoms: C_2  and  C_3
REMARK    2  A    between atoms: C_5  and  C_6
REMARK    3  A    between atoms: C_11  and  N_12
REMARK    4  A    between atoms: N_12  and  C_13
REMARK    5  A    between atoms: C_13  and  C_14
REMARK    6  A    between atoms: C_18  and  C_19
REMARK    7  A    between atoms: C_23  and  C_24
REMARK                            x       y       z     vdW  Elec       q    Type
REMARK                         _______ _______ _______ _____ _____    ______ ____
ROOT
ATOM      1  C   UNL     1      47.997   7.723  13.272  0.00  0.00    +0.000 C 
ATOM      2  C   UNL     1      48.293   8.695  12.125  0.00  0.00    +0.000 C 
ATOM      3  C   UNL     1      48.970   7.361  12.173  0.00  0.00    +0.000 C 
ENDROOT
BRANCH   1   4
ATOM      4  C   UNL     1      48.627   7.954  14.618  0.00  0.00    +0.000 A 
ATOM      5  C   UNL     1      48.254   9.054  15.400  0.00  0.00    +0.000 A 
ATOM      6  C   UNL     1      48.707   9.200  16.703  0.00  0.00    +0.000 A 
ATOM      7  C   UNL     1      49.539   8.231  17.251  0.00  0.00    +0.000 A 
ATOM      8  C   UNL     1      49.944   7.120  16.501  0.00  0.00    +0.000 A 
ATOM      9  C   UNL     1      49.518   7.029  15.170  0.00  0.00    +0.000 A 
BRANCH   8  10
ATOM     10  C   UNL     1      50.721   6.030  17.102  0.00  0.00    +0.000 A 
ATOM     11  C   UNL     1      51.887   6.256  17.831  0.00  0.00    +0.000 A 
ATOM     12  N   UNL     1      52.625   5.285  18.417  0.00  0.00    +0.000 NA
ATOM     13  C   UNL     1      52.178   4.020  18.279  0.00  0.00    +0.000 A 
ATOM     14  C   UNL     1      51.035   3.667  17.585  0.00  0.00    +0.000 A 
ATOM     15  C   UNL     1      50.303   4.700  16.988  0.00  0.00    +0.000 A 
BRANCH  14  16
ATOM     16  C   UNL     1      50.606   2.242  17.482  0.00  0.00    +0.000 C 
ATOM     17  F   UNL     1      51.473   1.379  18.077  0.00  0.00    +0.000 F 
ATOM     18  F   UNL     1      49.396   2.020  18.068  0.00  0.00    +0.000 F 
ATOM     19  F   UNL     1      50.478   1.817  16.196  0.00  0.00    +0.000 F 
ENDBRANCH  14  16
ENDBRANCH   8  10
ENDBRANCH   1   4
BRANCH   1  20
ATOM     20  N   UNL     1      46.607   7.279  13.336  0.00  0.00    +0.000 N 
ATOM     21  H   UNL     1      46.013   7.702  14.042  0.00  0.00    +0.000 HD
BRANCH  20  27
ATOM     22  C   UNL     1      45.998   4.839  13.414  0.00  0.00    +0.000 A 
ATOM     23  C   UNL     1      45.255   3.831  12.791  0.00  0.00    +0.000 A 
ATOM     24  C   UNL     1      44.579   4.072  11.602  0.00  0.00    +0.000 A 
ATOM     25  C   UNL     1      44.625   5.361  11.117  0.00  0.00    +0.000 A 
ATOM     26  N   UNL     1      45.272   6.376  11.749  0.00  0.00    +0.000 NA
ATOM     27  C   UNL     1      45.971   6.129  12.894  0.00  0.00    +0.000 A 
BRANCH  24  28
ATOM     28  C   UNL     1      43.940   2.914  10.947  0.00  0.00    +0.000 C 
ATOM     29  N   UNL     1      44.494   2.396   9.822  0.00  0.00    +0.000 N 
ATOM     30  O   UNL     1      42.935   2.401  11.426  0.00  0.00    +0.000 OA
ATOM     31  H   UNL     1      45.366   2.685   9.397  0.00  0.00    +0.000 HD
ATOM     32  H   UNL     1      44.059   1.552   9.470  0.00  0.00    +0.000 HD
ENDBRANCH  24  28
BRANCH  22  34
ATOM     33  N   UNL     1      47.422   3.878  15.333  0.00  0.00    +0.000 NA
ATOM     34  C   UNL     1      46.761   4.378  14.540  0.00  0.00    +0.000 C 
ENDBRANCH  22  34
ENDBRANCH  20  27
ENDBRANCH   1  20
TORSDOF 7
ENDMDL
