MODEL 1
REMARK VINA RESULT:    -9.339      0.000      0.000
REMARK INTER + INTRA:         -12.322
REMARK INTER:                 -11.523
REMARK INTRA:                  -0.799
REMARK UNBOUND:                -0.799
REMARK  Name = 
REMARK  4 active torsions:
REMARK  status: ('A' for Active; 'I' for Inactive)
REMARK    1  A    between atoms: C_2  and  C_4
REMARK    2  A    between atoms: N_8  and  C_9
REMARK    3  A    between atoms: C_9  and  C_10
REMARK    4  A    between atoms: C_14  and  C_15
REMARK                            x       y       z     vdW  Elec       q    Type
REMARK                         _______ _______ _______ _____ _____    ______ ____
ROOT
ATOM      1  C   UNL     1      43.437   4.811  11.000  0.00  0.00    +0.000 C 
ENDROOT
BRANCH   1   6
ATOM      2  C   UNL     1      46.382   2.259   7.694  0.00  0.00    +0.000 A 
ATOM      3  C   UNL     1      45.604   1.760   8.734  0.00  0.00    +0.000 A 
ATOM      4  C   UNL     1      44.732   2.618   9.401  0.00  0.00    +0.000 A 
ATOM      5  C   UNL     1      44.671   3.962   9.042  0.00  0.00    +0.000 A 
ATOM      6  N   UNL     1      43.768   4.849   9.588  0.00  0.00    +0.000 N 
ATOM      7  N   UNL     1      45.438   4.460   8.053  0.00  0.00    +0.000 NA
ATOM      8  C   UNL     1      46.277   3.609   7.405  0.00  0.00    +0.000 A 
ATOM      9  H   UNL     1      43.984   5.776   9.230  0.00  0.00    +0.000 HD
BRANCH   2  11
ATOM     10  N   UNL     1      48.452   1.993   6.453  0.00  0.00    +0.000 N 
ATOM     11  C   UNL     1      47.302   1.412   6.912  0.00  0.00    +0.000 C 
ATOM     12  O   UNL     1      47.064   0.231   6.711  0.00  0.00    +0.000 OA
ATOM     13  H   UNL     1      49.120   1.379   6.008  0.00  0.00    +0.000 HD
ATOM     14  H   UNL     1      48.797   2.872   6.811  0.00  0.00    +0.000 HD
ENDBRANCH   2  11
ENDBRANCH   1   6
BRANCH   1  15
ATOM     15  C   UNL     1      44.646   5.177  11.830  0.00  0.00    +0.000 A 
ATOM     16  C   UNL     1      44.999   4.409  12.940  0.00  0.00    +0.000 A 
ATOM     17  C   UNL     1      46.080   4.811  13.705  0.00  0.00    +0.000 A 
ATOM     18  N   UNL     1      46.819   5.912  13.448  0.00  0.00    +0.000 NA
ATOM     19  C   UNL     1      46.465   6.678  12.387  0.00  0.00    +0.000 A 
ATOM     20  C   UNL     1      45.387   6.339  11.573  0.00  0.00    +0.000 A 
BRANCH  19  21
ATOM     21  C   UNL     1      47.287   7.882  12.160  0.00  0.00    +0.000 A 
ATOM     22  C   UNL     1      46.727   9.167  12.281  0.00  0.00    +0.000 A 
ATOM     23  C   UNL     1      47.499  10.306  12.064  0.00  0.00    +0.000 A 
ATOM     24  F   UNL     1      46.937  11.515  12.192  0.00  0.00    +0.000 F 
ATOM     25  C   UNL     1      48.837  10.211  11.716  0.00  0.00    +0.000 A 
ATOM     26  C   UNL     1      49.399   8.953  11.592  0.00  0.00    +0.000 A 
ATOM     27  F   UNL     1      50.690   8.838  11.252  0.00  0.00    +0.000 F 
ATOM     28  C   UNL     1      48.647   7.799  11.807  0.00  0.00    +0.000 A 
ENDBRANCH  19  21
ENDBRANCH   1  15
TORSDOF 4
ENDMDL
MODEL 2
REMARK VINA RESULT:    -8.945      3.117      4.374
REMARK INTER + INTRA:         -11.835
REMARK INTER:                 -11.142
REMARK INTRA:                  -0.693
REMARK UNBOUND:                -0.799
REMARK  Name = 
REMARK  4 active torsions:
REMARK  status: ('A' for Active; 'I' for Inactive)
REMARK    1  A    between atoms: C_2  and  C_4
REMARK    2  A    between atoms: N_8  and  C_9
REMARK    3  A    between atoms: C_9  and  C_10
REMARK    4  A    between atoms: C_14  and  C_15
REMARK                            x       y       z     vdW  Elec       q    Type
REMARK                         _______ _______ _______ _____ _____    ______ ____
ROOT
ATOM      1  C   UNL     1      44.335   5.013  11.399  0.00  0.00    +0.000 C 
ENDROOT
BRANCH   1   6
ATOM      2  C   UNL     1      46.581   2.512   7.550  0.00  0.00    +0.000 A 
ATOM      3  C   UNL     1      45.856   1.996   8.620  0.00  0.00    +0.000 A 
ATOM      4  C   UNL     1      45.172   2.872   9.462  0.00  0.00    +0.000 A 
ATOM      5  C   UNL     1      45.245   4.244   9.241  0.00  0.00    +0.000 A 
ATOM      6  N   UNL     1      44.521   5.165   9.968  0.00  0.00    +0.000 N 
ATOM      7  N   UNL     1      45.964   4.755   8.223  0.00  0.00    +0.000 NA
ATOM      8  C   UNL     1      46.618   3.888   7.405  0.00  0.00    +0.000 A 
ATOM      9  H   UNL     1      44.816   6.094   9.678  0.00  0.00    +0.000 HD
BRANCH   2  11
ATOM     10  N   UNL     1      48.257   2.249   5.814  0.00  0.00    +0.000 N 
ATOM     11  C   UNL     1      47.301   1.655   6.590  0.00  0.00    +0.000 C 
ATOM     12  O   UNL     1      47.080   0.456   6.516  0.00  0.00    +0.000 OA
ATOM     13  H   UNL     1      48.813   1.635   5.234  0.00  0.00    +0.000 HD
ATOM     14  H   UNL     1      48.639   3.160   6.024  0.00  0.00    +0.000 HD
ENDBRANCH   2  11
ENDBRANCH   1   6
BRANCH   1  15
ATOM     15  C   UNL     1      45.515   5.590  12.145  0.00  0.00    +0.000 A 
ATOM     16  C   UNL     1      46.287   6.601  11.573  0.00  0.00    +0.000 A 
ATOM     17  C   UNL     1      47.391   7.063  12.267  0.00  0.00    +0.000 A 
ATOM     18  N   UNL     1      47.779   6.590  13.471  0.00  0.00    +0.000 NA
ATOM     19  C   UNL     1      47.050   5.588  14.022  0.00  0.00    +0.000 A 
ATOM     20  C   UNL     1      45.927   5.070  13.381  0.00  0.00    +0.000 A 
BRANCH  19  21
ATOM     21  C   UNL     1      47.524   5.089  15.326  0.00  0.00    +0.000 A 
ATOM     22  C   UNL     1      48.557   5.750  16.015  0.00  0.00    +0.000 A 
ATOM     23  C   UNL     1      49.010   5.279  17.245  0.00  0.00    +0.000 A 
ATOM     24  F   UNL     1      49.993   5.933  17.879  0.00  0.00    +0.000 F 
ATOM     25  C   UNL     1      48.465   4.145  17.825  0.00  0.00    +0.000 A 
ATOM     26  C   UNL     1      47.449   3.484  17.156  0.00  0.00    +0.000 A 
ATOM     27  F   UNL     1      46.911   2.382  17.696  0.00  0.00    +0.000 F 
ATOM     28  C   UNL     1      46.978   3.939  15.926  0.00  0.00    +0.000 A 
ENDBRANCH  19  21
ENDBRANCH   1  15
TORSDOF 4
ENDMDL
MODEL 3
REMARK VINA RESULT:    -8.558      3.895      7.377
REMARK INTER + INTRA:         -11.358
REMARK INTER:                 -10.579
REMARK INTRA:                  -0.779
REMARK UNBOUND:                -0.799
REMARK  Name = 
REMARK  4 active torsions:
REMARK  status: ('A' for Active; 'I' for Inactive)
REMARK    1  A    between atoms: C_2  and  C_4
REMARK    2  A    between atoms: N_8  and  C_9
REMARK    3  A    between atoms: C_9  and  C_10
REMARK    4  A    between atoms: C_14  and  C_15
REMARK                            x       y       z     vdW  Elec       q    Type
REMARK                         _______ _______ _______ _____ _____    ______ ____
ROOT
ATOM      1  C   UNL     1      44.194   6.771  11.502  0.00  0.00    +0.000 C 
ENDROOT
BRANCH   1   6
ATOM      2  C   UNL     1      49.012   7.655  12.958  0.00  0.00    +0.000 A 
ATOM      3  C   UNL     1      48.284   8.262  11.939  0.00  0.00    +0.000 A 
ATOM      4  C   UNL     1      46.919   7.997  11.830  0.00  0.00    +0.000 A 
ATOM      5  C   UNL     1      46.312   7.113  12.717  0.00  0.00    +0.000 A 
ATOM      6  N   UNL     1      44.954   6.875  12.734  0.00  0.00    +0.000 N 
ATOM      7  N   UNL     1      47.013   6.502  13.691  0.00  0.00    +0.000 NA
ATOM      8  C   UNL     1      48.340   6.777  13.791  0.00  0.00    +0.000 A 
ATOM      9  H   UNL     1      44.774   6.132  13.404  0.00  0.00    +0.000 HD
BRANCH   2  11
ATOM     10  N   UNL     1      50.964   7.615  14.400  0.00  0.00    +0.000 N 
ATOM     11  C   UNL     1      50.449   7.909  13.167  0.00  0.00    +0.000 C 
ATOM     12  O   UNL     1      51.159   8.331  12.268  0.00  0.00    +0.000 OA
ATOM     13  H   UNL     1      51.967   7.697  14.500  0.00  0.00    +0.000 HD
ATOM     14  H   UNL     1      50.477   7.037  15.068  0.00  0.00    +0.000 HD
ENDBRANCH   2  11
ENDBRANCH   1   6
BRANCH   1  15
ATOM     15  C   UNL     1      44.077   5.325  11.080  0.00  0.00    +0.000 A 
ATOM     16  C   UNL     1      43.276   4.441  11.802  0.00  0.00    +0.000 A 
ATOM     17  C   UNL     1      43.240   3.113  11.414  0.00  0.00    +0.000 A 
ATOM     18  N   UNL     1      43.941   2.611  10.375  0.00  0.00    +0.000 NA
ATOM     19  C   UNL     1      44.744   3.458   9.685  0.00  0.00    +0.000 A 
ATOM     20  C   UNL     1      44.834   4.807  10.018  0.00  0.00    +0.000 A 
BRANCH  19  21
ATOM     21  C   UNL     1      45.507   2.860   8.574  0.00  0.00    +0.000 A 
ATOM     22  C   UNL     1      45.899   1.510   8.618  0.00  0.00    +0.000 A 
ATOM     23  C   UNL     1      46.624   0.942   7.572  0.00  0.00    +0.000 A 
ATOM     24  F   UNL     1      46.979  -0.348   7.642  0.00  0.00    +0.000 F 
ATOM     25  C   UNL     1      46.986   1.687   6.462  0.00  0.00    +0.000 A 
ATOM     26  C   UNL     1      46.608   3.017   6.407  0.00  0.00    +0.000 A 
ATOM     27  F   UNL     1      46.952   3.758   5.345  0.00  0.00    +0.000 F 
ATOM     28  C   UNL     1      45.880   3.605   7.440  0.00  0.00    +0.000 A 
ENDBRANCH  19  21
ENDBRANCH   1  15
TORSDOF 4
ENDMDL
MODEL 4
REMARK VINA RESULT:    -8.471      3.984      7.164
REMARK INTER + INTRA:         -11.251
REMARK INTER:                 -10.859
REMARK INTRA:                  -0.391
REMARK UNBOUND:                -0.799
REMARK  Name = 
REMARK  4 active torsions:
REMARK  status: ('A' for Active; 'I' for Inactive)
REMARK    1  A    between atoms: C_2  and  C_4
REMARK    2  A    between atoms: N_8  and  C_9
REMARK    3  A    between atoms: C_9  and  C_10
REMARK    4  A    between atoms: C_14  and  C_15
REMARK                            x       y       z     vdW  Elec       q    Type
REMARK                         _______ _______ _______ _____ _____    ______ ____
ROOT
ATOM      1  C   UNL     1      43.665   6.715  11.359  0.00  0.00    +0.000 C 
ENDROOT
BRANCH   1   6
ATOM      2  C   UNL     1      48.226   7.027  13.642  0.00  0.00    +0.000 A 
ATOM      3  C   UNL     1      47.382   5.927  13.526  0.00  0.00    +0.000 A 
ATOM      4  C   UNL     1      46.262   6.014  12.701  0.00  0.00    +0.000 A 
ATOM      5  C   UNL     1      45.986   7.202  12.031  0.00  0.00    +0.000 A 
ATOM      6  N   UNL     1      44.955   7.336  11.125  0.00  0.00    +0.000 N 
ATOM      7  N   UNL     1      46.783   8.281  12.155  0.00  0.00    +0.000 NA
ATOM      8  C   UNL     1      47.877   8.178  12.956  0.00  0.00    +0.000 A 
ATOM      9  H   UNL     1      44.909   8.312  10.845  0.00  0.00    +0.000 HD
BRANCH   2  11
ATOM     10  N   UNL     1      50.491   7.797  14.055  0.00  0.00    +0.000 N 
ATOM     11  C   UNL     1      49.451   7.007  14.462  0.00  0.00    +0.000 C 
ATOM     12  O   UNL     1      49.524   6.340  15.483  0.00  0.00    +0.000 OA
ATOM     13  H   UNL     1      51.285   7.853  14.679  0.00  0.00    +0.000 HD
ATOM     14  H   UNL     1      50.377   8.540  13.381  0.00  0.00    +0.000 HD
ENDBRANCH   2  11
ENDBRANCH   1   6
BRANCH   1  15
ATOM     15  C   UNL     1      43.728   5.240  11.037  0.00  0.00    +0.000 A 
ATOM     16  C   UNL     1      43.068   4.312  11.844  0.00  0.00    +0.000 A 
ATOM     17  C   UNL     1      43.197   2.967  11.545  0.00  0.00    +0.000 A 
ATOM     18  N   UNL     1      43.930   2.488  10.517  0.00  0.00    +0.000 NA
ATOM     19  C   UNL     1      44.596   3.382   9.745  0.00  0.00    +0.000 A 
ATOM     20  C   UNL     1      44.518   4.752   9.986  0.00  0.00    +0.000 A 
BRANCH  19  21
ATOM     21  C   UNL     1      45.402   2.812   8.649  0.00  0.00    +0.000 A 
ATOM     22  C   UNL     1      45.786   3.604   7.552  0.00  0.00    +0.000 A 
ATOM     23  C   UNL     1      46.544   3.068   6.513  0.00  0.00    +0.000 A 
ATOM     24  F   UNL     1      46.897   3.851   5.485  0.00  0.00    +0.000 F 
ATOM     25  C   UNL     1      46.938   1.740   6.524  0.00  0.00    +0.000 A 
ATOM     26  C   UNL     1      46.566   0.949   7.597  0.00  0.00    +0.000 A 
ATOM     27  F   UNL     1      46.931  -0.340   7.625  0.00  0.00    +0.000 F 
ATOM     28  C   UNL     1      45.810   1.465   8.648  0.00  0.00    +0.000 A 
ENDBRANCH  19  21
ENDBRANCH   1  15
TORSDOF 4
ENDMDL
MODEL 5
REMARK VINA RESULT:    -8.411      4.187      7.547
REMARK INTER + INTRA:         -11.177
REMARK INTER:                 -10.823
REMARK INTRA:                  -0.354
REMARK UNBOUND:                -0.799
REMARK  Name = 
REMARK  4 active torsions:
REMARK  status: ('A' for Active; 'I' for Inactive)
REMARK    1  A    between atoms: C_2  and  C_4
REMARK    2  A    between atoms: N_8  and  C_9
REMARK    3  A    between atoms: C_9  and  C_10
REMARK    4  A    between atoms: C_14  and  C_15
REMARK                            x       y       z     vdW  Elec       q    Type
REMARK                         _______ _______ _______ _____ _____    ______ ____
ROOT
ATOM      1  C   UNL     1      45.004   6.931  11.629  0.00  0.00    +0.000 C 
ENDROOT
BRANCH   1   6
ATOM      2  C   UNL     1      47.844   5.168  15.494  0.00  0.00    +0.000 A 
ATOM      3  C   UNL     1      46.763   4.564  14.859  0.00  0.00    +0.000 A 
ATOM      4  C   UNL     1      46.244   5.143  13.702  0.00  0.00    +0.000 A 
ATOM      5  C   UNL     1      46.792   6.326  13.214  0.00  0.00    +0.000 A 
ATOM      6  N   UNL     1      46.399   6.905  12.026  0.00  0.00    +0.000 N 
ATOM      7  N   UNL     1      47.822   6.931  13.834  0.00  0.00    +0.000 NA
ATOM      8  C   UNL     1      48.323   6.350  14.956  0.00  0.00    +0.000 A 
ATOM      9  H   UNL     1      46.879   7.798  11.940  0.00  0.00    +0.000 HD
BRANCH   2  11
ATOM     10  N   UNL     1      48.228   5.228  17.889  0.00  0.00    +0.000 N 
ATOM     11  C   UNL     1      48.476   4.602  16.699  0.00  0.00    +0.000 C 
ATOM     12  O   UNL     1      49.164   3.594  16.645  0.00  0.00    +0.000 OA
ATOM     13  H   UNL     1      48.582   4.774  18.720  0.00  0.00    +0.000 HD
ATOM     14  H   UNL     1      47.476   5.891  18.009  0.00  0.00    +0.000 HD
ENDBRANCH   2  11
ENDBRANCH   1   6
BRANCH   1  15
ATOM     15  C   UNL     1      44.587   5.581  11.094  0.00  0.00    +0.000 A 
ATOM     16  C   UNL     1      43.540   4.877  11.691  0.00  0.00    +0.000 A 
ATOM     17  C   UNL     1      43.226   3.620  11.204  0.00  0.00    +0.000 A 
ATOM     18  N   UNL     1      43.877   3.021  10.184  0.00  0.00    +0.000 NA
ATOM     19  C   UNL     1      44.913   3.687   9.616  0.00  0.00    +0.000 A 
ATOM     20  C   UNL     1      45.290   4.955  10.054  0.00  0.00    +0.000 A 
BRANCH  19  21
ATOM     21  C   UNL     1      45.608   2.984   8.522  0.00  0.00    +0.000 A 
ATOM     22  C   UNL     1      45.924   1.618   8.632  0.00  0.00    +0.000 A 
ATOM     23  C   UNL     1      46.584   0.951   7.602  0.00  0.00    +0.000 A 
ATOM     24  F   UNL     1      46.867  -0.351   7.737  0.00  0.00    +0.000 F 
ATOM     25  C   UNL     1      46.954   1.611   6.441  0.00  0.00    +0.000 A 
ATOM     26  C   UNL     1      46.650   2.956   6.321  0.00  0.00    +0.000 A 
ATOM     27  F   UNL     1      47.004   3.615   5.209  0.00  0.00    +0.000 F 
ATOM     28  C   UNL     1      45.989   3.642   7.337  0.00  0.00    +0.000 A 
ENDBRANCH  19  21
ENDBRANCH   1  15
TORSDOF 4
ENDMDL
MODEL 6
REMARK VINA RESULT:    -7.729      1.838      2.553
REMARK INTER + INTRA:         -10.335
REMARK INTER:                  -9.646
REMARK INTRA:                  -0.689
REMARK UNBOUND:                -0.799
REMARK  Name = 
REMARK  4 active torsions:
REMARK  status: ('A' for Active; 'I' for Inactive)
REMARK    1  A    between atoms: C_2  and  C_4
REMARK    2  A    between atoms: N_8  and  C_9
REMARK    3  A    between atoms: C_9  and  C_10
REMARK    4  A    between atoms: C_14  and  C_15
REMARK                            x       y       z     vdW  Elec       q    Type
REMARK                         _______ _______ _______ _____ _____    ______ ____
ROOT
ATOM      1  C   UNL     1      43.853   5.341  10.975  0.00  0.00    +0.000 C 
ENDROOT
BRANCH   1   6
ATOM      2  C   UNL     1      46.272   2.012   7.944  0.00  0.00    +0.000 A 
ATOM      3  C   UNL     1      45.577   1.771   9.125  0.00  0.00    +0.000 A 
ATOM      4  C   UNL     1      44.834   2.802   9.699  0.00  0.00    +0.000 A 
ATOM      5  C   UNL     1      44.820   4.060   9.104  0.00  0.00    +0.000 A 
ATOM      6  N   UNL     1      44.036   5.100   9.556  0.00  0.00    +0.000 N 
ATOM      7  N   UNL     1      45.509   4.310   7.974  0.00  0.00    +0.000 NA
ATOM      8  C   UNL     1      46.221   3.293   7.421  0.00  0.00    +0.000 A 
ATOM      9  H   UNL     1      44.272   5.928   9.014  0.00  0.00    +0.000 HD
BRANCH   2  11
ATOM     10  N   UNL     1      46.776  -0.333   7.574  0.00  0.00    +0.000 N 
ATOM     11  C   UNL     1      47.050   0.968   7.252  0.00  0.00    +0.000 C 
ATOM     12  O   UNL     1      47.879   1.250   6.401  0.00  0.00    +0.000 OA
ATOM     13  H   UNL     1      47.241  -1.041   7.021  0.00  0.00    +0.000 HD
ATOM     14  H   UNL     1      45.940  -0.607   8.068  0.00  0.00    +0.000 HD
ENDBRANCH   2  11
ENDBRANCH   1   6
BRANCH   1  15
ATOM     15  C   UNL     1      44.586   6.595  11.391  0.00  0.00    +0.000 A 
ATOM     16  C   UNL     1      43.958   7.838  11.313  0.00  0.00    +0.000 A 
ATOM     17  C   UNL     1      44.683   8.967  11.653  0.00  0.00    +0.000 A 
ATOM     18  N   UNL     1      45.973   8.945  12.053  0.00  0.00    +0.000 NA
ATOM     19  C   UNL     1      46.598   7.742  12.105  0.00  0.00    +0.000 A 
ATOM     20  C   UNL     1      45.935   6.563  11.775  0.00  0.00    +0.000 A 
BRANCH  19  21
ATOM     21  C   UNL     1      48.012   7.770  12.525  0.00  0.00    +0.000 A 
ATOM     22  C   UNL     1      49.022   8.141  11.619  0.00  0.00    +0.000 A 
ATOM     23  C   UNL     1      50.359   8.164  12.010  0.00  0.00    +0.000 A 
ATOM     24  F   UNL     1      51.298   8.527  11.125  0.00  0.00    +0.000 F 
ATOM     25  C   UNL     1      50.736   7.819  13.298  0.00  0.00    +0.000 A 
ATOM     26  C   UNL     1      49.752   7.450  14.198  0.00  0.00    +0.000 A 
ATOM     27  F   UNL     1      50.094   7.107  15.447  0.00  0.00    +0.000 F 
ATOM     28  C   UNL     1      48.408   7.422  13.829  0.00  0.00    +0.000 A 
ENDBRANCH  19  21
ENDBRANCH   1  15
TORSDOF 4
ENDMDL
MODEL 7
REMARK VINA RESULT:    -7.719      3.917      7.293
REMARK INTER + INTRA:         -10.323
REMARK INTER:                  -9.577
REMARK INTRA:                  -0.746
REMARK UNBOUND:                -0.799
REMARK  Name = 
REMARK  4 active torsions:
REMARK  status: ('A' for Active; 'I' for Inactive)
REMARK    1  A    between atoms: C_2  and  C_4
REMARK    2  A    between atoms: N_8  and  C_9
REMARK    3  A    between atoms: C_9  and  C_10
REMARK    4  A    between atoms: C_14  and  C_15
REMARK                            x       y       z     vdW  Elec       q    Type
REMARK                         _______ _______ _______ _____ _____    ______ ____
ROOT
ATOM      1  C   UNL     1      45.211   5.513  13.224  0.00  0.00    +0.000 C 
ENDROOT
BRANCH   1   6
ATOM      2  C   UNL     1      48.419   9.217  11.776  0.00  0.00    +0.000 A 
ATOM      3  C   UNL     1      48.549   7.840  11.621  0.00  0.00    +0.000 A 
ATOM      4  C   UNL     1      47.467   7.017  11.927  0.00  0.00    +0.000 A 
ATOM      5  C   UNL     1      46.286   7.575  12.408  0.00  0.00    +0.000 A 
ATOM      6  N   UNL     1      45.143   6.839  12.641  0.00  0.00    +0.000 N 
ATOM      7  N   UNL     1      46.158   8.904  12.585  0.00  0.00    +0.000 NA
ATOM      8  C   UNL     1      47.219   9.695  12.274  0.00  0.00    +0.000 A 
ATOM      9  H   UNL     1      44.457   7.455  13.070  0.00  0.00    +0.000 HD
BRANCH   2  11
ATOM     10  N   UNL     1      49.149  11.465  11.225  0.00  0.00    +0.000 N 
ATOM     11  C   UNL     1      49.500  10.161  11.439  0.00  0.00    +0.000 C 
ATOM     12  O   UNL     1      50.667   9.802  11.388  0.00  0.00    +0.000 OA
ATOM     13  H   UNL     1      49.908  12.121  11.096  0.00  0.00    +0.000 HD
ATOM     14  H   UNL     1      48.256  11.841  11.507  0.00  0.00    +0.000 HD
ENDBRANCH   2  11
ENDBRANCH   1   6
BRANCH   1  15
ATOM     15  C   UNL     1      44.678   4.486  12.253  0.00  0.00    +0.000 A 
ATOM     16  C   UNL     1      43.527   3.757  12.556  0.00  0.00    +0.000 A 
ATOM     17  C   UNL     1      43.104   2.788  11.663  0.00  0.00    +0.000 A 
ATOM     18  N   UNL     1      43.742   2.494  10.509  0.00  0.00    +0.000 NA
ATOM     19  C   UNL     1      44.876   3.180  10.220  0.00  0.00    +0.000 A 
ATOM     20  C   UNL     1      45.364   4.167  11.072  0.00  0.00    +0.000 A 
BRANCH  19  21
ATOM     21  C   UNL     1      45.549   2.809   8.962  0.00  0.00    +0.000 A 
ATOM     22  C   UNL     1      45.849   3.785   7.993  0.00  0.00    +0.000 A 
ATOM     23  C   UNL     1      46.481   3.438   6.801  0.00  0.00    +0.000 A 
ATOM     24  F   UNL     1      46.757   4.391   5.901  0.00  0.00    +0.000 F 
ATOM     25  C   UNL     1      46.829   2.125   6.529  0.00  0.00    +0.000 A 
ATOM     26  C   UNL     1      46.538   1.155   7.473  0.00  0.00    +0.000 A 
ATOM     27  F   UNL     1      46.861  -0.122   7.228  0.00  0.00    +0.000 F 
ATOM     28  C   UNL     1      45.908   1.480   8.673  0.00  0.00    +0.000 A 
ENDBRANCH  19  21
ENDBRANCH   1  15
TORSDOF 4
ENDMDL
MODEL 8
REMARK VINA RESULT:    -7.106      5.028      8.241
REMARK INTER + INTRA:          -9.567
REMARK INTER:                  -9.031
REMARK INTRA:                  -0.536
REMARK UNBOUND:                -0.799
REMARK  Name = 
REMARK  4 active torsions:
REMARK  status: ('A' for Active; 'I' for Inactive)
REMARK    1  A    between atoms: C_2  and  C_4
REMARK    2  A    between atoms: N_8  and  C_9
REMARK    3  A    between atoms: C_9  and  C_10
REMARK    4  A    between atoms: C_14  and  C_15
REMARK                            x       y       z     vdW  Elec       q    Type
REMARK                         _______ _______ _______ _____ _____    ______ ____
ROOT
ATOM      1  C   UNL     1      48.348   7.497  14.024  0.00  0.00    +0.000 C 
ENDROOT
BRANCH   1   6
ATOM      2  C   UNL     1      50.731   4.712  17.584  0.00  0.00    +0.000 A 
ATOM      3  C   UNL     1      51.160   5.878  16.957  0.00  0.00    +0.000 A 
ATOM      4  C   UNL     1      50.271   6.579  16.144  0.00  0.00    +0.000 A 
ATOM      5  C   UNL     1      48.982   6.092  15.947  0.00  0.00    +0.000 A 
ATOM      6  N   UNL     1      48.017   6.776  15.238  0.00  0.00    +0.000 N 
ATOM      7  N   UNL     1      48.565   4.952  16.530  0.00  0.00    +0.000 NA
ATOM      8  C   UNL     1      49.440   4.284  17.327  0.00  0.00    +0.000 A 
ATOM      9  H   UNL     1      47.200   6.175  15.163  0.00  0.00    +0.000 HD
BRANCH   2  11
ATOM     10  N   UNL     1      51.615   4.299  19.807  0.00  0.00    +0.000 N 
ATOM     11  C   UNL     1      51.595   3.932  18.489  0.00  0.00    +0.000 C 
ATOM     12  O   UNL     1      52.240   2.976  18.088  0.00  0.00    +0.000 OA
ATOM     13  H   UNL     1      52.130   3.696  20.434  0.00  0.00    +0.000 HD
ATOM     14  H   UNL     1      50.916   4.903  20.213  0.00  0.00    +0.000 HD
ENDBRANCH   2  11
ENDBRANCH   1   6
BRANCH   1  15
ATOM     15  C   UNL     1      47.168   7.504  13.080  0.00  0.00    +0.000 A 
ATOM     16  C   UNL     1      46.354   8.632  12.976  0.00  0.00    +0.000 A 
ATOM     17  C   UNL     1      45.251   8.577  12.141  0.00  0.00    +0.000 A 
ATOM     18  N   UNL     1      44.905   7.490  11.418  0.00  0.00    +0.000 NA
ATOM     19  C   UNL     1      45.676   6.381  11.535  0.00  0.00    +0.000 A 
ATOM     20  C   UNL     1      46.799   6.360  12.358  0.00  0.00    +0.000 A 
BRANCH  19  21
ATOM     21  C   UNL     1      45.246   5.212  10.745  0.00  0.00    +0.000 A 
ATOM     22  C   UNL     1      44.467   4.197  11.330  0.00  0.00    +0.000 A 
ATOM     23  C   UNL     1      44.062   3.090  10.588  0.00  0.00    +0.000 A 
ATOM     24  F   UNL     1      43.316   2.143  11.173  0.00  0.00    +0.000 F 
ATOM     25  C   UNL     1      44.417   2.949   9.256  0.00  0.00    +0.000 A 
ATOM     26  C   UNL     1      45.185   3.939   8.670  0.00  0.00    +0.000 A 
ATOM     27  F   UNL     1      45.545   3.821   7.384  0.00  0.00    +0.000 F 
ATOM     28  C   UNL     1      45.599   5.057   9.392  0.00  0.00    +0.000 A 
ENDBRANCH  19  21
ENDBRANCH   1  15
TORSDOF 4
ENDMDL
MODEL 9
REMARK VINA RESULT:    -6.588      5.276      8.658
REMARK INTER + INTRA:          -8.927
REMARK INTER:                  -8.306
REMARK INTRA:                  -0.621
REMARK UNBOUND:                -0.799
REMARK  Name = 
REMARK  4 active torsions:
REMARK  status: ('A' for Active; 'I' for Inactive)
REMARK    1  A    between atoms: C_2  and  C_4
REMARK    2  A    between atoms: N_8  and  C_9
REMARK    3  A    between atoms: C_9  and  C_10
REMARK    4  A    between atoms: C_14  and  C_15
REMARK                            x       y       z     vdW  Elec       q    Type
REMARK                         _______ _______ _______ _____ _____    ______ ____
ROOT
ATOM      1  C   UNL     1      49.079   7.342  13.929  0.00  0.00    +0.000 C 
ENDROOT
BRANCH   1   6
ATOM      2  C   UNL     1      49.302   5.470  18.678  0.00  0.00    +0.000 A 
ATOM      3  C   UNL     1      50.072   5.131  17.570  0.00  0.00    +0.000 A 
ATOM      4  C   UNL     1      49.968   5.897  16.410  0.00  0.00    +0.000 A 
ATOM      5  C   UNL     1      49.080   6.968  16.365  0.00  0.00    +0.000 A 
ATOM      6  N   UNL     1      48.990   7.829  15.292  0.00  0.00    +0.000 N 
ATOM      7  N   UNL     1      48.312   7.289  17.424  0.00  0.00    +0.000 NA
ATOM      8  C   UNL     1      48.431   6.538  18.551  0.00  0.00    +0.000 A 
ATOM      9  H   UNL     1      48.214   8.463  15.464  0.00  0.00    +0.000 HD
BRANCH   2  11
ATOM     10  N   UNL     1      48.496   3.708  20.140  0.00  0.00    +0.000 N 
ATOM     11  C   UNL     1      49.379   4.736  19.955  0.00  0.00    +0.000 C 
ATOM     12  O   UNL     1      50.220   5.010  20.797  0.00  0.00    +0.000 OA
ATOM     13  H   UNL     1      48.625   3.149  20.973  0.00  0.00    +0.000 HD
ATOM     14  H   UNL     1      47.974   3.296  19.381  0.00  0.00    +0.000 HD
ENDBRANCH   2  11
ENDBRANCH   1   6
BRANCH   1  15
ATOM     15  C   UNL     1      47.727   7.415  13.257  0.00  0.00    +0.000 A 
ATOM     16  C   UNL     1      46.913   8.535  13.430  0.00  0.00    +0.000 A 
ATOM     17  C   UNL     1      45.660   8.538  12.842  0.00  0.00    +0.000 A 
ATOM     18  N   UNL     1      45.167   7.516  12.110  0.00  0.00    +0.000 NA
ATOM     19  C   UNL     1      45.942   6.413  11.959  0.00  0.00    +0.000 A 
ATOM     20  C   UNL     1      47.213   6.336  12.524  0.00  0.00    +0.000 A 
BRANCH  19  21
ATOM     21  C   UNL     1      45.353   5.315  11.171  0.00  0.00    +0.000 A 
ATOM     22  C   UNL     1      45.600   5.209   9.790  0.00  0.00    +0.000 A 
ATOM     23  C   UNL     1      45.042   4.176   9.041  0.00  0.00    +0.000 A 
ATOM     24  F   UNL     1      45.301   4.100   7.729  0.00  0.00    +0.000 F 
ATOM     25  C   UNL     1      44.224   3.224   9.629  0.00  0.00    +0.000 A 
ATOM     26  C   UNL     1      43.971   3.318  10.986  0.00  0.00    +0.000 A 
ATOM     27  F   UNL     1      43.178   2.412  11.574  0.00  0.00    +0.000 F 
ATOM     28  C   UNL     1      44.521   4.342  11.755  0.00  0.00    +0.000 A 
ENDBRANCH  19  21
ENDBRANCH   1  15
TORSDOF 4
ENDMDL
