MODEL 1
REMARK VINA RESULT:    -8.611      0.000      0.000
REMARK INTER + INTRA:         -11.640
REMARK INTER:                 -11.128
REMARK INTRA:                  -0.512
REMARK UNBOUND:                -0.512
REMARK  Name = 
REMARK  6 active torsions:
REMARK  status: ('A' for Active; 'I' for Inactive)
REMARK    1  A    between atoms: C_2  and  O_3
REMARK    2  A    between atoms: C_2  and  C_4
REMARK    3  A    between atoms: N_8  and  C_9
REMARK    4  A    between atoms: C_9  and  C_10
REMARK    5  A    between atoms: C_10  and  O_11
REMARK    6  A    between atoms: C_10  and  C_12
REMARK                            x       y       z     vdW  Elec       q    Type
REMARK                         _______ _______ _______ _____ _____    ______ ____
ROOT
ATOM      1  C   UNL     1      46.257   2.061   7.960  0.00  0.00    +0.000 A 
ATOM      2  C   UNL     1      46.406   3.397   7.628  0.00  0.00    +0.000 A 
ATOM      3  C   UNL     1      45.564   4.344   8.213  0.00  0.00    +0.000 A 
ATOM      4  C   UNL     1      44.587   3.926   9.129  0.00  0.00    +0.000 A 
ATOM      5  N   UNL     1      43.800   4.876   9.749  0.00  0.00    +0.000 N 
ATOM      6  N   UNL     1      44.467   2.634   9.481  0.00  0.00    +0.000 NA
ATOM      7  C   UNL     1      45.289   1.730   8.897  0.00  0.00    +0.000 A 
ATOM      8  H   UNL     1      43.467   5.656   9.198  0.00  0.00    +0.000 HD
ENDROOT
BRANCH   1  10
ATOM      9  O   UNL     1      48.028   1.359   6.552  0.00  0.00    +0.000 OA
ATOM     10  C   UNL     1      47.147   1.056   7.355  0.00  0.00    +0.000 C 
BRANCH  10  11
ATOM     11  O   UNL     1      46.882  -0.210   7.714  0.00  0.00    +0.000 OA
ATOM     12  H   UNL     1      47.628  -0.838   7.646  0.00  0.00    +0.000 HD
ENDBRANCH  10  11
ENDBRANCH   1  10
BRANCH   5  13
ATOM     13  C   UNL     1      43.219   4.618  11.067  0.00  0.00    +0.000 C 
BRANCH  13  14
ATOM     14  C   UNL     1      43.514   5.766  12.073  0.00  0.00    +0.000 C 
BRANCH  14  15
ATOM     15  C   UNL     1      44.994   5.882  12.426  0.00  0.00    +0.000 A 
ATOM     16  C   UNL     1      45.596   4.937  13.277  0.00  0.00    +0.000 A 
ATOM     17  C   UNL     1      46.960   4.999  13.580  0.00  0.00    +0.000 A 
ATOM     18  C   UNL     1      47.752   5.998  13.022  0.00  0.00    +0.000 A 
ATOM     19  C   UNL     1      47.179   6.942  12.176  0.00  0.00    +0.000 A 
ATOM     20  C   UNL     1      45.812   6.886  11.882  0.00  0.00    +0.000 A 
ENDBRANCH  14  15
BRANCH  14  21
ATOM     21  O   UNL     1      42.715   5.577  13.253  0.00  0.00    +0.000 OA
ATOM     22  H   UNL     1      41.797   5.778  13.000  0.00  0.00    +0.000 HD
ENDBRANCH  14  21
ENDBRANCH  13  14
ENDBRANCH   5  13
TORSDOF 6
ENDMDL
MODEL 2
REMARK VINA RESULT:    -7.001      2.528      6.386
REMARK INTER + INTRA:          -9.559
REMARK INTER:                  -9.161
REMARK INTRA:                  -0.398
REMARK UNBOUND:                -0.512
REMARK  Name = 
REMARK  6 active torsions:
REMARK  status: ('A' for Active; 'I' for Inactive)
REMARK    1  A    between atoms: C_2  and  O_3
REMARK    2  A    between atoms: C_2  and  C_4
REMARK    3  A    between atoms: N_8  and  C_9
REMARK    4  A    between atoms: C_9  and  C_10
REMARK    5  A    between atoms: C_10  and  O_11
REMARK    6  A    between atoms: C_10  and  C_12
REMARK                            x       y       z     vdW  Elec       q    Type
REMARK                         _______ _______ _______ _____ _____    ______ ____
ROOT
ATOM      1  C   UNL     1      47.121   6.495  12.822  0.00  0.00    +0.000 A 
ATOM      2  C   UNL     1      46.257   5.762  13.618  0.00  0.00    +0.000 A 
ATOM      3  C   UNL     1      45.206   5.065  13.022  0.00  0.00    +0.000 A 
ATOM      4  C   UNL     1      45.044   5.117  11.630  0.00  0.00    +0.000 A 
ATOM      5  N   UNL     1      44.038   4.375  11.044  0.00  0.00    +0.000 N 
ATOM      6  N   UNL     1      45.904   5.798  10.852  0.00  0.00    +0.000 NA
ATOM      7  C   UNL     1      46.915   6.472  11.450  0.00  0.00    +0.000 A 
ATOM      8  H   UNL     1      43.141   4.333  11.509  0.00  0.00    +0.000 HD
ENDROOT
BRANCH   1  10
ATOM      9  O   UNL     1      48.084   8.304  14.010  0.00  0.00    +0.000 OA
ATOM     10  C   UNL     1      48.240   7.225  13.441  0.00  0.00    +0.000 C 
BRANCH  10  11
ATOM     11  O   UNL     1      49.439   6.640  13.286  0.00  0.00    +0.000 OA
ATOM     12  H   UNL     1      50.147   7.208  12.922  0.00  0.00    +0.000 HD
ENDBRANCH  10  11
ENDBRANCH   1  10
BRANCH   5  13
ATOM     13  C   UNL     1      44.161   3.914   9.661  0.00  0.00    +0.000 C 
BRANCH  13  14
ATOM     14  C   UNL     1      44.913   2.557   9.559  0.00  0.00    +0.000 C 
BRANCH  14  15
ATOM     15  C   UNL     1      45.768   2.444   8.299  0.00  0.00    +0.000 A 
ATOM     16  C   UNL     1      45.918   3.551   7.443  0.00  0.00    +0.000 A 
ATOM     17  C   UNL     1      46.730   3.483   6.307  0.00  0.00    +0.000 A 
ATOM     18  C   UNL     1      47.421   2.312   6.014  0.00  0.00    +0.000 A 
ATOM     19  C   UNL     1      47.290   1.205   6.848  0.00  0.00    +0.000 A 
ATOM     20  C   UNL     1      46.469   1.270   7.979  0.00  0.00    +0.000 A 
ENDBRANCH  14  15
BRANCH  14  21
ATOM     21  O   UNL     1      43.961   1.481   9.635  0.00  0.00    +0.000 OA
ATOM     22  H   UNL     1      43.449   1.508   8.808  0.00  0.00    +0.000 HD
ENDBRANCH  14  21
ENDBRANCH  13  14
ENDBRANCH   5  13
TORSDOF 6
ENDMDL
MODEL 3
REMARK VINA RESULT:    -6.801      2.364      6.731
REMARK INTER + INTRA:          -9.301
REMARK INTER:                  -8.997
REMARK INTRA:                  -0.304
REMARK UNBOUND:                -0.512
REMARK  Name = 
REMARK  6 active torsions:
REMARK  status: ('A' for Active; 'I' for Inactive)
REMARK    1  A    between atoms: C_2  and  O_3
REMARK    2  A    between atoms: C_2  and  C_4
REMARK    3  A    between atoms: N_8  and  C_9
REMARK    4  A    between atoms: C_9  and  C_10
REMARK    5  A    between atoms: C_10  and  O_11
REMARK    6  A    between atoms: C_10  and  C_12
REMARK                            x       y       z     vdW  Elec       q    Type
REMARK                         _______ _______ _______ _____ _____    ______ ____
ROOT
ATOM      1  C   UNL     1      46.066   7.531  12.673  0.00  0.00    +0.000 A 
ATOM      2  C   UNL     1      46.553   6.419  13.340  0.00  0.00    +0.000 A 
ATOM      3  C   UNL     1      46.161   5.146  12.922  0.00  0.00    +0.000 A 
ATOM      4  C   UNL     1      45.284   5.016  11.835  0.00  0.00    +0.000 A 
ATOM      5  N   UNL     1      44.950   3.753  11.391  0.00  0.00    +0.000 N 
ATOM      6  N   UNL     1      44.840   6.093  11.163  0.00  0.00    +0.000 NA
ATOM      7  C   UNL     1      45.228   7.320  11.587  0.00  0.00    +0.000 A 
ATOM      8  H   UNL     1      44.777   3.033  12.080  0.00  0.00    +0.000 HD
ENDROOT
BRANCH   1  10
ATOM      9  O   UNL     1      46.482   9.838  12.333  0.00  0.00    +0.000 OA
ATOM     10  C   UNL     1      46.483   8.876  13.100  0.00  0.00    +0.000 C 
BRANCH  10  11
ATOM     11  O   UNL     1      46.907   8.949  14.372  0.00  0.00    +0.000 OA
ATOM     12  H   UNL     1      46.228   9.180  15.036  0.00  0.00    +0.000 HD
ENDBRANCH  10  11
ENDBRANCH   1  10
BRANCH   5  13
ATOM     13  C   UNL     1      44.565   3.530   9.997  0.00  0.00    +0.000 C 
BRANCH  13  14
ATOM     14  C   UNL     1      45.076   2.164   9.457  0.00  0.00    +0.000 C 
BRANCH  14  15
ATOM     15  C   UNL     1      45.924   2.303   8.196  0.00  0.00    +0.000 A 
ATOM     16  C   UNL     1      46.752   1.245   7.777  0.00  0.00    +0.000 A 
ATOM     17  C   UNL     1      47.505   1.335   6.602  0.00  0.00    +0.000 A 
ATOM     18  C   UNL     1      47.431   2.479   5.814  0.00  0.00    +0.000 A 
ATOM     19  C   UNL     1      46.617   3.537   6.207  0.00  0.00    +0.000 A 
ATOM     20  C   UNL     1      45.872   3.452   7.388  0.00  0.00    +0.000 A 
ENDBRANCH  14  15
BRANCH  14  21
ATOM     21  O   UNL     1      43.953   1.295   9.231  0.00  0.00    +0.000 OA
ATOM     22  H   UNL     1      43.943   1.100   8.278  0.00  0.00    +0.000 HD
ENDBRANCH  14  21
ENDBRANCH  13  14
ENDBRANCH   5  13
TORSDOF 6
ENDMDL
MODEL 4
REMARK VINA RESULT:    -6.733      4.278      5.727
REMARK INTER + INTRA:          -9.213
REMARK INTER:                  -8.953
REMARK INTRA:                  -0.259
REMARK UNBOUND:                -0.512
REMARK  Name = 
REMARK  6 active torsions:
REMARK  status: ('A' for Active; 'I' for Inactive)
REMARK    1  A    between atoms: C_2  and  O_3
REMARK    2  A    between atoms: C_2  and  C_4
REMARK    3  A    between atoms: N_8  and  C_9
REMARK    4  A    between atoms: C_9  and  C_10
REMARK    5  A    between atoms: C_10  and  O_11
REMARK    6  A    between atoms: C_10  and  C_12
REMARK                            x       y       z     vdW  Elec       q    Type
REMARK                         _______ _______ _______ _____ _____    ______ ____
ROOT
ATOM      1  C   UNL     1      45.318   4.791  10.879  0.00  0.00    +0.000 A 
ATOM      2  C   UNL     1      45.931   5.937  11.356  0.00  0.00    +0.000 A 
ATOM      3  C   UNL     1      46.393   5.966  12.673  0.00  0.00    +0.000 A 
ATOM      4  C   UNL     1      46.230   4.836  13.487  0.00  0.00    +0.000 A 
ATOM      5  N   UNL     1      46.745   4.853  14.768  0.00  0.00    +0.000 N 
ATOM      6  N   UNL     1      45.669   3.710  13.013  0.00  0.00    +0.000 NA
ATOM      7  C   UNL     1      45.223   3.703  11.734  0.00  0.00    +0.000 A 
ATOM      8  H   UNL     1      46.654   5.702  15.309  0.00  0.00    +0.000 HD
ENDROOT
BRANCH   1  10
ATOM      9  O   UNL     1      45.604   4.773   8.528  0.00  0.00    +0.000 OA
ATOM     10  C   UNL     1      44.837   4.747   9.488  0.00  0.00    +0.000 C 
BRANCH  10  11
ATOM     11  O   UNL     1      43.500   4.729   9.363  0.00  0.00    +0.000 OA
ATOM     12  H   UNL     1      43.018   4.178  10.012  0.00  0.00    +0.000 HD
ENDBRANCH  10  11
ENDBRANCH   1  10
BRANCH   5  13
ATOM     13  C   UNL     1      47.138   3.609  15.430  0.00  0.00    +0.000 C 
BRANCH  13  14
ATOM     14  C   UNL     1      47.475   3.824  16.932  0.00  0.00    +0.000 C 
BRANCH  14  15
ATOM     15  C   UNL     1      48.946   3.571  17.253  0.00  0.00    +0.000 A 
ATOM     16  C   UNL     1      49.497   2.286  17.091  0.00  0.00    +0.000 A 
ATOM     17  C   UNL     1      50.851   2.042  17.338  0.00  0.00    +0.000 A 
ATOM     18  C   UNL     1      51.685   3.081  17.735  0.00  0.00    +0.000 A 
ATOM     19  C   UNL     1      51.163   4.361  17.900  0.00  0.00    +0.000 A 
ATOM     20  C   UNL     1      49.806   4.604  17.663  0.00  0.00    +0.000 A 
ENDBRANCH  14  15
BRANCH  14  21
ATOM     21  O   UNL     1      46.621   2.989  17.733  0.00  0.00    +0.000 OA
ATOM     22  H   UNL     1      47.190   2.297  18.113  0.00  0.00    +0.000 HD
ENDBRANCH  14  21
ENDBRANCH  13  14
ENDBRANCH   5  13
TORSDOF 6
ENDMDL
MODEL 5
REMARK VINA RESULT:    -6.710      3.089      6.625
REMARK INTER + INTRA:          -9.183
REMARK INTER:                  -8.854
REMARK INTRA:                  -0.329
REMARK UNBOUND:                -0.512
REMARK  Name = 
REMARK  6 active torsions:
REMARK  status: ('A' for Active; 'I' for Inactive)
REMARK    1  A    between atoms: C_2  and  O_3
REMARK    2  A    between atoms: C_2  and  C_4
REMARK    3  A    between atoms: N_8  and  C_9
REMARK    4  A    between atoms: C_9  and  C_10
REMARK    5  A    between atoms: C_10  and  O_11
REMARK    6  A    between atoms: C_10  and  C_12
REMARK                            x       y       z     vdW  Elec       q    Type
REMARK                         _______ _______ _______ _____ _____    ______ ____
ROOT
ATOM      1  C   UNL     1      47.839   5.062  15.391  0.00  0.00    +0.000 A 
ATOM      2  C   UNL     1      47.803   6.153  14.538  0.00  0.00    +0.000 A 
ATOM      3  C   UNL     1      47.057   6.074  13.361  0.00  0.00    +0.000 A 
ATOM      4  C   UNL     1      46.356   4.895  13.065  0.00  0.00    +0.000 A 
ATOM      5  N   UNL     1      45.572   4.849  11.930  0.00  0.00    +0.000 N 
ATOM      6  N   UNL     1      46.360   3.850  13.911  0.00  0.00    +0.000 NA
ATOM      7  C   UNL     1      47.095   3.944  15.046  0.00  0.00    +0.000 A 
ATOM      8  H   UNL     1      45.926   5.278  11.086  0.00  0.00    +0.000 HD
ENDROOT
BRANCH   1  10
ATOM      9  O   UNL     1      49.416   4.268  16.970  0.00  0.00    +0.000 OA
ATOM     10  C   UNL     1      48.616   5.141  16.640  0.00  0.00    +0.000 C 
BRANCH  10  11
ATOM     11  O   UNL     1      48.337   6.211  17.401  0.00  0.00    +0.000 OA
ATOM     12  H   UNL     1      48.037   6.020  18.312  0.00  0.00    +0.000 HD
ENDBRANCH  10  11
ENDBRANCH   1  10
BRANCH   5  13
ATOM     13  C   UNL     1      44.413   3.959  11.861  0.00  0.00    +0.000 C 
BRANCH  13  14
ATOM     14  C   UNL     1      43.768   3.943  10.446  0.00  0.00    +0.000 C 
BRANCH  14  15
ATOM     15  C   UNL     1      44.705   3.393   9.373  0.00  0.00    +0.000 A 
ATOM     16  C   UNL     1      45.295   4.261   8.436  0.00  0.00    +0.000 A 
ATOM     17  C   UNL     1      46.189   3.785   7.471  0.00  0.00    +0.000 A 
ATOM     18  C   UNL     1      46.523   2.435   7.437  0.00  0.00    +0.000 A 
ATOM     19  C   UNL     1      45.954   1.559   8.357  0.00  0.00    +0.000 A 
ATOM     20  C   UNL     1      45.051   2.033   9.314  0.00  0.00    +0.000 A 
ENDBRANCH  14  15
BRANCH  14  21
ATOM     21  O   UNL     1      43.324   5.269  10.114  0.00  0.00    +0.000 OA
ATOM     22  H   UNL     1      42.628   5.167   9.441  0.00  0.00    +0.000 HD
ENDBRANCH  14  21
ENDBRANCH  13  14
ENDBRANCH   5  13
TORSDOF 6
ENDMDL
MODEL 6
REMARK VINA RESULT:    -5.864      4.803      7.753
REMARK INTER + INTRA:          -8.089
REMARK INTER:                  -7.837
REMARK INTRA:                  -0.252
REMARK UNBOUND:                -0.512
REMARK  Name = 
REMARK  6 active torsions:
REMARK  status: ('A' for Active; 'I' for Inactive)
REMARK    1  A    between atoms: C_2  and  O_3
REMARK    2  A    between atoms: C_2  and  C_4
REMARK    3  A    between atoms: N_8  and  C_9
REMARK    4  A    between atoms: C_9  and  C_10
REMARK    5  A    between atoms: C_10  and  O_11
REMARK    6  A    between atoms: C_10  and  C_12
REMARK                            x       y       z     vdW  Elec       q    Type
REMARK                         _______ _______ _______ _____ _____    ______ ____
ROOT
ATOM      1  C   UNL     1      49.564   4.328  17.605  0.00  0.00    +0.000 A 
ATOM      2  C   UNL     1      48.932   3.115  17.388  0.00  0.00    +0.000 A 
ATOM      3  C   UNL     1      47.900   3.042  16.451  0.00  0.00    +0.000 A 
ATOM      4  C   UNL     1      47.526   4.194  15.745  0.00  0.00    +0.000 A 
ATOM      5  N   UNL     1      46.547   4.098  14.776  0.00  0.00    +0.000 N 
ATOM      6  N   UNL     1      48.164   5.363  15.927  0.00  0.00    +0.000 NA
ATOM      7  C   UNL     1      49.159   5.415  16.845  0.00  0.00    +0.000 A 
ATOM      8  H   UNL     1      45.743   3.515  14.964  0.00  0.00    +0.000 HD
ENDROOT
BRANCH   1  10
ATOM      9  O   UNL     1      51.839   4.489  18.245  0.00  0.00    +0.000 OA
ATOM     10  C   UNL     1      50.660   4.412  18.585  0.00  0.00    +0.000 C 
BRANCH  10  11
ATOM     11  O   UNL     1      50.265   4.348  19.867  0.00  0.00    +0.000 OA
ATOM     12  H   UNL     1      50.554   3.555  20.362  0.00  0.00    +0.000 HD
ENDBRANCH  10  11
ENDBRANCH   1  10
BRANCH   5  13
ATOM     13  C   UNL     1      46.519   5.031  13.649  0.00  0.00    +0.000 C 
BRANCH  13  14
ATOM     14  C   UNL     1      45.110   5.123  12.998  0.00  0.00    +0.000 C 
BRANCH  14  15
ATOM     15  C   UNL     1      45.109   4.720  11.525  0.00  0.00    +0.000 A 
ATOM     16  C   UNL     1      45.673   5.572  10.557  0.00  0.00    +0.000 A 
ATOM     17  C   UNL     1      45.721   5.204   9.209  0.00  0.00    +0.000 A 
ATOM     18  C   UNL     1      45.223   3.970   8.806  0.00  0.00    +0.000 A 
ATOM     19  C   UNL     1      44.663   3.110   9.746  0.00  0.00    +0.000 A 
ATOM     20  C   UNL     1      44.605   3.482  11.093  0.00  0.00    +0.000 A 
ENDBRANCH  14  15
BRANCH  14  21
ATOM     21  O   UNL     1      44.595   6.455  13.169  0.00  0.00    +0.000 OA
ATOM     22  H   UNL     1      44.235   6.724  12.306  0.00  0.00    +0.000 HD
ENDBRANCH  14  21
ENDBRANCH  13  14
ENDBRANCH   5  13
TORSDOF 6
ENDMDL
MODEL 7
REMARK VINA RESULT:    -5.676      4.363      5.823
REMARK INTER + INTRA:          -7.847
REMARK INTER:                  -7.527
REMARK INTRA:                  -0.319
REMARK UNBOUND:                -0.512
REMARK  Name = 
REMARK  6 active torsions:
REMARK  status: ('A' for Active; 'I' for Inactive)
REMARK    1  A    between atoms: C_2  and  O_3
REMARK    2  A    between atoms: C_2  and  C_4
REMARK    3  A    between atoms: N_8  and  C_9
REMARK    4  A    between atoms: C_9  and  C_10
REMARK    5  A    between atoms: C_10  and  O_11
REMARK    6  A    between atoms: C_10  and  C_12
REMARK                            x       y       z     vdW  Elec       q    Type
REMARK                         _______ _______ _______ _____ _____    ______ ____
ROOT
ATOM      1  C   UNL     1      44.830   4.288  11.268  0.00  0.00    +0.000 A 
ATOM      2  C   UNL     1      45.479   5.508  11.178  0.00  0.00    +0.000 A 
ATOM      3  C   UNL     1      46.165   6.000  12.289  0.00  0.00    +0.000 A 
ATOM      4  C   UNL     1      46.187   5.251  13.475  0.00  0.00    +0.000 A 
ATOM      5  N   UNL     1      46.919   5.717  14.548  0.00  0.00    +0.000 N 
ATOM      6  N   UNL     1      45.590   4.049  13.552  0.00  0.00    +0.000 NA
ATOM      7  C   UNL     1      44.925   3.591  12.464  0.00  0.00    +0.000 A 
ATOM      8  H   UNL     1      46.896   6.707  14.750  0.00  0.00    +0.000 HD
ENDROOT
BRANCH   1  10
ATOM      9  O   UNL     1      44.019   2.550   9.878  0.00  0.00    +0.000 OA
ATOM     10  C   UNL     1      44.113   3.757  10.098  0.00  0.00    +0.000 C 
BRANCH  10  11
ATOM     11  O   UNL     1      43.621   4.696   9.274  0.00  0.00    +0.000 OA
ATOM     12  H   UNL     1      43.723   5.622   9.573  0.00  0.00    +0.000 HD
ENDBRANCH  10  11
ENDBRANCH   1  10
BRANCH   5  13
ATOM     13  C   UNL     1      47.465   4.787  15.538  0.00  0.00    +0.000 C 
BRANCH  13  14
ATOM     14  C   UNL     1      48.694   5.379  16.284  0.00  0.00    +0.000 C 
BRANCH  14  15
ATOM     15  C   UNL     1      48.319   6.062  17.597  0.00  0.00    +0.000 A 
ATOM     16  C   UNL     1      48.623   7.421  17.801  0.00  0.00    +0.000 A 
ATOM     17  C   UNL     1      48.251   8.077  18.978  0.00  0.00    +0.000 A 
ATOM     18  C   UNL     1      47.552   7.392  19.966  0.00  0.00    +0.000 A 
ATOM     19  C   UNL     1      47.237   6.049  19.785  0.00  0.00    +0.000 A 
ATOM     20  C   UNL     1      47.619   5.389  18.612  0.00  0.00    +0.000 A 
ENDBRANCH  14  15
BRANCH  14  21
ATOM     21  O   UNL     1      49.387   6.286  15.410  0.00  0.00    +0.000 OA
ATOM     22  H   UNL     1      49.233   7.180  15.762  0.00  0.00    +0.000 HD
ENDBRANCH  14  21
ENDBRANCH  13  14
ENDBRANCH   5  13
TORSDOF 6
ENDMDL
MODEL 8
REMARK VINA RESULT:    -5.629      3.686      5.773
REMARK INTER + INTRA:          -7.785
REMARK INTER:                  -7.344
REMARK INTRA:                  -0.441
REMARK UNBOUND:                -0.512
REMARK  Name = 
REMARK  6 active torsions:
REMARK  status: ('A' for Active; 'I' for Inactive)
REMARK    1  A    between atoms: C_2  and  O_3
REMARK    2  A    between atoms: C_2  and  C_4
REMARK    3  A    between atoms: N_8  and  C_9
REMARK    4  A    between atoms: C_9  and  C_10
REMARK    5  A    between atoms: C_10  and  O_11
REMARK    6  A    between atoms: C_10  and  C_12
REMARK                            x       y       z     vdW  Elec       q    Type
REMARK                         _______ _______ _______ _____ _____    ______ ____
ROOT
ATOM      1  C   UNL     1      44.642   5.121  11.605  0.00  0.00    +0.000 A 
ATOM      2  C   UNL     1      44.586   6.504  11.639  0.00  0.00    +0.000 A 
ATOM      3  C   UNL     1      45.461   7.203  12.471  0.00  0.00    +0.000 A 
ATOM      4  C   UNL     1      46.382   6.493  13.256  0.00  0.00    +0.000 A 
ATOM      5  N   UNL     1      47.285   7.194  14.029  0.00  0.00    +0.000 N 
ATOM      6  N   UNL     1      46.463   5.152  13.195  0.00  0.00    +0.000 NA
ATOM      7  C   UNL     1      45.601   4.492  12.385  0.00  0.00    +0.000 A 
ATOM      8  H   UNL     1      46.959   8.019  14.516  0.00  0.00    +0.000 HD
ENDROOT
BRANCH   1  10
ATOM      9  O   UNL     1      43.837   4.400   9.497  0.00  0.00    +0.000 OA
ATOM     10  C   UNL     1      43.729   4.376  10.721  0.00  0.00    +0.000 C 
BRANCH  10  11
ATOM     11  O   UNL     1      42.749   3.719  11.362  0.00  0.00    +0.000 OA
ATOM     12  H   UNL     1      42.955   2.800  11.628  0.00  0.00    +0.000 HD
ENDBRANCH  10  11
ENDBRANCH   1  10
BRANCH   5  13
ATOM     13  C   UNL     1      48.580   6.610  14.378  0.00  0.00    +0.000 C 
BRANCH  13  14
ATOM     14  C   UNL     1      48.876   6.706  15.902  0.00  0.00    +0.000 C 
BRANCH  14  15
ATOM     15  C   UNL     1      48.723   5.368  16.621  0.00  0.00    +0.000 A 
ATOM     16  C   UNL     1      49.766   4.872  17.426  0.00  0.00    +0.000 A 
ATOM     17  C   UNL     1      49.631   3.671  18.127  0.00  0.00    +0.000 A 
ATOM     18  C   UNL     1      48.444   2.950  18.052  0.00  0.00    +0.000 A 
ATOM     19  C   UNL     1      47.398   3.422  17.265  0.00  0.00    +0.000 A 
ATOM     20  C   UNL     1      47.536   4.619  16.555  0.00  0.00    +0.000 A 
ENDBRANCH  14  15
BRANCH  14  21
ATOM     21  O   UNL     1      48.026   7.707  16.487  0.00  0.00    +0.000 OA
ATOM     22  H   UNL     1      47.205   7.712  15.964  0.00  0.00    +0.000 HD
ENDBRANCH  14  21
ENDBRANCH  13  14
ENDBRANCH   5  13
TORSDOF 6
ENDMDL
