MODEL 1
REMARK VINA RESULT:    -8.139      0.000      0.000
REMARK INTER + INTRA:         -10.044
REMARK INTER:                  -9.567
REMARK INTRA:                  -0.477
REMARK UNBOUND:                -0.477
REMARK  Name = 
REMARK  3 active torsions:
REMARK  status: ('A' for Active; 'I' for Inactive)
REMARK    1  A    between atoms: C_2  and  C_4
REMARK    2  A    between atoms: N_8  and  C_9
REMARK    3  A    between atoms: C_9  and  C_10
REMARK                            x       y       z     vdW  Elec       q    Type
REMARK                         _______ _______ _______ _____ _____    ______ ____
ROOT
ATOM      1  C   UNL     1      46.392   2.300   7.721  0.00  0.00    +0.000 A 
ATOM      2  C   UNL     1      45.597   1.799   8.748  0.00  0.00    +0.000 A 
ATOM      3  C   UNL     1      44.727   2.660   9.413  0.00  0.00    +0.000 A 
ATOM      4  C   UNL     1      44.682   4.007   9.063  0.00  0.00    +0.000 A 
ATOM      5  N   UNL     1      43.802   4.903   9.620  0.00  0.00    +0.000 N 
ATOM      6  N   UNL     1      45.456   4.503   8.081  0.00  0.00    +0.000 NA
ATOM      7  C   UNL     1      46.297   3.651   7.436  0.00  0.00    +0.000 A 
ATOM      8  H   UNL     1      43.994   5.835   9.267  0.00  0.00    +0.000 HD
ENDROOT
BRANCH   1  10
ATOM      9  N   UNL     1      48.461   2.053   6.474  0.00  0.00    +0.000 N 
ATOM     10  C   UNL     1      47.323   1.458   6.943  0.00  0.00    +0.000 C 
ATOM     11  O   UNL     1      47.103   0.270   6.754  0.00  0.00    +0.000 OA
ATOM     12  H   UNL     1      49.136   1.442   6.029  0.00  0.00    +0.000 HD
ATOM     13  H   UNL     1      48.795   2.942   6.816  0.00  0.00    +0.000 HD
ENDBRANCH   1  10
BRANCH   5  14
ATOM     14  C   UNL     1      43.378   4.825  11.003  0.00  0.00    +0.000 C 
BRANCH  14  15
ATOM     15  C   UNL     1      44.513   5.193  11.931  0.00  0.00    +0.000 A 
ATOM     16  C   UNL     1      45.095   4.261  12.800  0.00  0.00    +0.000 A 
ATOM     17  C   UNL     1      46.144   4.661  13.612  0.00  0.00    +0.000 A 
ATOM     18  N   UNL     1      46.665   5.907  13.605  0.00  0.00    +0.000 NA
ATOM     19  C   UNL     1      46.105   6.787  12.750  0.00  0.00    +0.000 A 
ATOM     20  C   UNL     1      45.051   6.483  11.901  0.00  0.00    +0.000 A 
ENDBRANCH  14  15
ENDBRANCH   5  14
TORSDOF 3
ENDMDL
MODEL 2
REMARK VINA RESULT:    -7.344      2.694      6.139
REMARK INTER + INTRA:          -9.109
REMARK INTER:                  -8.636
REMARK INTRA:                  -0.473
REMARK UNBOUND:                -0.477
REMARK  Name = 
REMARK  3 active torsions:
REMARK  status: ('A' for Active; 'I' for Inactive)
REMARK    1  A    between atoms: C_2  and  C_4
REMARK    2  A    between atoms: N_8  and  C_9
REMARK    3  A    between atoms: C_9  and  C_10
REMARK                            x       y       z     vdW  Elec       q    Type
REMARK                         _______ _______ _______ _____ _____    ______ ____
ROOT
ATOM      1  C   UNL     1      46.502   5.422  12.758  0.00  0.00    +0.000 A 
ATOM      2  C   UNL     1      46.326   6.091  11.550  0.00  0.00    +0.000 A 
ATOM      3  C   UNL     1      45.623   5.463  10.523  0.00  0.00    +0.000 A 
ATOM      4  C   UNL     1      45.133   4.173  10.707  0.00  0.00    +0.000 A 
ATOM      5  N   UNL     1      44.371   3.514   9.773  0.00  0.00    +0.000 N 
ATOM      6  N   UNL     1      45.310   3.513  11.867  0.00  0.00    +0.000 NA
ATOM      7  C   UNL     1      45.991   4.140  12.863  0.00  0.00    +0.000 A 
ATOM      8  H   UNL     1      44.185   2.568  10.090  0.00  0.00    +0.000 HD
ENDROOT
BRANCH   1  10
ATOM      9  N   UNL     1      47.168   7.379  14.032  0.00  0.00    +0.000 N 
ATOM     10  C   UNL     1      47.207   6.018  13.910  0.00  0.00    +0.000 C 
ATOM     11  O   UNL     1      47.776   5.323  14.740  0.00  0.00    +0.000 OA
ATOM     12  H   UNL     1      47.569   7.766  14.878  0.00  0.00    +0.000 HD
ATOM     13  H   UNL     1      46.512   7.956  13.524  0.00  0.00    +0.000 HD
ENDBRANCH   1  10
BRANCH   5  14
ATOM     14  C   UNL     1      44.569   3.677   8.348  0.00  0.00    +0.000 C 
BRANCH  14  15
ATOM     15  C   UNL     1      45.755   2.868   7.878  0.00  0.00    +0.000 A 
ATOM     16  C   UNL     1      45.881   1.500   8.153  0.00  0.00    +0.000 A 
ATOM     17  C   UNL     1      46.986   0.815   7.677  0.00  0.00    +0.000 A 
ATOM     18  N   UNL     1      47.958   1.385   6.933  0.00  0.00    +0.000 NA
ATOM     19  C   UNL     1      47.815   2.698   6.661  0.00  0.00    +0.000 A 
ATOM     20  C   UNL     1      46.746   3.469   7.095  0.00  0.00    +0.000 A 
ENDBRANCH  14  15
ENDBRANCH   5  14
TORSDOF 3
ENDMDL
MODEL 3
REMARK VINA RESULT:    -7.043      1.545      1.846
REMARK INTER + INTRA:          -8.755
REMARK INTER:                  -8.475
REMARK INTRA:                  -0.280
REMARK UNBOUND:                -0.477
REMARK  Name = 
REMARK  3 active torsions:
REMARK  status: ('A' for Active; 'I' for Inactive)
REMARK    1  A    between atoms: C_2  and  C_4
REMARK    2  A    between atoms: N_8  and  C_9
REMARK    3  A    between atoms: C_9  and  C_10
REMARK                            x       y       z     vdW  Elec       q    Type
REMARK                         _______ _______ _______ _____ _____    ______ ____
ROOT
ATOM      1  C   UNL     1      46.686   2.494   7.182  0.00  0.00    +0.000 A 
ATOM      2  C   UNL     1      46.280   3.728   7.681  0.00  0.00    +0.000 A 
ATOM      3  C   UNL     1      45.506   3.770   8.840  0.00  0.00    +0.000 A 
ATOM      4  C   UNL     1      45.128   2.584   9.464  0.00  0.00    +0.000 A 
ATOM      5  N   UNL     1      44.429   2.542  10.646  0.00  0.00    +0.000 N 
ATOM      6  N   UNL     1      45.505   1.385   8.981  0.00  0.00    +0.000 NA
ATOM      7  C   UNL     1      46.264   1.359   7.854  0.00  0.00    +0.000 A 
ATOM      8  H   UNL     1      44.206   1.579  10.876  0.00  0.00    +0.000 HD
ENDROOT
BRANCH   1  10
ATOM      9  N   UNL     1      47.362   3.279   4.986  0.00  0.00    +0.000 N 
ATOM     10  C   UNL     1      47.529   2.353   5.978  0.00  0.00    +0.000 C 
ATOM     11  O   UNL     1      48.366   1.466   5.885  0.00  0.00    +0.000 OA
ATOM     12  H   UNL     1      48.014   3.229   4.212  0.00  0.00    +0.000 HD
ATOM     13  H   UNL     1      46.876   4.152   5.129  0.00  0.00    +0.000 HD
ENDBRANCH   1  10
BRANCH   5  14
ATOM     14  C   UNL     1      43.425   3.526  10.995  0.00  0.00    +0.000 C 
BRANCH  14  15
ATOM     15  C   UNL     1      44.061   4.728  11.653  0.00  0.00    +0.000 A 
ATOM     16  C   UNL     1      45.009   4.602  12.677  0.00  0.00    +0.000 A 
ATOM     17  C   UNL     1      45.564   5.746  13.225  0.00  0.00    +0.000 A 
ATOM     18  N   UNL     1      45.263   6.997  12.815  0.00  0.00    +0.000 NA
ATOM     19  C   UNL     1      44.362   7.101  11.817  0.00  0.00    +0.000 A 
ATOM     20  C   UNL     1      43.750   6.016  11.207  0.00  0.00    +0.000 A 
ENDBRANCH  14  15
ENDBRANCH   5  14
TORSDOF 3
ENDMDL
MODEL 4
REMARK VINA RESULT:    -6.430      2.753      6.253
REMARK INTER + INTRA:          -8.034
REMARK INTER:                  -7.763
REMARK INTRA:                  -0.271
REMARK UNBOUND:                -0.477
REMARK  Name = 
REMARK  3 active torsions:
REMARK  status: ('A' for Active; 'I' for Inactive)
REMARK    1  A    between atoms: C_2  and  C_4
REMARK    2  A    between atoms: N_8  and  C_9
REMARK    3  A    between atoms: C_9  and  C_10
REMARK                            x       y       z     vdW  Elec       q    Type
REMARK                         _______ _______ _______ _____ _____    ______ ____
ROOT
ATOM      1  C   UNL     1      46.468   4.673  13.948  0.00  0.00    +0.000 A 
ATOM      2  C   UNL     1      46.377   3.544  13.138  0.00  0.00    +0.000 A 
ATOM      3  C   UNL     1      45.889   3.679  11.839  0.00  0.00    +0.000 A 
ATOM      4  C   UNL     1      45.477   4.927  11.379  0.00  0.00    +0.000 A 
ATOM      5  N   UNL     1      45.053   5.156  10.093  0.00  0.00    +0.000 N 
ATOM      6  N   UNL     1      45.549   6.022  12.160  0.00  0.00    +0.000 NA
ATOM      7  C   UNL     1      46.032   5.878  13.422  0.00  0.00    +0.000 A 
ATOM      8  H   UNL     1      44.739   6.117  10.003  0.00  0.00    +0.000 HD
ENDROOT
BRANCH   1  10
ATOM      9  N   UNL     1      47.782   5.677  15.726  0.00  0.00    +0.000 N 
ATOM     10  C   UNL     1      46.997   4.632  15.325  0.00  0.00    +0.000 C 
ATOM     11  O   UNL     1      46.718   3.718  16.089  0.00  0.00    +0.000 OA
ATOM     12  H   UNL     1      48.054   5.685  16.702  0.00  0.00    +0.000 HD
ATOM     13  H   UNL     1      47.825   6.553  15.225  0.00  0.00    +0.000 HD
ENDBRANCH   1  10
BRANCH   5  14
ATOM     14  C   UNL     1      44.313   4.174   9.328  0.00  0.00    +0.000 C 
BRANCH  14  15
ATOM     15  C   UNL     1      45.253   3.293   8.538  0.00  0.00    +0.000 A 
ATOM     16  C   UNL     1      46.111   3.809   7.558  0.00  0.00    +0.000 A 
ATOM     17  C   UNL     1      46.959   2.948   6.883  0.00  0.00    +0.000 A 
ATOM     18  N   UNL     1      47.031   1.622   7.128  0.00  0.00    +0.000 NA
ATOM     19  C   UNL     1      46.213   1.143   8.087  0.00  0.00    +0.000 A 
ATOM     20  C   UNL     1      45.327   1.924   8.814  0.00  0.00    +0.000 A 
ENDBRANCH  14  15
ENDBRANCH   5  14
TORSDOF 3
ENDMDL
MODEL 5
REMARK VINA RESULT:    -6.224      3.079      6.467
REMARK INTER + INTRA:          -7.792
REMARK INTER:                  -7.485
REMARK INTRA:                  -0.308
REMARK UNBOUND:                -0.477
REMARK  Name = 
REMARK  3 active torsions:
REMARK  status: ('A' for Active; 'I' for Inactive)
REMARK    1  A    between atoms: C_2  and  C_4
REMARK    2  A    between atoms: N_8  and  C_9
REMARK    3  A    between atoms: C_9  and  C_10
REMARK                            x       y       z     vdW  Elec       q    Type
REMARK                         _______ _______ _______ _____ _____    ______ ____
ROOT
ATOM      1  C   UNL     1      47.011   7.412  13.240  0.00  0.00    +0.000 A 
ATOM      2  C   UNL     1      47.128   6.082  12.848  0.00  0.00    +0.000 A 
ATOM      3  C   UNL     1      46.217   5.563  11.929  0.00  0.00    +0.000 A 
ATOM      4  C   UNL     1      45.194   6.368  11.437  0.00  0.00    +0.000 A 
ATOM      5  N   UNL     1      44.303   5.955  10.477  0.00  0.00    +0.000 N 
ATOM      6  N   UNL     1      45.065   7.652  11.821  0.00  0.00    +0.000 NA
ATOM      7  C   UNL     1      45.963   8.147  12.713  0.00  0.00    +0.000 A 
ATOM      8  H   UNL     1      43.607   6.677  10.323  0.00  0.00    +0.000 HD
ENDROOT
BRANCH   1  10
ATOM      9  N   UNL     1      47.421   8.971  15.056  0.00  0.00    +0.000 N 
ATOM     10  C   UNL     1      47.944   8.055  14.186  0.00  0.00    +0.000 C 
ATOM     11  O   UNL     1      49.130   7.757  14.216  0.00  0.00    +0.000 OA
ATOM     12  H   UNL     1      48.052   9.328  15.764  0.00  0.00    +0.000 HD
ATOM     13  H   UNL     1      46.430   9.054  15.232  0.00  0.00    +0.000 HD
ENDBRANCH   1  10
BRANCH   5  14
ATOM     14  C   UNL     1      43.827   4.589  10.389  0.00  0.00    +0.000 C 
BRANCH  14  15
ATOM     15  C   UNL     1      44.676   3.789   9.429  0.00  0.00    +0.000 A 
ATOM     16  C   UNL     1      45.441   4.398   8.425  0.00  0.00    +0.000 A 
ATOM     17  C   UNL     1      46.210   3.605   7.590  0.00  0.00    +0.000 A 
ATOM     18  N   UNL     1      46.290   2.261   7.695  0.00  0.00    +0.000 NA
ATOM     19  C   UNL     1      45.563   1.692   8.677  0.00  0.00    +0.000 A 
ATOM     20  C   UNL     1      44.761   2.399   9.560  0.00  0.00    +0.000 A 
ENDBRANCH  14  15
ENDBRANCH   5  14
TORSDOF 3
ENDMDL
MODEL 6
REMARK VINA RESULT:    -5.512      3.287      5.182
REMARK INTER + INTRA:          -6.956
REMARK INTER:                  -6.631
REMARK INTRA:                  -0.325
REMARK UNBOUND:                -0.477
REMARK  Name = 
REMARK  3 active torsions:
REMARK  status: ('A' for Active; 'I' for Inactive)
REMARK    1  A    between atoms: C_2  and  C_4
REMARK    2  A    between atoms: N_8  and  C_9
REMARK    3  A    between atoms: C_9  and  C_10
REMARK                            x       y       z     vdW  Elec       q    Type
REMARK                         _______ _______ _______ _____ _____    ______ ____
ROOT
ATOM      1  C   UNL     1      44.537   4.084  11.488  0.00  0.00    +0.000 A 
ATOM      2  C   UNL     1      45.113   5.029  10.643  0.00  0.00    +0.000 A 
ATOM      3  C   UNL     1      45.686   6.173  11.195  0.00  0.00    +0.000 A 
ATOM      4  C   UNL     1      45.652   6.369  12.573  0.00  0.00    +0.000 A 
ATOM      5  N   UNL     1      46.256   7.432  13.199  0.00  0.00    +0.000 N 
ATOM      6  N   UNL     1      45.086   5.468  13.397  0.00  0.00    +0.000 NA
ATOM      7  C   UNL     1      44.536   4.354  12.846  0.00  0.00    +0.000 A 
ATOM      8  H   UNL     1      46.045   7.409  14.192  0.00  0.00    +0.000 HD
ENDROOT
BRANCH   1  10
ATOM      9  N   UNL     1      44.519   2.233   9.917  0.00  0.00    +0.000 N 
ATOM     10  C   UNL     1      43.931   2.831  10.997  0.00  0.00    +0.000 C 
ATOM     11  O   UNL     1      42.964   2.328  11.552  0.00  0.00    +0.000 OA
ATOM     12  H   UNL     1      44.155   1.325   9.654  0.00  0.00    +0.000 HD
ATOM     13  H   UNL     1      45.447   2.472   9.597  0.00  0.00    +0.000 HD
ENDBRANCH   1  10
BRANCH   5  14
ATOM     14  C   UNL     1      46.337   8.749  12.601  0.00  0.00    +0.000 C 
BRANCH  14  15
ATOM     15  C   UNL     1      47.749   9.045  12.151  0.00  0.00    +0.000 A 
ATOM     16  C   UNL     1      48.742   8.058  12.115  0.00  0.00    +0.000 A 
ATOM     17  C   UNL     1      50.012   8.395  11.675  0.00  0.00    +0.000 A 
ATOM     18  N   UNL     1      50.355   9.629  11.251  0.00  0.00    +0.000 NA
ATOM     19  C   UNL     1      49.384  10.564  11.274  0.00  0.00    +0.000 A 
ATOM     20  C   UNL     1      48.085  10.325  11.699  0.00  0.00    +0.000 A 
ENDBRANCH  14  15
ENDBRANCH   5  14
TORSDOF 3
ENDMDL
MODEL 7
REMARK VINA RESULT:    -5.381      4.972      8.387
REMARK INTER + INTRA:          -6.802
REMARK INTER:                  -6.545
REMARK INTRA:                  -0.257
REMARK UNBOUND:                -0.477
REMARK  Name = 
REMARK  3 active torsions:
REMARK  status: ('A' for Active; 'I' for Inactive)
REMARK    1  A    between atoms: C_2  and  C_4
REMARK    2  A    between atoms: N_8  and  C_9
REMARK    3  A    between atoms: C_9  and  C_10
REMARK                            x       y       z     vdW  Elec       q    Type
REMARK                         _______ _______ _______ _____ _____    ______ ____
ROOT
ATOM      1  C   UNL     1      48.693   4.208  18.165  0.00  0.00    +0.000 A 
ATOM      2  C   UNL     1      47.817   5.203  17.741  0.00  0.00    +0.000 A 
ATOM      3  C   UNL     1      47.196   5.077  16.500  0.00  0.00    +0.000 A 
ATOM      4  C   UNL     1      47.478   3.978  15.692  0.00  0.00    +0.000 A 
ATOM      5  N   UNL     1      46.855   3.744  14.491  0.00  0.00    +0.000 N 
ATOM      6  N   UNL     1      48.334   3.017  16.088  0.00  0.00    +0.000 NA
ATOM      7  C   UNL     1      48.928   3.150  17.303  0.00  0.00    +0.000 A 
ATOM      8  H   UNL     1      47.264   2.928  14.047  0.00  0.00    +0.000 HD
ENDROOT
BRANCH   1  10
ATOM      9  N   UNL     1      48.657   3.839  20.564  0.00  0.00    +0.000 N 
ATOM     10  C   UNL     1      49.375   4.243  19.473  0.00  0.00    +0.000 C 
ATOM     11  O   UNL     1      50.545   4.587  19.575  0.00  0.00    +0.000 OA
ATOM     12  H   UNL     1      49.167   3.773  21.437  0.00  0.00    +0.000 HD
ATOM     13  H   UNL     1      47.795   3.319  20.490  0.00  0.00    +0.000 HD
ENDBRANCH   1  10
BRANCH   5  14
ATOM     14  C   UNL     1      46.448   4.812  13.600  0.00  0.00    +0.000 C 
BRANCH  14  15
ATOM     15  C   UNL     1      45.204   4.425  12.835  0.00  0.00    +0.000 A 
ATOM     16  C   UNL     1      44.033   5.191  12.881  0.00  0.00    +0.000 A 
ATOM     17  C   UNL     1      42.934   4.788  12.140  0.00  0.00    +0.000 A 
ATOM     18  N   UNL     1      42.925   3.696  11.346  0.00  0.00    +0.000 NA
ATOM     19  C   UNL     1      44.066   2.978  11.298  0.00  0.00    +0.000 A 
ATOM     20  C   UNL     1      45.216   3.300  12.004  0.00  0.00    +0.000 A 
ENDBRANCH  14  15
ENDBRANCH   5  14
TORSDOF 3
ENDMDL
MODEL 8
REMARK VINA RESULT:    -5.219      3.479      5.336
REMARK INTER + INTRA:          -6.611
REMARK INTER:                  -6.320
REMARK INTRA:                  -0.292
REMARK UNBOUND:                -0.477
REMARK  Name = 
REMARK  3 active torsions:
REMARK  status: ('A' for Active; 'I' for Inactive)
REMARK    1  A    between atoms: C_2  and  C_4
REMARK    2  A    between atoms: N_8  and  C_9
REMARK    3  A    between atoms: C_9  and  C_10
REMARK                            x       y       z     vdW  Elec       q    Type
REMARK                         _______ _______ _______ _____ _____    ______ ____
ROOT
ATOM      1  C   UNL     1      44.947   3.873  11.681  0.00  0.00    +0.000 A 
ATOM      2  C   UNL     1      45.660   3.564  12.836  0.00  0.00    +0.000 A 
ATOM      3  C   UNL     1      46.382   4.569  13.477  0.00  0.00    +0.000 A 
ATOM      4  C   UNL     1      46.403   5.855  12.944  0.00  0.00    +0.000 A 
ATOM      5  N   UNL     1      47.030   6.915  13.553  0.00  0.00    +0.000 N 
ATOM      6  N   UNL     1      45.728   6.161  11.820  0.00  0.00    +0.000 NA
ATOM      7  C   UNL     1      45.023   5.172  11.208  0.00  0.00    +0.000 A 
ATOM      8  H   UNL     1      46.974   7.734  12.955  0.00  0.00    +0.000 HD
ENDROOT
BRANCH   1  10
ATOM      9  N   UNL     1      44.699   2.294   9.853  0.00  0.00    +0.000 N 
ATOM     10  C   UNL     1      44.133   2.882  10.951  0.00  0.00    +0.000 C 
ATOM     11  O   UNL     1      43.012   2.571  11.330  0.00  0.00    +0.000 OA
ATOM     12  H   UNL     1      44.169   1.545   9.423  0.00  0.00    +0.000 HD
ATOM     13  H   UNL     1      45.690   2.332   9.662  0.00  0.00    +0.000 HD
ENDBRANCH   1  10
BRANCH   5  14
ATOM     14  C   UNL     1      48.254   6.768  14.312  0.00  0.00    +0.000 C 
BRANCH  14  15
ATOM     15  C   UNL     1      49.422   7.370  13.566  0.00  0.00    +0.000 A 
ATOM     16  C   UNL     1      49.474   7.403  12.167  0.00  0.00    +0.000 A 
ATOM     17  C   UNL     1      50.566   7.987  11.547  0.00  0.00    +0.000 A 
ATOM     18  N   UNL     1      51.593   8.555  12.215  0.00  0.00    +0.000 NA
ATOM     19  C   UNL     1      51.520   8.531  13.561  0.00  0.00    +0.000 A 
ATOM     20  C   UNL     1      50.470   7.968  14.272  0.00  0.00    +0.000 A 
ENDBRANCH  14  15
ENDBRANCH   5  14
TORSDOF 3
ENDMDL
