MODEL 1
REMARK VINA RESULT:    -8.662      0.000      0.000
REMARK INTER + INTRA:         -10.532
REMARK INTER:                 -10.181
REMARK INTRA:                  -0.351
REMARK UNBOUND:                -0.351
REMARK  Name = 
REMARK  3 active torsions:
REMARK  status: ('A' for Active; 'I' for Inactive)
REMARK    1  A    between atoms: C_2  and  C_4
REMARK    2  A    between atoms: C_7  and  C_8
REMARK    3  A    between atoms: C_8  and  N_9
REMARK                            x       y       z     vdW  Elec       q    Type
REMARK                         _______ _______ _______ _____ _____    ______ ____
ROOT
ATOM      1  C   UNL     1      46.436   2.439   7.655  0.00  0.00    +0.000 A 
ATOM      2  C   UNL     1      45.596   1.773   8.553  0.00  0.00    +0.000 A 
ATOM      3  C   UNL     1      44.767   2.501   9.412  0.00  0.00    +0.000 A 
ATOM      4  C   UNL     1      44.768   3.905   9.389  0.00  0.00    +0.000 A 
ATOM      5  C   UNL     1      45.619   4.564   8.491  0.00  0.00    +0.000 A 
ATOM      6  C   UNL     1      46.449   3.837   7.632  0.00  0.00    +0.000 A 
ENDROOT
BRANCH   1   8
ATOM      7  N   UNL     1      48.411   2.397   6.226  0.00  0.00    +0.000 N 
ATOM      8  C   UNL     1      47.347   1.707   6.738  0.00  0.00    +0.000 C 
ATOM      9  O   UNL     1      47.180   0.523   6.475  0.00  0.00    +0.000 OA
ATOM     10  H   UNL     1      49.074   1.860   5.684  0.00  0.00    +0.000 HD
ATOM     11  H   UNL     1      48.719   3.281   6.604  0.00  0.00    +0.000 HD
ENDBRANCH   1   8
BRANCH   4  12
ATOM     12  C   UNL     1      43.884   4.694  10.325  0.00  0.00    +0.000 C 
BRANCH  12  13
ATOM     13  N   UNL     1      44.649   5.409  11.340  0.00  0.00    +0.000 N 
ATOM     14  C   UNL     1      44.628   6.775  11.499  0.00  0.00    +0.000 A 
ATOM     15  C   UNL     1      45.388   7.092  12.600  0.00  0.00    +0.000 A 
ATOM     16  C   UNL     1      45.879   5.877  13.149  0.00  0.00    +0.000 A 
ATOM     17  C   UNL     1      46.673   5.567  14.262  0.00  0.00    +0.000 A 
ATOM     18  C   UNL     1      46.925   4.223  14.471  0.00  0.00    +0.000 A 
ATOM     19 CL   UNL     1      47.867   3.718  15.817  0.00  0.00    +0.000 Cl
ATOM     20  N   UNL     1      46.479   3.212  13.700  0.00  0.00    +0.000 NA
ATOM     21  C   UNL     1      45.717   3.507  12.625  0.00  0.00    +0.000 A 
ATOM     22  C   UNL     1      45.408   4.835  12.343  0.00  0.00    +0.000 A 
ENDBRANCH  12  13
ENDBRANCH   4  12
TORSDOF 3
ENDMDL
MODEL 2
REMARK VINA RESULT:    -8.030      1.779      2.558
REMARK INTER + INTRA:          -9.790
REMARK INTER:                  -9.276
REMARK INTRA:                  -0.514
REMARK UNBOUND:                -0.351
REMARK  Name = 
REMARK  3 active torsions:
REMARK  status: ('A' for Active; 'I' for Inactive)
REMARK    1  A    between atoms: C_2  and  C_4
REMARK    2  A    between atoms: C_7  and  C_8
REMARK    3  A    between atoms: C_8  and  N_9
REMARK                            x       y       z     vdW  Elec       q    Type
REMARK                         _______ _______ _______ _____ _____    ______ ____
ROOT
ATOM      1  C   UNL     1      46.624   2.663   7.227  0.00  0.00    +0.000 A 
ATOM      2  C   UNL     1      46.097   1.698   8.092  0.00  0.00    +0.000 A 
ATOM      3  C   UNL     1      45.310   2.085   9.180  0.00  0.00    +0.000 A 
ATOM      4  C   UNL     1      45.039   3.441   9.423  0.00  0.00    +0.000 A 
ATOM      5  C   UNL     1      45.577   4.402   8.555  0.00  0.00    +0.000 A 
ATOM      6  C   UNL     1      46.367   4.016   7.467  0.00  0.00    +0.000 A 
ENDROOT
BRANCH   1   8
ATOM      7  N   UNL     1      47.401   3.089   4.956  0.00  0.00    +0.000 N 
ATOM      8  C   UNL     1      47.481   2.300   6.070  0.00  0.00    +0.000 C 
ATOM      9  O   UNL     1      48.259   1.355   6.117  0.00  0.00    +0.000 OA
ATOM     10  H   UNL     1      48.061   2.888   4.216  0.00  0.00    +0.000 HD
ATOM     11  H   UNL     1      46.969   4.001   4.965  0.00  0.00    +0.000 HD
ENDBRANCH   1   8
BRANCH   4  12
ATOM     12  C   UNL     1      44.200   3.863  10.605  0.00  0.00    +0.000 C 
BRANCH  12  13
ATOM     13  N   UNL     1      45.013   4.303  11.733  0.00  0.00    +0.000 N 
ATOM     14  C   UNL     1      45.560   3.453  12.666  0.00  0.00    +0.000 A 
ATOM     15  C   UNL     1      46.334   4.198  13.524  0.00  0.00    +0.000 A 
ATOM     16  C   UNL     1      46.276   5.551  13.094  0.00  0.00    +0.000 A 
ATOM     17  C   UNL     1      46.865   6.739  13.549  0.00  0.00    +0.000 A 
ATOM     18  C   UNL     1      46.561   7.880  12.830  0.00  0.00    +0.000 A 
ATOM     19 CL   UNL     1      47.241   9.393  13.279  0.00  0.00    +0.000 Cl
ATOM     20  N   UNL     1      45.755   7.936  11.751  0.00  0.00    +0.000 NA
ATOM     21  C   UNL     1      45.183   6.794  11.312  0.00  0.00    +0.000 A 
ATOM     22  C   UNL     1      45.441   5.596  11.973  0.00  0.00    +0.000 A 
ENDBRANCH  12  13
ENDBRANCH   4  12
TORSDOF 3
ENDMDL
MODEL 3
REMARK VINA RESULT:    -7.893      2.134      3.301
REMARK INTER + INTRA:          -9.628
REMARK INTER:                  -9.085
REMARK INTRA:                  -0.543
REMARK UNBOUND:                -0.351
REMARK  Name = 
REMARK  3 active torsions:
REMARK  status: ('A' for Active; 'I' for Inactive)
REMARK    1  A    between atoms: C_2  and  C_4
REMARK    2  A    between atoms: C_7  and  C_8
REMARK    3  A    between atoms: C_8  and  N_9
REMARK                            x       y       z     vdW  Elec       q    Type
REMARK                         _______ _______ _______ _____ _____    ______ ____
ROOT
ATOM      1  C   UNL     1      46.452   2.459   7.716  0.00  0.00    +0.000 A 
ATOM      2  C   UNL     1      46.369   3.855   7.738  0.00  0.00    +0.000 A 
ATOM      3  C   UNL     1      45.506   4.492   8.635  0.00  0.00    +0.000 A 
ATOM      4  C   UNL     1      44.711   3.745   9.518  0.00  0.00    +0.000 A 
ATOM      5  C   UNL     1      44.796   2.345   9.483  0.00  0.00    +0.000 A 
ATOM      6  C   UNL     1      45.658   1.707   8.586  0.00  0.00    +0.000 A 
ENDROOT
BRANCH   1   8
ATOM      7  N   UNL     1      48.400   2.431   6.249  0.00  0.00    +0.000 N 
ATOM      8  C   UNL     1      47.341   1.739   6.768  0.00  0.00    +0.000 C 
ATOM      9  O   UNL     1      47.161   0.561   6.485  0.00  0.00    +0.000 OA
ATOM     10  H   UNL     1      49.050   1.900   5.684  0.00  0.00    +0.000 HD
ATOM     11  H   UNL     1      48.721   3.306   6.637  0.00  0.00    +0.000 HD
ENDBRANCH   1   8
BRANCH   4  12
ATOM     12  C   UNL     1      43.768   4.430  10.478  0.00  0.00    +0.000 C 
BRANCH  12  13
ATOM     13  N   UNL     1      44.475   5.201  11.494  0.00  0.00    +0.000 N 
ATOM     14  C   UNL     1      45.244   4.642  12.488  0.00  0.00    +0.000 A 
ATOM     15  C   UNL     1      45.830   5.661  13.202  0.00  0.00    +0.000 A 
ATOM     16  C   UNL     1      45.421   6.889  12.616  0.00  0.00    +0.000 A 
ATOM     17  C   UNL     1      45.704   8.234  12.889  0.00  0.00    +0.000 A 
ATOM     18  C   UNL     1      45.104   9.161  12.057  0.00  0.00    +0.000 A 
ATOM     19 CL   UNL     1      45.394  10.841  12.278  0.00  0.00    +0.000 Cl
ATOM     20  N   UNL     1      44.280   8.874  11.029  0.00  0.00    +0.000 NA
ATOM     21  C   UNL     1      44.002   7.580  10.766  0.00  0.00    +0.000 A 
ATOM     22  C   UNL     1      44.570   6.579  11.550  0.00  0.00    +0.000 A 
ENDBRANCH  12  13
ENDBRANCH   4  12
TORSDOF 3
ENDMDL
MODEL 4
REMARK VINA RESULT:    -7.043      3.909      6.554
REMARK INTER + INTRA:          -8.630
REMARK INTER:                  -8.147
REMARK INTRA:                  -0.483
REMARK UNBOUND:                -0.351
REMARK  Name = 
REMARK  3 active torsions:
REMARK  status: ('A' for Active; 'I' for Inactive)
REMARK    1  A    between atoms: C_2  and  C_4
REMARK    2  A    between atoms: C_7  and  C_8
REMARK    3  A    between atoms: C_8  and  N_9
REMARK                            x       y       z     vdW  Elec       q    Type
REMARK                         _______ _______ _______ _____ _____    ______ ____
ROOT
ATOM      1  C   UNL     1      47.788   6.846  13.607  0.00  0.00    +0.000 A 
ATOM      2  C   UNL     1      47.138   5.628  13.826  0.00  0.00    +0.000 A 
ATOM      3  C   UNL     1      46.031   5.274  13.047  0.00  0.00    +0.000 A 
ATOM      4  C   UNL     1      45.556   6.132  12.044  0.00  0.00    +0.000 A 
ATOM      5  C   UNL     1      46.210   7.356  11.838  0.00  0.00    +0.000 A 
ATOM      6  C   UNL     1      47.316   7.711  12.616  0.00  0.00    +0.000 A 
ENDROOT
BRANCH   1   8
ATOM      7  N   UNL     1      50.156   7.401  13.781  0.00  0.00    +0.000 N 
ATOM      8  C   UNL     1      48.955   7.272  14.422  0.00  0.00    +0.000 C 
ATOM      9  O   UNL     1      48.847   7.536  15.613  0.00  0.00    +0.000 OA
ATOM     10  H   UNL     1      50.916   7.786  14.326  0.00  0.00    +0.000 HD
ATOM     11  H   UNL     1      50.235   7.434  12.775  0.00  0.00    +0.000 HD
ENDBRANCH   1   8
BRANCH   4  12
ATOM     12  C   UNL     1      44.353   5.759  11.212  0.00  0.00    +0.000 C 
BRANCH  12  13
ATOM     13  N   UNL     1      44.499   4.452  10.581  0.00  0.00    +0.000 N 
ATOM     14  C   UNL     1      43.855   3.315  11.009  0.00  0.00    +0.000 A 
ATOM     15  C   UNL     1      44.151   2.297  10.133  0.00  0.00    +0.000 A 
ATOM     16  C   UNL     1      44.993   2.830   9.121  0.00  0.00    +0.000 A 
ATOM     17  C   UNL     1      45.589   2.292   7.973  0.00  0.00    +0.000 A 
ATOM     18  C   UNL     1      46.349   3.166   7.217  0.00  0.00    +0.000 A 
ATOM     19 CL   UNL     1      47.111   2.627   5.774  0.00  0.00    +0.000 Cl
ATOM     20  N   UNL     1      46.560   4.467   7.500  0.00  0.00    +0.000 NA
ATOM     21  C   UNL     1      45.991   4.989   8.607  0.00  0.00    +0.000 A 
ATOM     22  C   UNL     1      45.202   4.181   9.422  0.00  0.00    +0.000 A 
ENDBRANCH  12  13
ENDBRANCH   4  12
TORSDOF 3
ENDMDL
MODEL 5
REMARK VINA RESULT:    -6.378      2.014      2.656
REMARK INTER + INTRA:          -7.848
REMARK INTER:                  -7.415
REMARK INTRA:                  -0.434
REMARK UNBOUND:                -0.351
REMARK  Name = 
REMARK  3 active torsions:
REMARK  status: ('A' for Active; 'I' for Inactive)
REMARK    1  A    between atoms: C_2  and  C_4
REMARK    2  A    between atoms: C_7  and  C_8
REMARK    3  A    between atoms: C_8  and  N_9
REMARK                            x       y       z     vdW  Elec       q    Type
REMARK                         _______ _______ _______ _____ _____    ______ ____
ROOT
ATOM      1  C   UNL     1      45.572   3.417   8.809  0.00  0.00    +0.000 A 
ATOM      2  C   UNL     1      45.840   4.789   8.853  0.00  0.00    +0.000 A 
ATOM      3  C   UNL     1      45.422   5.550   9.949  0.00  0.00    +0.000 A 
ATOM      4  C   UNL     1      44.728   4.954  11.013  0.00  0.00    +0.000 A 
ATOM      5  C   UNL     1      44.458   3.579  10.956  0.00  0.00    +0.000 A 
ATOM      6  C   UNL     1      44.875   2.817   9.860  0.00  0.00    +0.000 A 
ENDROOT
BRANCH   1   8
ATOM      7  N   UNL     1      46.418   1.307   7.929  0.00  0.00    +0.000 N 
ATOM      8  C   UNL     1      45.980   2.573   7.656  0.00  0.00    +0.000 C 
ATOM      9  O   UNL     1      45.896   2.974   6.502  0.00  0.00    +0.000 OA
ATOM     10  H   UNL     1      46.598   0.713   7.130  0.00  0.00    +0.000 HD
ATOM     11  H   UNL     1      46.272   0.860   8.822  0.00  0.00    +0.000 HD
ENDBRANCH   1   8
BRANCH   4  12
ATOM     12  C   UNL     1      44.264   5.776  12.192  0.00  0.00    +0.000 C 
BRANCH  12  13
ATOM     13  N   UNL     1      45.194   6.850  12.519  0.00  0.00    +0.000 N 
ATOM     14  C   UNL     1      44.956   8.180  12.262  0.00  0.00    +0.000 A 
ATOM     15  C   UNL     1      45.996   8.912  12.783  0.00  0.00    +0.000 A 
ATOM     16  C   UNL     1      46.898   8.003  13.399  0.00  0.00    +0.000 A 
ATOM     17  C   UNL     1      48.102   8.157  14.100  0.00  0.00    +0.000 A 
ATOM     18  C   UNL     1      48.685   6.993  14.566  0.00  0.00    +0.000 A 
ATOM     19 CL   UNL     1      50.151   7.057  15.460  0.00  0.00    +0.000 Cl
ATOM     20  N   UNL     1      48.196   5.748  14.396  0.00  0.00    +0.000 NA
ATOM     21  C   UNL     1      47.038   5.596  13.719  0.00  0.00    +0.000 A 
ATOM     22  C   UNL     1      46.379   6.716  13.219  0.00  0.00    +0.000 A 
ENDBRANCH  12  13
ENDBRANCH   4  12
TORSDOF 3
ENDMDL
MODEL 6
REMARK VINA RESULT:    -5.894      4.868      7.961
REMARK INTER + INTRA:          -7.278
REMARK INTER:                  -7.015
REMARK INTRA:                  -0.264
REMARK UNBOUND:                -0.351
REMARK  Name = 
REMARK  3 active torsions:
REMARK  status: ('A' for Active; 'I' for Inactive)
REMARK    1  A    between atoms: C_2  and  C_4
REMARK    2  A    between atoms: C_7  and  C_8
REMARK    3  A    between atoms: C_8  and  N_9
REMARK                            x       y       z     vdW  Elec       q    Type
REMARK                         _______ _______ _______ _____ _____    ______ ____
ROOT
ATOM      1  C   UNL     1      51.123   2.310  17.502  0.00  0.00    +0.000 A 
ATOM      2  C   UNL     1      51.136   3.665  17.850  0.00  0.00    +0.000 A 
ATOM      3  C   UNL     1      50.018   4.464  17.597  0.00  0.00    +0.000 A 
ATOM      4  C   UNL     1      48.873   3.925  16.989  0.00  0.00    +0.000 A 
ATOM      5  C   UNL     1      48.873   2.568  16.637  0.00  0.00    +0.000 A 
ATOM      6  C   UNL     1      49.991   1.767  16.888  0.00  0.00    +0.000 A 
ENDROOT
BRANCH   1   8
ATOM      7  N   UNL     1      52.048   0.165  18.199  0.00  0.00    +0.000 N 
ATOM      8  C   UNL     1      52.295   1.427  17.734  0.00  0.00    +0.000 C 
ATOM      9  O   UNL     1      53.437   1.793  17.486  0.00  0.00    +0.000 OA
ATOM     10  H   UNL     1      52.846  -0.455  18.259  0.00  0.00    +0.000 HD
ATOM     11  H   UNL     1      51.130  -0.252  18.181  0.00  0.00    +0.000 HD
ENDBRANCH   1   8
BRANCH   4  12
ATOM     12  C   UNL     1      47.669   4.790  16.702  0.00  0.00    +0.000 C 
BRANCH  12  13
ATOM     13  N   UNL     1      47.849   5.614  15.512  0.00  0.00    +0.000 N 
ATOM     14  C   UNL     1      48.815   6.585  15.387  0.00  0.00    +0.000 A 
ATOM     15  C   UNL     1      48.753   7.092  14.111  0.00  0.00    +0.000 A 
ATOM     16  C   UNL     1      47.724   6.396  13.420  0.00  0.00    +0.000 A 
ATOM     17  C   UNL     1      47.222   6.457  12.113  0.00  0.00    +0.000 A 
ATOM     18  C   UNL     1      46.195   5.578  11.817  0.00  0.00    +0.000 A 
ATOM     19 CL   UNL     1      45.513   5.544  10.240  0.00  0.00    +0.000 Cl
ATOM     20  N   UNL     1      45.650   4.692  12.673  0.00  0.00    +0.000 NA
ATOM     21  C   UNL     1      46.129   4.633  13.934  0.00  0.00    +0.000 A 
ATOM     22  C   UNL     1      47.168   5.477  14.317  0.00  0.00    +0.000 A 
ENDBRANCH  12  13
ENDBRANCH   4  12
TORSDOF 3
ENDMDL
MODEL 7
REMARK VINA RESULT:    -5.735      4.206      5.653
REMARK INTER + INTRA:          -7.092
REMARK INTER:                  -6.577
REMARK INTRA:                  -0.514
REMARK UNBOUND:                -0.351
REMARK  Name = 
REMARK  3 active torsions:
REMARK  status: ('A' for Active; 'I' for Inactive)
REMARK    1  A    between atoms: C_2  and  C_4
REMARK    2  A    between atoms: C_7  and  C_8
REMARK    3  A    between atoms: C_8  and  N_9
REMARK                            x       y       z     vdW  Elec       q    Type
REMARK                         _______ _______ _______ _____ _____    ______ ____
ROOT
ATOM      1  C   UNL     1      44.571   5.378  11.965  0.00  0.00    +0.000 A 
ATOM      2  C   UNL     1      45.325   6.252  11.175  0.00  0.00    +0.000 A 
ATOM      3  C   UNL     1      46.631   6.585  11.549  0.00  0.00    +0.000 A 
ATOM      4  C   UNL     1      47.200   6.054  12.717  0.00  0.00    +0.000 A 
ATOM      5  C   UNL     1      46.434   5.185  13.506  0.00  0.00    +0.000 A 
ATOM      6  C   UNL     1      45.127   4.852  13.134  0.00  0.00    +0.000 A 
ENDROOT
BRANCH   1   8
ATOM      7  N   UNL     1      42.218   5.979  11.755  0.00  0.00    +0.000 N 
ATOM      8  C   UNL     1      43.174   5.011  11.618  0.00  0.00    +0.000 C 
ATOM      9  O   UNL     1      42.888   3.900  11.190  0.00  0.00    +0.000 OA
ATOM     10  H   UNL     1      41.291   5.744  11.422  0.00  0.00    +0.000 HD
ATOM     11  H   UNL     1      42.443   6.956  11.863  0.00  0.00    +0.000 HD
ENDBRANCH   1   8
BRANCH   4  12
ATOM     12  C   UNL     1      48.605   6.423  13.129  0.00  0.00    +0.000 C 
BRANCH  12  13
ATOM     13  N   UNL     1      48.627   7.388  14.223  0.00  0.00    +0.000 N 
ATOM     14  C   UNL     1      48.471   8.744  14.055  0.00  0.00    +0.000 A 
ATOM     15  C   UNL     1      48.453   9.332  15.298  0.00  0.00    +0.000 A 
ATOM     16  C   UNL     1      48.583   8.299  16.265  0.00  0.00    +0.000 A 
ATOM     17  C   UNL     1      48.608   8.281  17.666  0.00  0.00    +0.000 A 
ATOM     18  C   UNL     1      48.742   7.036  18.254  0.00  0.00    +0.000 A 
ATOM     19 CL   UNL     1      48.762   6.885  19.966  0.00  0.00    +0.000 Cl
ATOM     20  N   UNL     1      48.853   5.866  17.595  0.00  0.00    +0.000 NA
ATOM     21  C   UNL     1      48.833   5.880  16.245  0.00  0.00    +0.000 A 
ATOM     22  C   UNL     1      48.695   7.090  15.571  0.00  0.00    +0.000 A 
ENDBRANCH  12  13
ENDBRANCH   4  12
TORSDOF 3
ENDMDL
MODEL 8
REMARK VINA RESULT:    -5.711      4.268      5.719
REMARK INTER + INTRA:          -7.063
REMARK INTER:                  -6.566
REMARK INTRA:                  -0.497
REMARK UNBOUND:                -0.351
REMARK  Name = 
REMARK  3 active torsions:
REMARK  status: ('A' for Active; 'I' for Inactive)
REMARK    1  A    between atoms: C_2  and  C_4
REMARK    2  A    between atoms: C_7  and  C_8
REMARK    3  A    between atoms: C_8  and  N_9
REMARK                            x       y       z     vdW  Elec       q    Type
REMARK                         _______ _______ _______ _____ _____    ______ ____
ROOT
ATOM      1  C   UNL     1      44.450   4.162  11.371  0.00  0.00    +0.000 A 
ATOM      2  C   UNL     1      45.223   4.976  10.537  0.00  0.00    +0.000 A 
ATOM      3  C   UNL     1      45.706   6.202  11.005  0.00  0.00    +0.000 A 
ATOM      4  C   UNL     1      45.420   6.634  12.310  0.00  0.00    +0.000 A 
ATOM      5  C   UNL     1      44.638   5.815  13.135  0.00  0.00    +0.000 A 
ATOM      6  C   UNL     1      44.153   4.589  12.668  0.00  0.00    +0.000 A 
ENDROOT
BRANCH   1   8
ATOM      7  N   UNL     1      44.532   2.246   9.865  0.00  0.00    +0.000 N 
ATOM      8  C   UNL     1      43.900   2.861  10.910  0.00  0.00    +0.000 C 
ATOM      9  O   UNL     1      42.941   2.336  11.463  0.00  0.00    +0.000 OA
ATOM     10  H   UNL     1      44.207   1.318   9.629  0.00  0.00    +0.000 HD
ATOM     11  H   UNL     1      45.452   2.516   9.551  0.00  0.00    +0.000 HD
ENDBRANCH   1   8
BRANCH   4  12
ATOM     12  C   UNL     1      45.929   7.964  12.813  0.00  0.00    +0.000 C 
BRANCH  12  13
ATOM     13  N   UNL     1      47.383   7.997  12.920  0.00  0.00    +0.000 N 
ATOM     14  C   UNL     1      48.126   7.062  13.603  0.00  0.00    +0.000 A 
ATOM     15  C   UNL     1      49.457   7.351  13.417  0.00  0.00    +0.000 A 
ATOM     16  C   UNL     1      49.538   8.492  12.575  0.00  0.00    +0.000 A 
ATOM     17  C   UNL     1      50.603   9.222  12.031  0.00  0.00    +0.000 A 
ATOM     18  C   UNL     1      50.256  10.292  11.226  0.00  0.00    +0.000 A 
ATOM     19 CL   UNL     1      51.476  11.248  10.483  0.00  0.00    +0.000 Cl
ATOM     20  N   UNL     1      48.999  10.679  10.935  0.00  0.00    +0.000 NA
ATOM     21  C   UNL     1      47.969   9.981  11.460  0.00  0.00    +0.000 A 
ATOM     22  C   UNL     1      48.227   8.883  12.277  0.00  0.00    +0.000 A 
ENDBRANCH  12  13
ENDBRANCH   4  12
TORSDOF 3
ENDMDL
