MODEL 1
REMARK VINA RESULT:    -8.218      0.000      0.000
REMARK INTER + INTRA:         -10.351
REMARK INTER:                 -10.140
REMARK INTRA:                  -0.211
REMARK UNBOUND:                -0.211
REMARK  Name = 
REMARK  4 active torsions:
REMARK  status: ('A' for Active; 'I' for Inactive)
REMARK    1  A    between atoms: C_2  and  C_4
REMARK    2  A    between atoms: C_7  and  O_8
REMARK    3  A    between atoms: O_8  and  C_9
REMARK    4  A    between atoms: C_9  and  C_10
REMARK                            x       y       z     vdW  Elec       q    Type
REMARK                         _______ _______ _______ _____ _____    ______ ____
ROOT
ATOM      1  C   UNL     1      46.497   2.742   7.510  0.00  0.00    +0.000 A 
ATOM      2  C   UNL     1      45.999   1.776   8.363  0.00  0.00    +0.000 A 
ATOM      3  N   UNL     1      45.097   2.069   9.334  0.00  0.00    +0.000 NA
ATOM      4  C   UNL     1      44.706   3.362   9.423  0.00  0.00    +0.000 A 
ATOM      5  C   UNL     1      45.220   4.334   8.570  0.00  0.00    +0.000 A 
ATOM      6  N   UNL     1      46.121   4.053   7.585  0.00  0.00    +0.000 NA
ENDROOT
BRANCH   1   8
ATOM      7  N   UNL     1      47.505   3.121   5.342  0.00  0.00    +0.000 N 
ATOM      8  C   UNL     1      47.495   2.354   6.475  0.00  0.00    +0.000 C 
ATOM      9  O   UNL     1      48.260   1.410   6.624  0.00  0.00    +0.000 OA
ATOM     10  H   UNL     1      48.177   2.922   4.613  0.00  0.00    +0.000 HD
ATOM     11  H   UNL     1      46.867   3.908   5.252  0.00  0.00    +0.000 HD
ENDBRANCH   1   8
BRANCH   4  12
ATOM     12  O   UNL     1      43.813   3.564  10.428  0.00  0.00    +0.000 OA
BRANCH  12  13
ATOM     13  C   UNL     1      43.964   4.708  11.300  0.00  0.00    +0.000 C 
ATOM     14  C   UNL     1      42.651   4.992  12.033  0.00  0.00    +0.000 C 
ATOM     15  C   UNL     1      43.163   5.959  11.029  0.00  0.00    +0.000 C 
ATOM     16  F   UNL     1      43.604   7.174  11.524  0.00  0.00    +0.000 F 
BRANCH  13  17
ATOM     17  C   UNL     1      45.242   4.741  12.123  0.00  0.00    +0.000 A 
ATOM     18  C   UNL     1      46.072   5.855  12.064  0.00  0.00    +0.000 A 
ATOM     19  C   UNL     1      47.198   5.847  12.855  0.00  0.00    +0.000 A 
ATOM     20  N   UNL     1      47.532   4.825  13.653  0.00  0.00    +0.000 NA
ATOM     21  C   UNL     1      46.676   3.791  13.651  0.00  0.00    +0.000 A 
ATOM     22  N   UNL     1      45.535   3.707  12.943  0.00  0.00    +0.000 NA
ENDBRANCH  13  17
ENDBRANCH  12  13
ENDBRANCH   4  12
TORSDOF 4
ENDMDL
MODEL 2
REMARK VINA RESULT:    -7.881      1.057      1.476
REMARK INTER + INTRA:          -9.935
REMARK INTER:                 -10.451
REMARK INTRA:                   0.516
REMARK UNBOUND:                -0.211
REMARK  Name = 
REMARK  4 active torsions:
REMARK  status: ('A' for Active; 'I' for Inactive)
REMARK    1  A    between atoms: C_2  and  C_4
REMARK    2  A    between atoms: C_7  and  O_8
REMARK    3  A    between atoms: O_8  and  C_9
REMARK    4  A    between atoms: C_9  and  C_10
REMARK                            x       y       z     vdW  Elec       q    Type
REMARK                         _______ _______ _______ _____ _____    ______ ____
ROOT
ATOM      1  C   UNL     1      46.486   2.402   7.762  0.00  0.00    +0.000 A 
ATOM      2  C   UNL     1      46.514   3.777   7.637  0.00  0.00    +0.000 A 
ATOM      3  N   UNL     1      45.715   4.585   8.380  0.00  0.00    +0.000 NA
ATOM      4  C   UNL     1      44.887   3.971   9.257  0.00  0.00    +0.000 A 
ATOM      5  C   UNL     1      44.852   2.584   9.370  0.00  0.00    +0.000 A 
ATOM      6  N   UNL     1      45.655   1.760   8.636  0.00  0.00    +0.000 NA
ENDROOT
BRANCH   1   8
ATOM      7  N   UNL     1      48.525   2.188   6.475  0.00  0.00    +0.000 N 
ATOM      8  C   UNL     1      47.381   1.575   6.906  0.00  0.00    +0.000 C 
ATOM      9  O   UNL     1      47.115   0.418   6.605  0.00  0.00    +0.000 OA
ATOM     10  H   UNL     1      49.184   1.670   5.909  0.00  0.00    +0.000 HD
ATOM     11  H   UNL     1      48.726   3.146   6.752  0.00  0.00    +0.000 HD
ENDBRANCH   1   8
BRANCH   4  12
ATOM     12  O   UNL     1      44.117   4.854   9.947  0.00  0.00    +0.000 OA
BRANCH  12  13
ATOM     13  C   UNL     1      44.013   4.741  11.384  0.00  0.00    +0.000 C 
ATOM     14  C   UNL     1      43.027   3.632  11.758  0.00  0.00    +0.000 C 
ATOM     15  C   UNL     1      42.698   5.049  12.060  0.00  0.00    +0.000 C 
ATOM     16  F   UNL     1      42.683   5.397  13.400  0.00  0.00    +0.000 F 
BRANCH  13  17
ATOM     17  C   UNL     1      45.330   4.786  12.143  0.00  0.00    +0.000 A 
ATOM     18  C   UNL     1      46.131   5.921  12.069  0.00  0.00    +0.000 A 
ATOM     19  C   UNL     1      47.296   5.922  12.801  0.00  0.00    +0.000 A 
ATOM     20  N   UNL     1      47.693   4.890  13.557  0.00  0.00    +0.000 NA
ATOM     21  C   UNL     1      46.862   3.837  13.574  0.00  0.00    +0.000 A 
ATOM     22  N   UNL     1      45.688   3.742  12.923  0.00  0.00    +0.000 NA
ENDBRANCH  13  17
ENDBRANCH  12  13
ENDBRANCH   4  12
TORSDOF 4
ENDMDL
MODEL 3
REMARK VINA RESULT:    -6.617      2.753      6.206
REMARK INTER + INTRA:          -8.375
REMARK INTER:                  -8.143
REMARK INTRA:                  -0.233
REMARK UNBOUND:                -0.211
REMARK  Name = 
REMARK  4 active torsions:
REMARK  status: ('A' for Active; 'I' for Inactive)
REMARK    1  A    between atoms: C_2  and  C_4
REMARK    2  A    between atoms: C_7  and  O_8
REMARK    3  A    between atoms: O_8  and  C_9
REMARK    4  A    between atoms: C_9  and  C_10
REMARK                            x       y       z     vdW  Elec       q    Type
REMARK                         _______ _______ _______ _____ _____    ______ ____
ROOT
ATOM      1  C   UNL     1      47.569   3.812  15.418  0.00  0.00    +0.000 A 
ATOM      2  C   UNL     1      47.525   5.190  15.323  0.00  0.00    +0.000 A 
ATOM      3  N   UNL     1      47.077   5.821  14.208  0.00  0.00    +0.000 NA
ATOM      4  C   UNL     1      46.669   5.028  13.189  0.00  0.00    +0.000 A 
ATOM      5  C   UNL     1      46.728   3.641  13.284  0.00  0.00    +0.000 A 
ATOM      6  N   UNL     1      47.169   2.993  14.400  0.00  0.00    +0.000 NA
ENDROOT
BRANCH   1   8
ATOM      7  N   UNL     1      47.148   2.898  17.619  0.00  0.00    +0.000 N 
ATOM      8  C   UNL     1      48.085   3.184  16.665  0.00  0.00    +0.000 C 
ATOM      9  O   UNL     1      49.273   2.937  16.831  0.00  0.00    +0.000 OA
ATOM     10  H   UNL     1      47.433   2.450  18.479  0.00  0.00    +0.000 HD
ATOM     11  H   UNL     1      46.166   3.103  17.447  0.00  0.00    +0.000 HD
ENDBRANCH   1   8
BRANCH   4  12
ATOM     12  O   UNL     1      46.249   5.745  12.113  0.00  0.00    +0.000 OA
BRANCH  12  13
ATOM     13  C   UNL     1      44.968   5.449  11.513  0.00  0.00    +0.000 C 
ATOM     14  C   UNL     1      44.133   6.725  11.390  0.00  0.00    +0.000 C 
ATOM     15  C   UNL     1      43.706   5.648  12.319  0.00  0.00    +0.000 C 
ATOM     16  F   UNL     1      42.556   4.964  11.968  0.00  0.00    +0.000 F 
BRANCH  13  17
ATOM     17  C   UNL     1      45.006   4.523  10.307  0.00  0.00    +0.000 A 
ATOM     18  C   UNL     1      45.649   4.932   9.144  0.00  0.00    +0.000 A 
ATOM     19  C   UNL     1      45.685   4.043   8.094  0.00  0.00    +0.000 A 
ATOM     20  N   UNL     1      45.123   2.828   8.138  0.00  0.00    +0.000 NA
ATOM     21  C   UNL     1      44.525   2.512   9.297  0.00  0.00    +0.000 A 
ATOM     22  N   UNL     1      44.459   3.290  10.393  0.00  0.00    +0.000 NA
ENDBRANCH  13  17
ENDBRANCH  12  13
ENDBRANCH   4  12
TORSDOF 4
ENDMDL
MODEL 4
REMARK VINA RESULT:    -6.190      3.880      7.402
REMARK INTER + INTRA:          -7.848
REMARK INTER:                  -7.599
REMARK INTRA:                  -0.249
REMARK UNBOUND:                -0.211
REMARK  Name = 
REMARK  4 active torsions:
REMARK  status: ('A' for Active; 'I' for Inactive)
REMARK    1  A    between atoms: C_2  and  C_4
REMARK    2  A    between atoms: C_7  and  O_8
REMARK    3  A    between atoms: O_8  and  C_9
REMARK    4  A    between atoms: C_9  and  C_10
REMARK                            x       y       z     vdW  Elec       q    Type
REMARK                         _______ _______ _______ _____ _____    ______ ____
ROOT
ATOM      1  C   UNL     1      47.987   4.641  17.215  0.00  0.00    +0.000 A 
ATOM      2  C   UNL     1      48.705   5.634  16.576  0.00  0.00    +0.000 A 
ATOM      3  N   UNL     1      48.561   5.888  15.251  0.00  0.00    +0.000 NA
ATOM      4  C   UNL     1      47.671   5.118  14.583  0.00  0.00    +0.000 A 
ATOM      5  C   UNL     1      46.959   4.110  15.227  0.00  0.00    +0.000 A 
ATOM      6  N   UNL     1      47.087   3.848  16.560  0.00  0.00    +0.000 NA
ENDROOT
BRANCH   1   8
ATOM      7  N   UNL     1      48.339   3.098  19.046  0.00  0.00    +0.000 N 
ATOM      8  C   UNL     1      48.204   4.406  18.669  0.00  0.00    +0.000 C 
ATOM      9  O   UNL     1      48.260   5.321  19.480  0.00  0.00    +0.000 OA
ATOM     10  H   UNL     1      48.512   2.875  20.017  0.00  0.00    +0.000 HD
ATOM     11  H   UNL     1      48.301   2.359  18.348  0.00  0.00    +0.000 HD
ENDBRANCH   1   8
BRANCH   4  12
ATOM     12  O   UNL     1      47.601   5.435  13.262  0.00  0.00    +0.000 OA
BRANCH  12  13
ATOM     13  C   UNL     1      46.537   6.290  12.787  0.00  0.00    +0.000 C 
ATOM     14  C   UNL     1      47.089   7.323  11.802  0.00  0.00    +0.000 C 
ATOM     15  C   UNL     1      46.563   7.763  13.120  0.00  0.00    +0.000 C 
ATOM     16  F   UNL     1      45.386   8.491  13.093  0.00  0.00    +0.000 F 
BRANCH  13  17
ATOM     17  C   UNL     1      45.248   5.581  12.403  0.00  0.00    +0.000 A 
ATOM     18  C   UNL     1      45.190   4.844  11.225  0.00  0.00    +0.000 A 
ATOM     19  C   UNL     1      44.011   4.195  10.942  0.00  0.00    +0.000 A 
ATOM     20  N   UNL     1      42.929   4.253  11.730  0.00  0.00    +0.000 NA
ATOM     21  C   UNL     1      43.071   4.984  12.847  0.00  0.00    +0.000 A 
ATOM     22  N   UNL     1      44.184   5.632  13.235  0.00  0.00    +0.000 NA
ENDBRANCH  13  17
ENDBRANCH  12  13
ENDBRANCH   4  12
TORSDOF 4
ENDMDL
MODEL 5
REMARK VINA RESULT:    -6.163      2.746      6.180
REMARK INTER + INTRA:          -7.815
REMARK INTER:                  -7.928
REMARK INTRA:                   0.113
REMARK UNBOUND:                -0.211
REMARK  Name = 
REMARK  4 active torsions:
REMARK  status: ('A' for Active; 'I' for Inactive)
REMARK    1  A    between atoms: C_2  and  C_4
REMARK    2  A    between atoms: C_7  and  O_8
REMARK    3  A    between atoms: O_8  and  C_9
REMARK    4  A    between atoms: C_9  and  C_10
REMARK                            x       y       z     vdW  Elec       q    Type
REMARK                         _______ _______ _______ _____ _____    ______ ____
ROOT
ATOM      1  C   UNL     1      47.934   6.576  14.337  0.00  0.00    +0.000 A 
ATOM      2  C   UNL     1      47.435   7.681  13.674  0.00  0.00    +0.000 A 
ATOM      3  N   UNL     1      46.554   7.568  12.648  0.00  0.00    +0.000 NA
ATOM      4  C   UNL     1      46.183   6.312  12.307  0.00  0.00    +0.000 A 
ATOM      5  C   UNL     1      46.699   5.201  12.968  0.00  0.00    +0.000 A 
ATOM      6  N   UNL     1      47.580   5.299  14.006  0.00  0.00    +0.000 NA
ENDROOT
BRANCH   1   8
ATOM      7  N   UNL     1      48.372   7.110  16.656  0.00  0.00    +0.000 N 
ATOM      8  C   UNL     1      48.909   6.771  15.445  0.00  0.00    +0.000 C 
ATOM      9  O   UNL     1      50.116   6.636  15.287  0.00  0.00    +0.000 OA
ATOM     10  H   UNL     1      48.982   7.233  17.454  0.00  0.00    +0.000 HD
ATOM     11  H   UNL     1      47.365   7.202  16.761  0.00  0.00    +0.000 HD
ENDBRANCH   1   8
BRANCH   4  12
ATOM     12  O   UNL     1      45.310   6.294  11.265  0.00  0.00    +0.000 OA
BRANCH  12  13
ATOM     13  C   UNL     1      44.456   5.145  11.067  0.00  0.00    +0.000 C 
ATOM     14  C   UNL     1      42.986   5.571  11.070  0.00  0.00    +0.000 C 
ATOM     15  C   UNL     1      43.514   4.721  12.168  0.00  0.00    +0.000 C 
ATOM     16  F   UNL     1      43.048   3.418  12.205  0.00  0.00    +0.000 F 
BRANCH  13  17
ATOM     17  C   UNL     1      44.898   4.180   9.979  0.00  0.00    +0.000 A 
ATOM     18  C   UNL     1      45.516   4.668   8.832  0.00  0.00    +0.000 A 
ATOM     19  C   UNL     1      45.927   3.749   7.895  0.00  0.00    +0.000 A 
ATOM     20  N   UNL     1      45.748   2.428   8.029  0.00  0.00    +0.000 NA
ATOM     21  C   UNL     1      45.147   2.042   9.165  0.00  0.00    +0.000 A 
ATOM     22  N   UNL     1      44.734   2.850  10.158  0.00  0.00    +0.000 NA
ENDBRANCH  13  17
ENDBRANCH  12  13
ENDBRANCH   4  12
TORSDOF 4
ENDMDL
MODEL 6
REMARK VINA RESULT:    -5.814      3.467      5.295
REMARK INTER + INTRA:          -7.385
REMARK INTER:                  -7.159
REMARK INTRA:                  -0.226
REMARK UNBOUND:                -0.211
REMARK  Name = 
REMARK  4 active torsions:
REMARK  status: ('A' for Active; 'I' for Inactive)
REMARK    1  A    between atoms: C_2  and  C_4
REMARK    2  A    between atoms: C_7  and  O_8
REMARK    3  A    between atoms: O_8  and  C_9
REMARK    4  A    between atoms: C_9  and  C_10
REMARK                            x       y       z     vdW  Elec       q    Type
REMARK                         _______ _______ _______ _____ _____    ______ ____
ROOT
ATOM      1  C   UNL     1      44.599   4.040  11.668  0.00  0.00    +0.000 A 
ATOM      2  C   UNL     1      44.648   5.181  10.890  0.00  0.00    +0.000 A 
ATOM      3  N   UNL     1      45.219   6.330  11.331  0.00  0.00    +0.000 NA
ATOM      4  C   UNL     1      45.745   6.301  12.578  0.00  0.00    +0.000 A 
ATOM      5  C   UNL     1      45.681   5.154  13.364  0.00  0.00    +0.000 A 
ATOM      6  N   UNL     1      45.117   3.990  12.931  0.00  0.00    +0.000 NA
ENDROOT
BRANCH   1   8
ATOM      7  N   UNL     1      44.534   2.268  10.021  0.00  0.00    +0.000 N 
ATOM      8  C   UNL     1      43.945   2.817  11.126  0.00  0.00    +0.000 C 
ATOM      9  O   UNL     1      42.943   2.329  11.635  0.00  0.00    +0.000 OA
ATOM     10  H   UNL     1      44.149   1.422   9.621  0.00  0.00    +0.000 HD
ATOM     11  H   UNL     1      45.373   2.687   9.628  0.00  0.00    +0.000 HD
ENDBRANCH   1   8
BRANCH   4  12
ATOM     12  O   UNL     1      46.284   7.496  12.941  0.00  0.00    +0.000 OA
BRANCH  12  13
ATOM     13  C   UNL     1      47.720   7.638  13.017  0.00  0.00    +0.000 C 
ATOM     14  C   UNL     1      48.189   8.768  12.098  0.00  0.00    +0.000 C 
ATOM     15  C   UNL     1      48.560   7.363  11.793  0.00  0.00    +0.000 C 
ATOM     16  F   UNL     1      49.898   7.041  11.940  0.00  0.00    +0.000 F 
BRANCH  13  17
ATOM     17  C   UNL     1      48.310   7.590  14.418  0.00  0.00    +0.000 A 
ATOM     18  C   UNL     1      48.261   8.720  15.227  0.00  0.00    +0.000 A 
ATOM     19  C   UNL     1      48.778   8.612  16.497  0.00  0.00    +0.000 A 
ATOM     20  N   UNL     1      49.332   7.490  16.975  0.00  0.00    +0.000 NA
ATOM     21  C   UNL     1      49.337   6.447  16.130  0.00  0.00    +0.000 A 
ATOM     22  N   UNL     1      48.833   6.434  14.883  0.00  0.00    +0.000 NA
ENDBRANCH  13  17
ENDBRANCH  12  13
ENDBRANCH   4  12
TORSDOF 4
ENDMDL
MODEL 7
REMARK VINA RESULT:    -5.684      4.643      6.813
REMARK INTER + INTRA:          -7.224
REMARK INTER:                  -7.167
REMARK INTRA:                  -0.057
REMARK UNBOUND:                -0.211
REMARK  Name = 
REMARK  4 active torsions:
REMARK  status: ('A' for Active; 'I' for Inactive)
REMARK    1  A    between atoms: C_2  and  C_4
REMARK    2  A    between atoms: C_7  and  O_8
REMARK    3  A    between atoms: O_8  and  C_9
REMARK    4  A    between atoms: C_9  and  C_10
REMARK                            x       y       z     vdW  Elec       q    Type
REMARK                         _______ _______ _______ _____ _____    ______ ____
ROOT
ATOM      1  C   UNL     1      46.036   5.734  12.767  0.00  0.00    +0.000 A 
ATOM      2  C   UNL     1      45.631   4.420  12.907  0.00  0.00    +0.000 A 
ATOM      3  N   UNL     1      46.224   3.573  13.786  0.00  0.00    +0.000 NA
ATOM      4  C   UNL     1      47.237   4.084  14.525  0.00  0.00    +0.000 A 
ATOM      5  C   UNL     1      47.650   5.404  14.371  0.00  0.00    +0.000 A 
ATOM      6  N   UNL     1      47.059   6.269  13.498  0.00  0.00    +0.000 NA
ENDROOT
BRANCH   1   8
ATOM      7  N   UNL     1      44.549   7.583  12.293  0.00  0.00    +0.000 N 
ATOM      8  C   UNL     1      45.350   6.604  11.773  0.00  0.00    +0.000 C 
ATOM      9  O   UNL     1      45.492   6.459  10.566  0.00  0.00    +0.000 OA
ATOM     10  H   UNL     1      44.075   8.222  11.669  0.00  0.00    +0.000 HD
ATOM     11  H   UNL     1      44.461   7.689  13.301  0.00  0.00    +0.000 HD
ENDBRANCH   1   8
BRANCH   4  12
ATOM     12  O   UNL     1      47.778   3.164  15.368  0.00  0.00    +0.000 OA
BRANCH  12  13
ATOM     13  C   UNL     1      48.082   3.534  16.731  0.00  0.00    +0.000 C 
ATOM     14  C   UNL     1      47.147   2.807  17.699  0.00  0.00    +0.000 C 
ATOM     15  C   UNL     1      47.053   4.281  17.546  0.00  0.00    +0.000 C 
ATOM     16  F   UNL     1      47.458   5.033  18.635  0.00  0.00    +0.000 F 
BRANCH  13  17
ATOM     17  C   UNL     1      49.560   3.570  17.086  0.00  0.00    +0.000 A 
ATOM     18  C   UNL     1      50.246   2.381  17.309  0.00  0.00    +0.000 A 
ATOM     19  C   UNL     1      51.589   2.468  17.593  0.00  0.00    +0.000 A 
ATOM     20  N   UNL     1      52.251   3.629  17.679  0.00  0.00    +0.000 NA
ATOM     21  C   UNL     1      51.516   4.728  17.448  0.00  0.00    +0.000 A 
ATOM     22  N   UNL     1      50.208   4.756  17.133  0.00  0.00    +0.000 NA
ENDBRANCH  13  17
ENDBRANCH  12  13
ENDBRANCH   4  12
TORSDOF 4
ENDMDL
