MODEL 1
REMARK VINA RESULT:    -8.591      0.000      0.000
REMARK INTER + INTRA:         -13.593
REMARK INTER:                 -12.357
REMARK INTRA:                  -1.236
REMARK UNBOUND:                -1.236
REMARK  Name = 
REMARK  8 active torsions:
REMARK  status: ('A' for Active; 'I' for Inactive)
REMARK    1  A    between atoms: C_2  and  C_21
REMARK    2  A    between atoms: N_3  and  C_4
REMARK    3  A    between atoms: C_4  and  C_5
REMARK    4  A    between atoms: C_8  and  C_9
REMARK    5  A    between atoms: C_9  and  O_10
REMARK    6  A    between atoms: C_9  and  C_11
REMARK    7  A    between atoms: C_11  and  O_12
REMARK    8  A    between atoms: O_12  and  C_13
REMARK                            x       y       z     vdW  Elec       q    Type
REMARK                         _______ _______ _______ _____ _____    ______ ____
ROOT
ATOM      1  C   UNL     1      46.688   6.207  12.698  0.00  0.00    +0.000 A 
ATOM      2  C   UNL     1      46.199   6.268  11.388  0.00  0.00    +0.000 A 
ATOM      3  C   UNL     1      45.350   5.268  10.897  0.00  0.00    +0.000 A 
ATOM      4  C   UNL     1      44.961   4.190  11.704  0.00  0.00    +0.000 A 
ATOM      5  C   UNL     1      45.451   4.151  13.024  0.00  0.00    +0.000 A 
ATOM      6  C   UNL     1      46.292   5.148  13.517  0.00  0.00    +0.000 A 
ENDROOT
BRANCH   1   7
ATOM      7  C   UNL     1      47.576   7.293  13.244  0.00  0.00    +0.000 C 
BRANCH   7  10
ATOM      8  O   UNL     1      50.135   7.133  14.387  0.00  0.00    +0.000 OA
ATOM      9  C   UNL     1      49.152   7.061  15.118  0.00  0.00    +0.000 C 
ATOM     10  N   UNL     1      47.871   7.060  14.635  0.00  0.00    +0.000 N 
ATOM     11  H   UNL     1      47.102   7.202  15.279  0.00  0.00    +0.000 HD
BRANCH   9  12
ATOM     12  C   UNL     1      49.291   6.902  16.572  0.00  0.00    +0.000 A 
ATOM     13  C   UNL     1      49.732   7.971  17.341  0.00  0.00    +0.000 A 
ATOM     14  S   UNL     1      49.864   7.610  19.002  0.00  0.00    +0.000 S 
ATOM     15  C   UNL     1      49.292   6.025  18.760  0.00  0.00    +0.000 A 
ATOM     16  N   UNL     1      49.137   5.171  19.805  0.00  0.00    +0.000 NA
ATOM     17  C   UNL     1      48.652   4.016  19.486  0.00  0.00    +0.000 A 
ATOM     18  N   UNL     1      48.318   3.635  18.215  0.00  0.00    +0.000 N 
ATOM     19  C   UNL     1      48.525   4.440  17.115  0.00  0.00    +0.000 A 
ATOM     20  O   UNL     1      48.333   4.020  15.979  0.00  0.00    +0.000 OA
ATOM     21  C   UNL     1      49.026   5.767  17.426  0.00  0.00    +0.000 A 
ATOM     22  H   UNL     1      47.970   2.708  18.026  0.00  0.00    +0.000 HD
ENDBRANCH   9  12
ENDBRANCH   7  10
ENDBRANCH   1   7
BRANCH   4  23
ATOM     23  C   UNL     1      44.027   3.129  11.135  0.00  0.00    +0.000 C 
BRANCH  23  24
ATOM     24  O   UNL     1      42.676   3.521  11.388  0.00  0.00    +0.000 OA
ATOM     25  H   UNL     1      42.107   3.005  10.793  0.00  0.00    +0.000 HD
ENDBRANCH  23  24
BRANCH  23  26
ATOM     26  C   UNL     1      44.238   2.888   9.626  0.00  0.00    +0.000 C 
BRANCH  26  27
ATOM     27  O   UNL     1      45.102   1.783   9.349  0.00  0.00    +0.000 OA
BRANCH  27  28
ATOM     28  C   UNL     1      45.915   1.981   8.257  0.00  0.00    +0.000 A 
ATOM     29  C   UNL     1      46.769   1.019   7.709  0.00  0.00    +0.000 A 
ATOM     30  C   UNL     1      47.535   1.312   6.578  0.00  0.00    +0.000 A 
ATOM     31  C   UNL     1      47.451   2.569   5.988  0.00  0.00    +0.000 A 
ATOM     32  C   UNL     1      46.597   3.532   6.526  0.00  0.00    +0.000 A 
ATOM     33  C   UNL     1      45.827   3.237   7.655  0.00  0.00    +0.000 A 
ENDBRANCH  27  28
ENDBRANCH  26  27
ENDBRANCH  23  26
ENDBRANCH   4  23
TORSDOF 8
ENDMDL
MODEL 2
REMARK VINA RESULT:    -8.242      1.758      2.265
REMARK INTER + INTRA:         -13.092
REMARK INTER:                 -11.997
REMARK INTRA:                  -1.095
REMARK UNBOUND:                -1.236
REMARK  Name = 
REMARK  8 active torsions:
REMARK  status: ('A' for Active; 'I' for Inactive)
REMARK    1  A    between atoms: C_2  and  C_21
REMARK    2  A    between atoms: N_3  and  C_4
REMARK    3  A    between atoms: C_4  and  C_5
REMARK    4  A    between atoms: C_8  and  C_9
REMARK    5  A    between atoms: C_9  and  O_10
REMARK    6  A    between atoms: C_9  and  C_11
REMARK    7  A    between atoms: C_11  and  O_12
REMARK    8  A    between atoms: O_12  and  C_13
REMARK                            x       y       z     vdW  Elec       q    Type
REMARK                         _______ _______ _______ _____ _____    ______ ____
ROOT
ATOM      1  C   UNL     1      47.054   6.289  13.053  0.00  0.00    +0.000 A 
ATOM      2  C   UNL     1      46.781   6.613  11.719  0.00  0.00    +0.000 A 
ATOM      3  C   UNL     1      45.778   5.937  11.013  0.00  0.00    +0.000 A 
ATOM      4  C   UNL     1      45.018   4.930  11.624  0.00  0.00    +0.000 A 
ATOM      5  C   UNL     1      45.297   4.627  12.970  0.00  0.00    +0.000 A 
ATOM      6  C   UNL     1      46.291   5.302  13.677  0.00  0.00    +0.000 A 
ENDROOT
BRANCH   1   7
ATOM      7  C   UNL     1      48.110   7.032  13.829  0.00  0.00    +0.000 C 
BRANCH   7  10
ATOM      8  O   UNL     1      50.278   6.544  15.544  0.00  0.00    +0.000 OA
ATOM      9  C   UNL     1      49.142   6.556  16.010  0.00  0.00    +0.000 C 
ATOM     10  N   UNL     1      48.027   6.718  15.232  0.00  0.00    +0.000 N 
ATOM     11  H   UNL     1      47.141   6.922  15.679  0.00  0.00    +0.000 HD
BRANCH   9  12
ATOM     12  C   UNL     1      48.901   6.331  17.442  0.00  0.00    +0.000 A 
ATOM     13  C   UNL     1      49.231   5.107  18.010  0.00  0.00    +0.000 A 
ATOM     14  S   UNL     1      48.861   5.002  19.670  0.00  0.00    +0.000 S 
ATOM     15  C   UNL     1      48.289   6.606  19.701  0.00  0.00    +0.000 A 
ATOM     16  N   UNL     1      47.838   7.165  20.854  0.00  0.00    +0.000 NA
ATOM     17  C   UNL     1      47.476   8.401  20.745  0.00  0.00    +0.000 A 
ATOM     18  N   UNL     1      47.517   9.125  19.585  0.00  0.00    +0.000 N 
ATOM     19  C   UNL     1      47.899   8.581  18.378  0.00  0.00    +0.000 A 
ATOM     20  O   UNL     1      47.802   9.222  17.336  0.00  0.00    +0.000 OA
ATOM     21  C   UNL     1      48.358   7.205  18.456  0.00  0.00    +0.000 A 
ATOM     22  H   UNL     1      47.194  10.080  19.559  0.00  0.00    +0.000 HD
ENDBRANCH   9  12
ENDBRANCH   7  10
ENDBRANCH   1   7
BRANCH   4  23
ATOM     23  C   UNL     1      43.928   4.226  10.823  0.00  0.00    +0.000 C 
BRANCH  23  24
ATOM     24  O   UNL     1      43.451   5.118   9.813  0.00  0.00    +0.000 OA
ATOM     25  H   UNL     1      43.150   5.927  10.258  0.00  0.00    +0.000 HD
ENDBRANCH  23  24
BRANCH  23  26
ATOM     26  C   UNL     1      44.408   2.906  10.186  0.00  0.00    +0.000 C 
BRANCH  26  27
ATOM     27  O   UNL     1      44.276   2.890   8.762  0.00  0.00    +0.000 OA
BRANCH  27  28
ATOM     28  C   UNL     1      45.431   2.527   8.108  0.00  0.00    +0.000 A 
ATOM     29  C   UNL     1      46.040   1.271   8.197  0.00  0.00    +0.000 A 
ATOM     30  C   UNL     1      47.200   0.993   7.469  0.00  0.00    +0.000 A 
ATOM     31  C   UNL     1      47.756   1.968   6.647  0.00  0.00    +0.000 A 
ATOM     32  C   UNL     1      47.149   3.221   6.549  0.00  0.00    +0.000 A 
ATOM     33  C   UNL     1      45.987   3.498   7.275  0.00  0.00    +0.000 A 
ENDBRANCH  27  28
ENDBRANCH  26  27
ENDBRANCH  23  26
ENDBRANCH   4  23
TORSDOF 8
ENDMDL
MODEL 3
REMARK VINA RESULT:    -7.795      1.373      2.095
REMARK INTER + INTRA:         -12.449
REMARK INTER:                 -11.080
REMARK INTRA:                  -1.368
REMARK UNBOUND:                -1.236
REMARK  Name = 
REMARK  8 active torsions:
REMARK  status: ('A' for Active; 'I' for Inactive)
REMARK    1  A    between atoms: C_2  and  C_21
REMARK    2  A    between atoms: N_3  and  C_4
REMARK    3  A    between atoms: C_4  and  C_5
REMARK    4  A    between atoms: C_8  and  C_9
REMARK    5  A    between atoms: C_9  and  O_10
REMARK    6  A    between atoms: C_9  and  C_11
REMARK    7  A    between atoms: C_11  and  O_12
REMARK    8  A    between atoms: O_12  and  C_13
REMARK                            x       y       z     vdW  Elec       q    Type
REMARK                         _______ _______ _______ _____ _____    ______ ____
ROOT
ATOM      1  C   UNL     1      47.531   6.454  12.859  0.00  0.00    +0.000 A 
ATOM      2  C   UNL     1      47.284   5.157  13.322  0.00  0.00    +0.000 A 
ATOM      3  C   UNL     1      45.997   4.610  13.259  0.00  0.00    +0.000 A 
ATOM      4  C   UNL     1      44.927   5.339  12.722  0.00  0.00    +0.000 A 
ATOM      5  C   UNL     1      45.195   6.638  12.247  0.00  0.00    +0.000 A 
ATOM      6  C   UNL     1      46.477   7.182  12.305  0.00  0.00    +0.000 A 
ENDROOT
BRANCH   1   7
ATOM      7  C   UNL     1      48.918   7.038  12.894  0.00  0.00    +0.000 C 
BRANCH   7  10
ATOM      8  O   UNL     1      48.185   8.808  14.947  0.00  0.00    +0.000 OA
ATOM      9  C   UNL     1      48.975   7.902  15.196  0.00  0.00    +0.000 C 
ATOM     10  N   UNL     1      49.436   7.040  14.238  0.00  0.00    +0.000 N 
ATOM     11  H   UNL     1      49.920   6.198  14.526  0.00  0.00    +0.000 HD
BRANCH   9  12
ATOM     12  C   UNL     1      49.532   7.724  16.544  0.00  0.00    +0.000 A 
ATOM     13  C   UNL     1      50.141   8.797  17.184  0.00  0.00    +0.000 A 
ATOM     14  S   UNL     1      50.757   8.412  18.725  0.00  0.00    +0.000 S 
ATOM     15  C   UNL     1      50.191   6.811  18.615  0.00  0.00    +0.000 A 
ATOM     16  N   UNL     1      50.371   5.934  19.637  0.00  0.00    +0.000 NA
ATOM     17  C   UNL     1      49.853   4.766  19.439  0.00  0.00    +0.000 A 
ATOM     18  N   UNL     1      49.179   4.395  18.307  0.00  0.00    +0.000 N 
ATOM     19  C   UNL     1      49.034   5.226  17.217  0.00  0.00    +0.000 A 
ATOM     20  O   UNL     1      48.537   4.817  16.172  0.00  0.00    +0.000 OA
ATOM     21  C   UNL     1      49.560   6.566  17.407  0.00  0.00    +0.000 A 
ATOM     22  H   UNL     1      48.822   3.458  18.201  0.00  0.00    +0.000 HD
ENDBRANCH   9  12
ENDBRANCH   7  10
ENDBRANCH   1   7
BRANCH   4  23
ATOM     23  C   UNL     1      43.544   4.703  12.662  0.00  0.00    +0.000 C 
BRANCH  23  24
ATOM     24  O   UNL     1      42.613   5.560  13.329  0.00  0.00    +0.000 OA
ATOM     25  H   UNL     1      42.198   5.041  14.038  0.00  0.00    +0.000 HD
ENDBRANCH  23  24
BRANCH  23  26
ATOM     26  C   UNL     1      43.072   4.425  11.220  0.00  0.00    +0.000 C 
BRANCH  26  27
ATOM     27  O   UNL     1      43.484   3.146  10.731  0.00  0.00    +0.000 OA
BRANCH  27  28
ATOM     28  C   UNL     1      44.401   3.217   9.709  0.00  0.00    +0.000 A 
ATOM     29  C   UNL     1      44.883   4.404   9.148  0.00  0.00    +0.000 A 
ATOM     30  C   UNL     1      45.838   4.369   8.129  0.00  0.00    +0.000 A 
ATOM     31  C   UNL     1      46.318   3.148   7.665  0.00  0.00    +0.000 A 
ATOM     32  C   UNL     1      45.845   1.961   8.225  0.00  0.00    +0.000 A 
ATOM     33  C   UNL     1      44.893   1.996   9.248  0.00  0.00    +0.000 A 
ENDBRANCH  27  28
ENDBRANCH  26  27
ENDBRANCH  23  26
ENDBRANCH   4  23
TORSDOF 8
ENDMDL
MODEL 4
REMARK VINA RESULT:    -7.634      2.680      3.300
REMARK INTER + INTRA:         -12.217
REMARK INTER:                 -11.172
REMARK INTRA:                  -1.045
REMARK UNBOUND:                -1.236
REMARK  Name = 
REMARK  8 active torsions:
REMARK  status: ('A' for Active; 'I' for Inactive)
REMARK    1  A    between atoms: C_2  and  C_21
REMARK    2  A    between atoms: N_3  and  C_4
REMARK    3  A    between atoms: C_4  and  C_5
REMARK    4  A    between atoms: C_8  and  C_9
REMARK    5  A    between atoms: C_9  and  O_10
REMARK    6  A    between atoms: C_9  and  C_11
REMARK    7  A    between atoms: C_11  and  O_12
REMARK    8  A    between atoms: O_12  and  C_13
REMARK                            x       y       z     vdW  Elec       q    Type
REMARK                         _______ _______ _______ _____ _____    ______ ____
ROOT
ATOM      1  C   UNL     1      47.953   5.913  15.116  0.00  0.00    +0.000 A 
ATOM      2  C   UNL     1      47.391   4.669  15.426  0.00  0.00    +0.000 A 
ATOM      3  C   UNL     1      46.659   3.960  14.466  0.00  0.00    +0.000 A 
ATOM      4  C   UNL     1      46.479   4.469  13.172  0.00  0.00    +0.000 A 
ATOM      5  C   UNL     1      47.064   5.715  12.874  0.00  0.00    +0.000 A 
ATOM      6  C   UNL     1      47.797   6.421  13.826  0.00  0.00    +0.000 A 
ENDROOT
BRANCH   1   7
ATOM      7  C   UNL     1      48.768   6.669  16.133  0.00  0.00    +0.000 C 
BRANCH   7  10
ATOM      8  O   UNL     1      49.446   5.973  18.767  0.00  0.00    +0.000 OA
ATOM      9  C   UNL     1      50.137   5.553  17.844  0.00  0.00    +0.000 C 
ATOM     10  N   UNL     1      49.917   5.901  16.538  0.00  0.00    +0.000 N 
ATOM     11  H   UNL     1      50.379   5.376  15.805  0.00  0.00    +0.000 HD
BRANCH   9  12
ATOM     12  C   UNL     1      51.301   4.690  18.093  0.00  0.00    +0.000 A 
ATOM     13  C   UNL     1      52.426   5.215  18.714  0.00  0.00    +0.000 A 
ATOM     14  S   UNL     1      53.693   4.090  18.900  0.00  0.00    +0.000 S 
ATOM     15  C   UNL     1      52.765   2.846  18.199  0.00  0.00    +0.000 A 
ATOM     16  N   UNL     1      53.262   1.587  18.078  0.00  0.00    +0.000 NA
ATOM     17  C   UNL     1      52.437   0.732  17.570  0.00  0.00    +0.000 A 
ATOM     18  N   UNL     1      51.163   1.025  17.165  0.00  0.00    +0.000 N 
ATOM     19  C   UNL     1      50.641   2.299  17.202  0.00  0.00    +0.000 A 
ATOM     20  O   UNL     1      49.543   2.548  16.714  0.00  0.00    +0.000 OA
ATOM     21  C   UNL     1      51.514   3.290  17.807  0.00  0.00    +0.000 A 
ATOM     22  H   UNL     1      50.576   0.317  16.749  0.00  0.00    +0.000 HD
ENDBRANCH   9  12
ENDBRANCH   7  10
ENDBRANCH   1   7
BRANCH   4  23
ATOM     23  C   UNL     1      45.685   3.660  12.154  0.00  0.00    +0.000 C 
BRANCH  23  24
ATOM     24  O   UNL     1      44.782   2.799  12.852  0.00  0.00    +0.000 OA
ATOM     25  H   UNL     1      43.893   3.180  12.766  0.00  0.00    +0.000 HD
ENDBRANCH  23  24
BRANCH  23  26
ATOM     26  C   UNL     1      44.913   4.544  11.154  0.00  0.00    +0.000 C 
BRANCH  26  27
ATOM     27  O   UNL     1      44.253   3.792  10.132  0.00  0.00    +0.000 OA
BRANCH  27  28
ATOM     28  C   UNL     1      45.111   3.285   9.184  0.00  0.00    +0.000 A 
ATOM     29  C   UNL     1      45.389   1.926   9.001  0.00  0.00    +0.000 A 
ATOM     30  C   UNL     1      46.257   1.511   7.987  0.00  0.00    +0.000 A 
ATOM     31  C   UNL     1      46.851   2.450   7.151  0.00  0.00    +0.000 A 
ATOM     32  C   UNL     1      46.573   3.807   7.325  0.00  0.00    +0.000 A 
ATOM     33  C   UNL     1      45.702   4.222   8.336  0.00  0.00    +0.000 A 
ENDBRANCH  27  28
ENDBRANCH  26  27
ENDBRANCH  23  26
ENDBRANCH   4  23
TORSDOF 8
ENDMDL
MODEL 5
REMARK VINA RESULT:    -7.456      2.440      3.182
REMARK INTER + INTRA:         -11.960
REMARK INTER:                 -10.886
REMARK INTRA:                  -1.075
REMARK UNBOUND:                -1.236
REMARK  Name = 
REMARK  8 active torsions:
REMARK  status: ('A' for Active; 'I' for Inactive)
REMARK    1  A    between atoms: C_2  and  C_21
REMARK    2  A    between atoms: N_3  and  C_4
REMARK    3  A    between atoms: C_4  and  C_5
REMARK    4  A    between atoms: C_8  and  C_9
REMARK    5  A    between atoms: C_9  and  O_10
REMARK    6  A    between atoms: C_9  and  C_11
REMARK    7  A    between atoms: C_11  and  O_12
REMARK    8  A    between atoms: O_12  and  C_13
REMARK                            x       y       z     vdW  Elec       q    Type
REMARK                         _______ _______ _______ _____ _____    ______ ____
ROOT
ATOM      1  C   UNL     1      46.142   7.220  12.783  0.00  0.00    +0.000 A 
ATOM      2  C   UNL     1      46.420   6.079  13.544  0.00  0.00    +0.000 A 
ATOM      3  C   UNL     1      46.019   4.813  13.102  0.00  0.00    +0.000 A 
ATOM      4  C   UNL     1      45.339   4.653  11.885  0.00  0.00    +0.000 A 
ATOM      5  C   UNL     1      45.080   5.810  11.126  0.00  0.00    +0.000 A 
ATOM      6  C   UNL     1      45.483   7.072  11.562  0.00  0.00    +0.000 A 
ENDROOT
BRANCH   1   7
ATOM      7  C   UNL     1      46.597   8.582  13.236  0.00  0.00    +0.000 C 
BRANCH   7  10
ATOM      8  O   UNL     1      48.835   8.601  11.541  0.00  0.00    +0.000 OA
ATOM      9  C   UNL     1      49.008   8.624  12.756  0.00  0.00    +0.000 C 
ATOM     10  N   UNL     1      47.976   8.547  13.651  0.00  0.00    +0.000 N 
ATOM     11  H   UNL     1      48.150   8.772  14.624  0.00  0.00    +0.000 HD
BRANCH   9  12
ATOM     12  C   UNL     1      50.359   8.670  13.334  0.00  0.00    +0.000 A 
ATOM     13  C   UNL     1      51.319   9.502  12.772  0.00  0.00    +0.000 A 
ATOM     14  S   UNL     1      52.836   9.414  13.544  0.00  0.00    +0.000 S 
ATOM     15  C   UNL     1      52.252   8.297  14.688  0.00  0.00    +0.000 A 
ATOM     16  N   UNL     1      53.056   7.822  15.675  0.00  0.00    +0.000 NA
ATOM     17  C   UNL     1      52.473   7.016  16.501  0.00  0.00    +0.000 A 
ATOM     18  N   UNL     1      51.161   6.636  16.421  0.00  0.00    +0.000 N 
ATOM     19  C   UNL     1      50.328   7.033  15.399  0.00  0.00    +0.000 A 
ATOM     20  O   UNL     1      49.196   6.572  15.289  0.00  0.00    +0.000 OA
ATOM     21  C   UNL     1      50.923   7.977  14.469  0.00  0.00    +0.000 A 
ATOM     22  H   UNL     1      50.771   5.980  17.082  0.00  0.00    +0.000 HD
ENDBRANCH   9  12
ENDBRANCH   7  10
ENDBRANCH   1   7
BRANCH   4  23
ATOM     23  C   UNL     1      44.930   3.256  11.435  0.00  0.00    +0.000 C 
BRANCH  23  24
ATOM     24  O   UNL     1      44.174   2.639  12.480  0.00  0.00    +0.000 OA
ATOM     25  H   UNL     1      43.388   2.239  12.072  0.00  0.00    +0.000 HD
ENDBRANCH  23  24
BRANCH  23  26
ATOM     26  C   UNL     1      44.119   3.261  10.122  0.00  0.00    +0.000 C 
BRANCH  26  27
ATOM     27  O   UNL     1      44.320   2.085   9.335  0.00  0.00    +0.000 OA
BRANCH  27  28
ATOM     28  C   UNL     1      45.383   2.180   8.467  0.00  0.00    +0.000 A 
ATOM     29  C   UNL     1      46.225   1.120   8.114  0.00  0.00    +0.000 A 
ATOM     30  C   UNL     1      47.264   1.315   7.200  0.00  0.00    +0.000 A 
ATOM     31  C   UNL     1      47.466   2.569   6.632  0.00  0.00    +0.000 A 
ATOM     32  C   UNL     1      46.625   3.628   6.976  0.00  0.00    +0.000 A 
ATOM     33  C   UNL     1      45.584   3.433   7.887  0.00  0.00    +0.000 A 
ENDBRANCH  27  28
ENDBRANCH  26  27
ENDBRANCH  23  26
ENDBRANCH   4  23
TORSDOF 8
ENDMDL
MODEL 6
REMARK VINA RESULT:    -7.419      1.934      2.440
REMARK INTER + INTRA:         -11.907
REMARK INTER:                 -11.278
REMARK INTRA:                  -0.630
REMARK UNBOUND:                -1.236
REMARK  Name = 
REMARK  8 active torsions:
REMARK  status: ('A' for Active; 'I' for Inactive)
REMARK    1  A    between atoms: C_2  and  C_21
REMARK    2  A    between atoms: N_3  and  C_4
REMARK    3  A    between atoms: C_4  and  C_5
REMARK    4  A    between atoms: C_8  and  C_9
REMARK    5  A    between atoms: C_9  and  O_10
REMARK    6  A    between atoms: C_9  and  C_11
REMARK    7  A    between atoms: C_11  and  O_12
REMARK    8  A    between atoms: O_12  and  C_13
REMARK                            x       y       z     vdW  Elec       q    Type
REMARK                         _______ _______ _______ _____ _____    ______ ____
ROOT
ATOM      1  C   UNL     1      45.416   7.262  12.459  0.00  0.00    +0.000 A 
ATOM      2  C   UNL     1      44.288   6.871  11.730  0.00  0.00    +0.000 A 
ATOM      3  C   UNL     1      44.070   5.522  11.423  0.00  0.00    +0.000 A 
ATOM      4  C   UNL     1      44.967   4.531  11.845  0.00  0.00    +0.000 A 
ATOM      5  C   UNL     1      46.090   4.941  12.589  0.00  0.00    +0.000 A 
ATOM      6  C   UNL     1      46.306   6.282  12.900  0.00  0.00    +0.000 A 
ENDROOT
BRANCH   1   7
ATOM      7  C   UNL     1      45.642   8.706  12.820  0.00  0.00    +0.000 C 
BRANCH   7  10
ATOM      8  O   UNL     1      48.384   9.226  12.505  0.00  0.00    +0.000 OA
ATOM      9  C   UNL     1      47.920   9.141  13.639  0.00  0.00    +0.000 C 
ATOM     10  N   UNL     1      46.611   8.822  13.879  0.00  0.00    +0.000 N 
ATOM     11  H   UNL     1      46.233   8.962  14.809  0.00  0.00    +0.000 HD
BRANCH   9  12
ATOM     12  C   UNL     1      48.769   9.315  14.826  0.00  0.00    +0.000 A 
ATOM     13  C   UNL     1      49.013  10.592  15.316  0.00  0.00    +0.000 A 
ATOM     14  S   UNL     1      50.038  10.617  16.677  0.00  0.00    +0.000 S 
ATOM     15  C   UNL     1      50.155   8.918  16.691  0.00  0.00    +0.000 A 
ATOM     16  N   UNL     1      50.881   8.276  17.642  0.00  0.00    +0.000 NA
ATOM     17  C   UNL     1      50.848   6.986  17.562  0.00  0.00    +0.000 A 
ATOM     18  N   UNL     1      50.161   6.283  16.609  0.00  0.00    +0.000 N 
ATOM     19  C   UNL     1      49.471   6.891  15.584  0.00  0.00    +0.000 A 
ATOM     20  O   UNL     1      48.975   6.231  14.676  0.00  0.00    +0.000 OA
ATOM     21  C   UNL     1      49.440   8.341  15.656  0.00  0.00    +0.000 A 
ATOM     22  H   UNL     1      50.198   5.275  16.583  0.00  0.00    +0.000 HD
ENDBRANCH   9  12
ENDBRANCH   7  10
ENDBRANCH   1   7
BRANCH   4  23
ATOM     23  C   UNL     1      44.688   3.073  11.499  0.00  0.00    +0.000 C 
BRANCH  23  24
ATOM     24  O   UNL     1      43.743   2.551  12.437  0.00  0.00    +0.000 OA
ATOM     25  H   UNL     1      44.179   1.826  12.914  0.00  0.00    +0.000 HD
ENDBRANCH  23  24
BRANCH  23  26
ATOM     26  C   UNL     1      44.168   2.885  10.059  0.00  0.00    +0.000 C 
BRANCH  26  27
ATOM     27  O   UNL     1      44.877   3.673   9.099  0.00  0.00    +0.000 OA
BRANCH  27  28
ATOM     28  C   UNL     1      45.715   2.935   8.295  0.00  0.00    +0.000 A 
ATOM     29  C   UNL     1      45.960   1.566   8.437  0.00  0.00    +0.000 A 
ATOM     30  C   UNL     1      46.810   0.902   7.548  0.00  0.00    +0.000 A 
ATOM     31  C   UNL     1      47.418   1.602   6.512  0.00  0.00    +0.000 A 
ATOM     32  C   UNL     1      47.173   2.968   6.362  0.00  0.00    +0.000 A 
ATOM     33  C   UNL     1      46.320   3.631   7.248  0.00  0.00    +0.000 A 
ENDBRANCH  27  28
ENDBRANCH  26  27
ENDBRANCH  23  26
ENDBRANCH   4  23
TORSDOF 8
ENDMDL
MODEL 7
REMARK VINA RESULT:    -7.102      4.703      6.562
REMARK INTER + INTRA:         -11.451
REMARK INTER:                 -10.383
REMARK INTRA:                  -1.068
REMARK UNBOUND:                -1.236
REMARK  Name = 
REMARK  8 active torsions:
REMARK  status: ('A' for Active; 'I' for Inactive)
REMARK    1  A    between atoms: C_2  and  C_21
REMARK    2  A    between atoms: N_3  and  C_4
REMARK    3  A    between atoms: C_4  and  C_5
REMARK    4  A    between atoms: C_8  and  C_9
REMARK    5  A    between atoms: C_9  and  O_10
REMARK    6  A    between atoms: C_9  and  C_11
REMARK    7  A    between atoms: C_11  and  O_12
REMARK    8  A    between atoms: O_12  and  C_13
REMARK                            x       y       z     vdW  Elec       q    Type
REMARK                         _______ _______ _______ _____ _____    ______ ____
ROOT
ATOM      1  C   UNL     1      47.983   6.642  12.725  0.00  0.00    +0.000 A 
ATOM      2  C   UNL     1      47.233   6.995  11.598  0.00  0.00    +0.000 A 
ATOM      3  C   UNL     1      45.990   6.400  11.354  0.00  0.00    +0.000 A 
ATOM      4  C   UNL     1      45.460   5.445  12.233  0.00  0.00    +0.000 A 
ATOM      5  C   UNL     1      46.222   5.112  13.370  0.00  0.00    +0.000 A 
ATOM      6  C   UNL     1      47.458   5.707  13.618  0.00  0.00    +0.000 A 
ENDROOT
BRANCH   1   7
ATOM      7  C   UNL     1      49.307   7.300  13.011  0.00  0.00    +0.000 C 
BRANCH   7  10
ATOM      8  O   UNL     1      51.666   8.793  12.709  0.00  0.00    +0.000 OA
ATOM      9  C   UNL     1      51.267   8.113  11.768  0.00  0.00    +0.000 C 
ATOM     10  N   UNL     1      50.092   7.412  11.809  0.00  0.00    +0.000 N 
ATOM     11  H   UNL     1      49.910   6.716  11.096  0.00  0.00    +0.000 HD
BRANCH   9  12
ATOM     12  C   UNL     1      52.004   8.061  10.498  0.00  0.00    +0.000 A 
ATOM     13  C   UNL     1      52.455   6.840  10.014  0.00  0.00    +0.000 A 
ATOM     14  S   UNL     1      53.314   6.961   8.547  0.00  0.00    +0.000 S 
ATOM     15  C   UNL     1      53.073   8.645   8.480  0.00  0.00    +0.000 A 
ATOM     16  N   UNL     1      53.545   9.378   7.438  0.00  0.00    +0.000 NA
ATOM     17  C   UNL     1      53.253  10.636   7.491  0.00  0.00    +0.000 A 
ATOM     18  N   UNL     1      52.540  11.228   8.498  0.00  0.00    +0.000 N 
ATOM     19  C   UNL     1      52.103  10.540   9.608  0.00  0.00    +0.000 A 
ATOM     20  O   UNL     1      51.578  11.126  10.550  0.00  0.00    +0.000 OA
ATOM     21  C   UNL     1      52.367   9.112   9.575  0.00  0.00    +0.000 A 
ATOM     22  H   UNL     1      52.369  12.222   8.496  0.00  0.00    +0.000 HD
ENDBRANCH   9  12
ENDBRANCH   7  10
ENDBRANCH   1   7
BRANCH   4  23
ATOM     23  C   UNL     1      44.099   4.829  11.937  0.00  0.00    +0.000 C 
BRANCH  23  24
ATOM     24  O   UNL     1      43.091   5.600  12.596  0.00  0.00    +0.000 OA
ATOM     25  H   UNL     1      43.035   6.456  12.140  0.00  0.00    +0.000 HD
ENDBRANCH  23  24
BRANCH  23  26
ATOM     26  C   UNL     1      43.796   4.736  10.427  0.00  0.00    +0.000 C 
BRANCH  26  27
ATOM     27  O   UNL     1      43.750   3.390   9.946  0.00  0.00    +0.000 OA
BRANCH  27  28
ATOM     28  C   UNL     1      44.790   3.074   9.102  0.00  0.00    +0.000 A 
ATOM     29  C   UNL     1      45.287   1.784   8.894  0.00  0.00    +0.000 A 
ATOM     30  C   UNL     1      46.331   1.564   7.991  0.00  0.00    +0.000 A 
ATOM     31  C   UNL     1      46.883   2.632   7.291  0.00  0.00    +0.000 A 
ATOM     32  C   UNL     1      46.387   3.921   7.490  0.00  0.00    +0.000 A 
ATOM     33  C   UNL     1      45.340   4.140   8.390  0.00  0.00    +0.000 A 
ENDBRANCH  27  28
ENDBRANCH  26  27
ENDBRANCH  23  26
ENDBRANCH   4  23
TORSDOF 8
ENDMDL
MODEL 8
REMARK VINA RESULT:    -6.984      3.554      8.797
REMARK INTER + INTRA:         -11.282
REMARK INTER:                  -9.700
REMARK INTRA:                  -1.582
REMARK UNBOUND:                -1.236
REMARK  Name = 
REMARK  8 active torsions:
REMARK  status: ('A' for Active; 'I' for Inactive)
REMARK    1  A    between atoms: C_2  and  C_21
REMARK    2  A    between atoms: N_3  and  C_4
REMARK    3  A    between atoms: C_4  and  C_5
REMARK    4  A    between atoms: C_8  and  C_9
REMARK    5  A    between atoms: C_9  and  O_10
REMARK    6  A    between atoms: C_9  and  C_11
REMARK    7  A    between atoms: C_11  and  O_12
REMARK    8  A    between atoms: O_12  and  C_13
REMARK                            x       y       z     vdW  Elec       q    Type
REMARK                         _______ _______ _______ _____ _____    ______ ____
ROOT
ATOM      1  C   UNL     1      48.093   7.866  13.473  0.00  0.00    +0.000 A 
ATOM      2  C   UNL     1      47.757   8.965  14.271  0.00  0.00    +0.000 A 
ATOM      3  C   UNL     1      48.262   9.082  15.572  0.00  0.00    +0.000 A 
ATOM      4  C   UNL     1      49.122   8.110  16.103  0.00  0.00    +0.000 A 
ATOM      5  C   UNL     1      49.461   7.018  15.281  0.00  0.00    +0.000 A 
ATOM      6  C   UNL     1      48.963   6.903  13.984  0.00  0.00    +0.000 A 
ENDROOT
BRANCH   1   7
ATOM      7  C   UNL     1      47.579   7.749  12.062  0.00  0.00    +0.000 C 
BRANCH   7  10
ATOM      8  O   UNL     1      44.785   7.477  11.982  0.00  0.00    +0.000 OA
ATOM      9  C   UNL     1      45.485   6.487  11.794  0.00  0.00    +0.000 C 
ATOM     10  N   UNL     1      46.851   6.519  11.885  0.00  0.00    +0.000 N 
ATOM     11  H   UNL     1      47.386   5.736  11.528  0.00  0.00    +0.000 HD
BRANCH   9  12
ATOM     12  C   UNL     1      44.889   5.171  11.521  0.00  0.00    +0.000 A 
ATOM     13  C   UNL     1      44.132   4.543  12.501  0.00  0.00    +0.000 A 
ATOM     14  S   UNL     1      43.539   3.015  12.032  0.00  0.00    +0.000 S 
ATOM     15  C   UNL     1      44.234   3.158  10.485  0.00  0.00    +0.000 A 
ATOM     16  N   UNL     1      44.077   2.180   9.555  0.00  0.00    +0.000 NA
ATOM     17  C   UNL     1      44.618   2.437   8.410  0.00  0.00    +0.000 A 
ATOM     18  N   UNL     1      45.309   3.581   8.114  0.00  0.00    +0.000 N 
ATOM     19  C   UNL     1      45.555   4.567   9.044  0.00  0.00    +0.000 A 
ATOM     20  O   UNL     1      46.286   5.517   8.781  0.00  0.00    +0.000 OA
ATOM     21  C   UNL     1      44.929   4.346  10.336  0.00  0.00    +0.000 A 
ATOM     22  H   UNL     1      45.733   3.710   7.208  0.00  0.00    +0.000 HD
ENDBRANCH   9  12
ENDBRANCH   7  10
ENDBRANCH   1   7
BRANCH   4  23
ATOM     23  C   UNL     1      49.659   8.280  17.519  0.00  0.00    +0.000 C 
BRANCH  23  24
ATOM     24  O   UNL     1      48.639   8.868  18.331  0.00  0.00    +0.000 OA
ATOM     25  H   UNL     1      48.021   9.322  17.736  0.00  0.00    +0.000 HD
ENDBRANCH  23  24
BRANCH  23  26
ATOM     26  C   UNL     1      50.139   6.953  18.144  0.00  0.00    +0.000 C 
BRANCH  26  27
ATOM     27  O   UNL     1      49.082   6.205  18.751  0.00  0.00    +0.000 OA
BRANCH  27  28
ATOM     28  C   UNL     1      48.843   4.997  18.138  0.00  0.00    +0.000 A 
ATOM     29  C   UNL     1      47.603   4.583  17.640  0.00  0.00    +0.000 A 
ATOM     30  C   UNL     1      47.471   3.345  17.007  0.00  0.00    +0.000 A 
ATOM     31  C   UNL     1      48.577   2.512  16.868  0.00  0.00    +0.000 A 
ATOM     32  C   UNL     1      49.818   2.921  17.358  0.00  0.00    +0.000 A 
ATOM     33  C   UNL     1      49.951   4.162  17.987  0.00  0.00    +0.000 A 
ENDBRANCH  27  28
ENDBRANCH  26  27
ENDBRANCH  23  26
ENDBRANCH   4  23
TORSDOF 8
ENDMDL
MODEL 9
REMARK VINA RESULT:    -6.718      4.133      8.553
REMARK INTER + INTRA:         -10.900
REMARK INTER:                  -8.935
REMARK INTRA:                  -1.964
REMARK UNBOUND:                -1.236
REMARK  Name = 
REMARK  8 active torsions:
REMARK  status: ('A' for Active; 'I' for Inactive)
REMARK    1  A    between atoms: C_2  and  C_21
REMARK    2  A    between atoms: N_3  and  C_4
REMARK    3  A    between atoms: C_4  and  C_5
REMARK    4  A    between atoms: C_8  and  C_9
REMARK    5  A    between atoms: C_9  and  O_10
REMARK    6  A    between atoms: C_9  and  C_11
REMARK    7  A    between atoms: C_11  and  O_12
REMARK    8  A    between atoms: O_12  and  C_13
REMARK                            x       y       z     vdW  Elec       q    Type
REMARK                         _______ _______ _______ _____ _____    ______ ____
ROOT
ATOM      1  C   UNL     1      49.005   7.928  15.912  0.00  0.00    +0.000 A 
ATOM      2  C   UNL     1      48.476   8.435  17.105  0.00  0.00    +0.000 A 
ATOM      3  C   UNL     1      48.981   8.018  18.342  0.00  0.00    +0.000 A 
ATOM      4  C   UNL     1      50.032   7.093  18.420  0.00  0.00    +0.000 A 
ATOM      5  C   UNL     1      50.561   6.604  17.210  0.00  0.00    +0.000 A 
ATOM      6  C   UNL     1      50.063   7.021  15.977  0.00  0.00    +0.000 A 
ENDROOT
BRANCH   1   7
ATOM      7  C   UNL     1      48.489   8.395  14.577  0.00  0.00    +0.000 C 
BRANCH   7  10
ATOM      8  O   UNL     1      48.860   6.226  12.832  0.00  0.00    +0.000 OA
ATOM      9  C   UNL     1      47.741   6.437  13.290  0.00  0.00    +0.000 C 
ATOM     10  N   UNL     1      47.460   7.512  14.090  0.00  0.00    +0.000 N 
ATOM     11  H   UNL     1      46.585   7.530  14.601  0.00  0.00    +0.000 HD
BRANCH   9  12
ATOM     12  C   UNL     1      46.601   5.573  12.950  0.00  0.00    +0.000 A 
ATOM     13  C   UNL     1      46.652   4.218  13.251  0.00  0.00    +0.000 A 
ATOM     14  S   UNL     1      45.263   3.358  12.763  0.00  0.00    +0.000 S 
ATOM     15  C   UNL     1      44.524   4.774  12.175  0.00  0.00    +0.000 A 
ATOM     16  N   UNL     1      43.277   4.739  11.637  0.00  0.00    +0.000 NA
ATOM     17  C   UNL     1      42.818   5.891  11.271  0.00  0.00    +0.000 A 
ATOM     18  N   UNL     1      43.499   7.073  11.388  0.00  0.00    +0.000 N 
ATOM     19  C   UNL     1      44.791   7.148  11.860  0.00  0.00    +0.000 A 
ATOM     20  O   UNL     1      45.415   8.204  11.832  0.00  0.00    +0.000 OA
ATOM     21  C   UNL     1      45.336   5.885  12.327  0.00  0.00    +0.000 A 
ATOM     22  H   UNL     1      43.096   7.937  11.057  0.00  0.00    +0.000 HD
ENDBRANCH   9  12
ENDBRANCH   7  10
ENDBRANCH   1   7
BRANCH   4  23
ATOM     23  C   UNL     1      50.559   6.674  19.786  0.00  0.00    +0.000 C 
BRANCH  23  24
ATOM     24  O   UNL     1      49.878   7.425  20.794  0.00  0.00    +0.000 OA
ATOM     25  H   UNL     1      50.502   8.085  21.137  0.00  0.00    +0.000 HD
ENDBRANCH  23  24
BRANCH  23  26
ATOM     26  C   UNL     1      50.405   5.162  20.053  0.00  0.00    +0.000 C 
BRANCH  26  27
ATOM     27  O   UNL     1      49.050   4.713  19.969  0.00  0.00    +0.000 OA
BRANCH  27  28
ATOM     28  C   UNL     1      48.741   4.121  18.767  0.00  0.00    +0.000 A 
ATOM     29  C   UNL     1      49.491   3.111  18.155  0.00  0.00    +0.000 A 
ATOM     30  C   UNL     1      49.075   2.555  16.943  0.00  0.00    +0.000 A 
ATOM     31  C   UNL     1      47.907   3.003  16.335  0.00  0.00    +0.000 A 
ATOM     32  C   UNL     1      47.151   4.007  16.943  0.00  0.00    +0.000 A 
ATOM     33  C   UNL     1      47.565   4.560  18.158  0.00  0.00    +0.000 A 
ENDBRANCH  27  28
ENDBRANCH  26  27
ENDBRANCH  23  26
ENDBRANCH   4  23
TORSDOF 8
ENDMDL
