MODEL 1
REMARK VINA RESULT:    -9.105      0.000      0.000
REMARK INTER + INTRA:         -14.154
REMARK INTER:                 -13.097
REMARK INTRA:                  -1.057
REMARK UNBOUND:                -1.057
REMARK  Name = 
REMARK  8 active torsions:
REMARK  status: ('A' for Active; 'I' for Inactive)
REMARK    1  A    between atoms: C_2  and  C_21
REMARK    2  A    between atoms: N_3  and  C_4
REMARK    3  A    between atoms: C_4  and  C_5
REMARK    4  A    between atoms: C_8  and  C_9
REMARK    5  A    between atoms: C_9  and  N_10
REMARK    6  A    between atoms: N_10  and  C_11
REMARK    7  A    between atoms: C_11  and  C_12
REMARK    8  A    between atoms: C_15  and  O_16
REMARK                            x       y       z     vdW  Elec       q    Type
REMARK                         _______ _______ _______ _____ _____    ______ ____
ROOT
ATOM      1  C   UNL     1      47.086   6.231  12.686  0.00  0.00    +0.000 A 
ATOM      2  C   UNL     1      46.206   5.344  13.321  0.00  0.00    +0.000 A 
ATOM      3  C   UNL     1      45.046   4.910  12.673  0.00  0.00    +0.000 A 
ATOM      4  C   UNL     1      44.746   5.344  11.374  0.00  0.00    +0.000 A 
ATOM      5  C   UNL     1      45.645   6.204  10.729  0.00  0.00    +0.000 A 
ATOM      6  C   UNL     1      46.807   6.636  11.374  0.00  0.00    +0.000 A 
ENDROOT
BRANCH   1   7
ATOM      7  C   UNL     1      48.309   6.737  13.403  0.00  0.00    +0.000 C 
BRANCH   7  10
ATOM      8  O   UNL     1      50.359   6.800  15.328  0.00  0.00    +0.000 OA
ATOM      9  C   UNL     1      49.191   6.806  15.704  0.00  0.00    +0.000 C 
ATOM     10  N   UNL     1      48.136   6.731  14.833  0.00  0.00    +0.000 N 
ATOM     11  H   UNL     1      47.194   6.892  15.172  0.00  0.00    +0.000 HD
BRANCH   9  12
ATOM     12  C   UNL     1      48.851   6.845  17.131  0.00  0.00    +0.000 A 
ATOM     13  C   UNL     1      48.366   8.019  17.693  0.00  0.00    +0.000 A 
ATOM     14  S   UNL     1      47.984   7.876  19.349  0.00  0.00    +0.000 S 
ATOM     15  C   UNL     1      48.420   6.234  19.363  0.00  0.00    +0.000 A 
ATOM     16  N   UNL     1      48.278   5.480  20.489  0.00  0.00    +0.000 NA
ATOM     17  C   UNL     1      48.603   4.241  20.346  0.00  0.00    +0.000 A 
ATOM     18  N   UNL     1      49.084   3.688  19.187  0.00  0.00    +0.000 N 
ATOM     19  C   UNL     1      49.331   4.426  18.056  0.00  0.00    +0.000 A 
ATOM     20  O   UNL     1      49.918   3.939  17.098  0.00  0.00    +0.000 OA
ATOM     21  C   UNL     1      48.901   5.809  18.137  0.00  0.00    +0.000 A 
ATOM     22  H   UNL     1      49.369   2.719  19.156  0.00  0.00    +0.000 HD
ENDBRANCH   9  12
ENDBRANCH   7  10
ENDBRANCH   1   7
BRANCH   4  23
ATOM     23  C   UNL     1      43.500   4.868  10.663  0.00  0.00    +0.000 C 
BRANCH  23  24
ATOM     24  N   UNL     1      43.808   4.304   9.348  0.00  0.00    +0.000 NA
ATOM     25  H   UNL     1      44.406   4.953   8.837  0.00  0.00    +0.000 HD
BRANCH  24  26
ATOM     26  C   UNL     1      44.462   3.002   9.473  0.00  0.00    +0.000 C 
BRANCH  26  27
ATOM     27  C   UNL     1      45.203   2.612   8.177  0.00  0.00    +0.000 C 
ATOM     28  C   UNL     1      46.053   3.802   7.689  0.00  0.00    +0.000 C 
ATOM     29  C   UNL     1      46.932   3.447   6.493  0.00  0.00    +0.000 C 
ATOM     30  C   UNL     1      47.801   2.229   6.789  0.00  0.00    +0.000 C 
ATOM     31  C   UNL     1      46.938   1.033   7.176  0.00  0.00    +0.000 C 
ATOM     32  C   UNL     1      46.065   1.352   8.383  0.00  0.00    +0.000 C 
BRANCH  30  33
ATOM     33  O   UNL     1      48.587   1.910   5.647  0.00  0.00    +0.000 OA
ATOM     34  H   UNL     1      48.047   1.361   5.053  0.00  0.00    +0.000 HD
ENDBRANCH  30  33
ENDBRANCH  26  27
ENDBRANCH  24  26
ENDBRANCH  23  24
ENDBRANCH   4  23
TORSDOF 8
ENDMDL
MODEL 2
REMARK VINA RESULT:    -7.872      2.075      2.465
REMARK INTER + INTRA:         -12.380
REMARK INTER:                 -11.388
REMARK INTRA:                  -0.992
REMARK UNBOUND:                -1.057
REMARK  Name = 
REMARK  8 active torsions:
REMARK  status: ('A' for Active; 'I' for Inactive)
REMARK    1  A    between atoms: C_2  and  C_21
REMARK    2  A    between atoms: N_3  and  C_4
REMARK    3  A    between atoms: C_4  and  C_5
REMARK    4  A    between atoms: C_8  and  C_9
REMARK    5  A    between atoms: C_9  and  N_10
REMARK    6  A    between atoms: N_10  and  C_11
REMARK    7  A    between atoms: C_11  and  C_12
REMARK    8  A    between atoms: C_15  and  O_16
REMARK                            x       y       z     vdW  Elec       q    Type
REMARK                         _______ _______ _______ _____ _____    ______ ____
ROOT
ATOM      1  C   UNL     1      47.895   7.015  13.095  0.00  0.00    +0.000 A 
ATOM      2  C   UNL     1      47.516   5.901  13.855  0.00  0.00    +0.000 A 
ATOM      3  C   UNL     1      46.565   4.999  13.368  0.00  0.00    +0.000 A 
ATOM      4  C   UNL     1      45.981   5.186  12.108  0.00  0.00    +0.000 A 
ATOM      5  C   UNL     1      46.386   6.283  11.336  0.00  0.00    +0.000 A 
ATOM      6  C   UNL     1      47.340   7.182  11.820  0.00  0.00    +0.000 A 
ENDROOT
BRANCH   1   7
ATOM      7  C   UNL     1      48.882   8.012  13.641  0.00  0.00    +0.000 C 
BRANCH   7  10
ATOM      8  O   UNL     1      49.477   8.132  16.387  0.00  0.00    +0.000 OA
ATOM      9  C   UNL     1      50.182   7.443  15.656  0.00  0.00    +0.000 C 
ATOM     10  N   UNL     1      49.988   7.367  14.302  0.00  0.00    +0.000 N 
ATOM     11  H   UNL     1      50.492   6.674  13.762  0.00  0.00    +0.000 HD
BRANCH   9  12
ATOM     12  C   UNL     1      51.322   6.688  16.191  0.00  0.00    +0.000 A 
ATOM     13  C   UNL     1      52.610   7.184  16.035  0.00  0.00    +0.000 A 
ATOM     14  S   UNL     1      53.809   6.203  16.751  0.00  0.00    +0.000 S 
ATOM     15  C   UNL     1      52.646   5.105  17.322  0.00  0.00    +0.000 A 
ATOM     16  N   UNL     1      53.007   4.032  18.081  0.00  0.00    +0.000 NA
ATOM     17  C   UNL     1      52.020   3.308  18.484  0.00  0.00    +0.000 A 
ATOM     18  N   UNL     1      50.704   3.540  18.177  0.00  0.00    +0.000 N 
ATOM     19  C   UNL     1      50.301   4.551  17.341  0.00  0.00    +0.000 A 
ATOM     20  O   UNL     1      49.142   4.626  16.952  0.00  0.00    +0.000 OA
ATOM     21  C   UNL     1      51.364   5.448  16.930  0.00  0.00    +0.000 A 
ATOM     22  H   UNL     1      49.982   2.902  18.484  0.00  0.00    +0.000 HD
ENDBRANCH   9  12
ENDBRANCH   7  10
ENDBRANCH   1   7
BRANCH   4  23
ATOM     23  C   UNL     1      44.962   4.208  11.570  0.00  0.00    +0.000 C 
BRANCH  23  24
ATOM     24  N   UNL     1      44.917   4.220  10.107  0.00  0.00    +0.000 NA
ATOM     25  H   UNL     1      45.837   4.469   9.746  0.00  0.00    +0.000 HD
BRANCH  24  26
ATOM     26  C   UNL     1      44.501   2.919   9.583  0.00  0.00    +0.000 C 
BRANCH  26  27
ATOM     27  C   UNL     1      45.224   2.583   8.260  0.00  0.00    +0.000 C 
ATOM     28  C   UNL     1      46.101   3.777   7.834  0.00  0.00    +0.000 C 
ATOM     29  C   UNL     1      46.963   3.466   6.613  0.00  0.00    +0.000 C 
ATOM     30  C   UNL     1      47.801   2.211   6.833  0.00  0.00    +0.000 C 
ATOM     31  C   UNL     1      46.910   1.019   7.159  0.00  0.00    +0.000 C 
ATOM     32  C   UNL     1      46.053   1.292   8.390  0.00  0.00    +0.000 C 
BRANCH  30  33
ATOM     33  O   UNL     1      48.571   1.937   5.669  0.00  0.00    +0.000 OA
ATOM     34  H   UNL     1      47.987   2.018   4.895  0.00  0.00    +0.000 HD
ENDBRANCH  30  33
ENDBRANCH  26  27
ENDBRANCH  24  26
ENDBRANCH  23  24
ENDBRANCH   4  23
TORSDOF 8
ENDMDL
MODEL 3
REMARK VINA RESULT:    -7.232      3.652      5.207
REMARK INTER + INTRA:         -11.460
REMARK INTER:                 -10.119
REMARK INTRA:                  -1.340
REMARK UNBOUND:                -1.057
REMARK  Name = 
REMARK  8 active torsions:
REMARK  status: ('A' for Active; 'I' for Inactive)
REMARK    1  A    between atoms: C_2  and  C_21
REMARK    2  A    between atoms: N_3  and  C_4
REMARK    3  A    between atoms: C_4  and  C_5
REMARK    4  A    between atoms: C_8  and  C_9
REMARK    5  A    between atoms: C_9  and  N_10
REMARK    6  A    between atoms: N_10  and  C_11
REMARK    7  A    between atoms: C_11  and  C_12
REMARK    8  A    between atoms: C_15  and  O_16
REMARK                            x       y       z     vdW  Elec       q    Type
REMARK                         _______ _______ _______ _____ _____    ______ ____
ROOT
ATOM      1  C   UNL     1      46.909   7.184  13.162  0.00  0.00    +0.000 A 
ATOM      2  C   UNL     1      47.067   5.971  13.847  0.00  0.00    +0.000 A 
ATOM      3  C   UNL     1      46.527   4.789  13.332  0.00  0.00    +0.000 A 
ATOM      4  C   UNL     1      45.827   4.792  12.118  0.00  0.00    +0.000 A 
ATOM      5  C   UNL     1      45.699   6.000  11.419  0.00  0.00    +0.000 A 
ATOM      6  C   UNL     1      46.242   7.181  11.931  0.00  0.00    +0.000 A 
ENDROOT
BRANCH   1   7
ATOM      7  C   UNL     1      47.449   8.464  13.742  0.00  0.00    +0.000 C 
BRANCH   7  10
ATOM      8  O   UNL     1      49.810   7.919  15.170  0.00  0.00    +0.000 OA
ATOM      9  C   UNL     1      49.895   8.394  14.042  0.00  0.00    +0.000 C 
ATOM     10  N   UNL     1      48.793   8.730  13.299  0.00  0.00    +0.000 N 
ATOM     11  H   UNL     1      48.904   8.975  12.322  0.00  0.00    +0.000 HD
BRANCH   9  12
ATOM     12  C   UNL     1      51.199   8.680  13.433  0.00  0.00    +0.000 A 
ATOM     13  C   UNL     1      52.174   9.341  14.170  0.00  0.00    +0.000 A 
ATOM     14  S   UNL     1      53.640   9.554  13.325  0.00  0.00    +0.000 S 
ATOM     15  C   UNL     1      53.035   8.741  11.961  0.00  0.00    +0.000 A 
ATOM     16  N   UNL     1      53.820   8.522  10.869  0.00  0.00    +0.000 NA
ATOM     17  C   UNL     1      53.248   7.854   9.927  0.00  0.00    +0.000 A 
ATOM     18  N   UNL     1      51.953   7.406   9.962  0.00  0.00    +0.000 N 
ATOM     19  C   UNL     1      51.096   7.682  10.998  0.00  0.00    +0.000 A 
ATOM     20  O   UNL     1      49.903   7.416  10.921  0.00  0.00    +0.000 OA
ATOM     21  C   UNL     1      51.716   8.357  12.123  0.00  0.00    +0.000 A 
ATOM     22  H   UNL     1      51.549   6.931   9.166  0.00  0.00    +0.000 HD
ENDBRANCH   9  12
ENDBRANCH   7  10
ENDBRANCH   1   7
BRANCH   4  23
ATOM     23  C   UNL     1      45.251   3.516  11.549  0.00  0.00    +0.000 C 
BRANCH  23  24
ATOM     24  N   UNL     1      44.278   3.784  10.490  0.00  0.00    +0.000 NA
ATOM     25  H   UNL     1      44.491   4.682  10.058  0.00  0.00    +0.000 HD
BRANCH  24  26
ATOM     26  C   UNL     1      44.289   2.722   9.483  0.00  0.00    +0.000 C 
BRANCH  26  27
ATOM     27  C   UNL     1      45.664   2.608   8.793  0.00  0.00    +0.000 C 
ATOM     28  C   UNL     1      45.877   1.163   8.301  0.00  0.00    +0.000 C 
ATOM     29  C   UNL     1      47.151   1.004   7.476  0.00  0.00    +0.000 C 
ATOM     30  C   UNL     1      47.187   1.996   6.317  0.00  0.00    +0.000 C 
ATOM     31  C   UNL     1      47.073   3.427   6.830  0.00  0.00    +0.000 C 
ATOM     32  C   UNL     1      45.796   3.621   7.640  0.00  0.00    +0.000 C 
BRANCH  30  33
ATOM     33  O   UNL     1      48.397   1.839   5.587  0.00  0.00    +0.000 OA
ATOM     34  H   UNL     1      48.646   2.707   5.225  0.00  0.00    +0.000 HD
ENDBRANCH  30  33
ENDBRANCH  26  27
ENDBRANCH  24  26
ENDBRANCH  23  24
ENDBRANCH   4  23
TORSDOF 8
ENDMDL
MODEL 4
REMARK VINA RESULT:    -7.096      3.233      9.106
REMARK INTER + INTRA:         -11.263
REMARK INTER:                  -9.741
REMARK INTRA:                  -1.523
REMARK UNBOUND:                -1.057
REMARK  Name = 
REMARK  8 active torsions:
REMARK  status: ('A' for Active; 'I' for Inactive)
REMARK    1  A    between atoms: C_2  and  C_21
REMARK    2  A    between atoms: N_3  and  C_4
REMARK    3  A    between atoms: C_4  and  C_5
REMARK    4  A    between atoms: C_8  and  C_9
REMARK    5  A    between atoms: C_9  and  N_10
REMARK    6  A    between atoms: N_10  and  C_11
REMARK    7  A    between atoms: C_11  and  C_12
REMARK    8  A    between atoms: C_15  and  O_16
REMARK                            x       y       z     vdW  Elec       q    Type
REMARK                         _______ _______ _______ _____ _____    ______ ____
ROOT
ATOM      1  C   UNL     1      48.553   7.997  13.038  0.00  0.00    +0.000 A 
ATOM      2  C   UNL     1      49.940   7.848  12.909  0.00  0.00    +0.000 A 
ATOM      3  C   UNL     1      50.769   7.912  14.034  0.00  0.00    +0.000 A 
ATOM      4  C   UNL     1      50.228   8.116  15.311  0.00  0.00    +0.000 A 
ATOM      5  C   UNL     1      48.837   8.232  15.440  0.00  0.00    +0.000 A 
ATOM      6  C   UNL     1      48.008   8.163  14.318  0.00  0.00    +0.000 A 
ENDROOT
BRANCH   1   7
ATOM      7  C   UNL     1      47.667   7.977  11.821  0.00  0.00    +0.000 C 
BRANCH   7  10
ATOM      8  O   UNL     1      44.884   7.603  11.974  0.00  0.00    +0.000 OA
ATOM      9  C   UNL     1      45.600   6.637  11.733  0.00  0.00    +0.000 C 
ATOM     10  N   UNL     1      46.967   6.725  11.686  0.00  0.00    +0.000 N 
ATOM     11  H   UNL     1      47.508   5.943  11.336  0.00  0.00    +0.000 HD
BRANCH   9  12
ATOM     12  C   UNL     1      45.030   5.300  11.526  0.00  0.00    +0.000 A 
ATOM     13  C   UNL     1      44.352   4.672  12.562  0.00  0.00    +0.000 A 
ATOM     14  S   UNL     1      43.720   3.146  12.137  0.00  0.00    +0.000 S 
ATOM     15  C   UNL     1      44.299   3.288  10.546  0.00  0.00    +0.000 A 
ATOM     16  N   UNL     1      44.047   2.323   9.618  0.00  0.00    +0.000 NA
ATOM     17  C   UNL     1      44.505   2.582   8.441  0.00  0.00    +0.000 A 
ATOM     18  N   UNL     1      45.218   3.705   8.111  0.00  0.00    +0.000 N 
ATOM     19  C   UNL     1      45.577   4.659   9.031  0.00  0.00    +0.000 A 
ATOM     20  O   UNL     1      46.355   5.558   8.739  0.00  0.00    +0.000 OA
ATOM     21  C   UNL     1      45.012   4.458  10.352  0.00  0.00    +0.000 A 
ATOM     22  H   UNL     1      45.594   3.823   7.180  0.00  0.00    +0.000 HD
ENDBRANCH   9  12
ENDBRANCH   7  10
ENDBRANCH   1   7
BRANCH   4  23
ATOM     23  C   UNL     1      51.117   8.173  16.531  0.00  0.00    +0.000 C 
BRANCH  23  24
ATOM     24  N   UNL     1      51.761   6.886  16.794  0.00  0.00    +0.000 NA
ATOM     25  H   UNL     1      52.744   7.043  17.016  0.00  0.00    +0.000 HD
BRANCH  24  26
ATOM     26  C   UNL     1      51.100   6.181  17.893  0.00  0.00    +0.000 C 
BRANCH  26  27
ATOM     27  C   UNL     1      49.917   5.328  17.389  0.00  0.00    +0.000 C 
ATOM     28  C   UNL     1      50.208   3.836  17.651  0.00  0.00    +0.000 C 
ATOM     29  C   UNL     1      49.021   2.938  17.316  0.00  0.00    +0.000 C 
ATOM     30  C   UNL     1      47.759   3.395  18.044  0.00  0.00    +0.000 C 
ATOM     31  C   UNL     1      47.432   4.842  17.697  0.00  0.00    +0.000 C 
ATOM     32  C   UNL     1      48.593   5.767  18.043  0.00  0.00    +0.000 C 
BRANCH  30  33
ATOM     33  O   UNL     1      46.669   2.553  17.689  0.00  0.00    +0.000 OA
ATOM     34  H   UNL     1      45.951   2.704  18.328  0.00  0.00    +0.000 HD
ENDBRANCH  30  33
ENDBRANCH  26  27
ENDBRANCH  24  26
ENDBRANCH  23  24
ENDBRANCH   4  23
TORSDOF 8
ENDMDL
MODEL 5
REMARK VINA RESULT:    -6.605      3.374      5.009
REMARK INTER + INTRA:         -10.558
REMARK INTER:                  -9.504
REMARK INTRA:                  -1.054
REMARK UNBOUND:                -1.057
REMARK  Name = 
REMARK  8 active torsions:
REMARK  status: ('A' for Active; 'I' for Inactive)
REMARK    1  A    between atoms: C_2  and  C_21
REMARK    2  A    between atoms: N_3  and  C_4
REMARK    3  A    between atoms: C_4  and  C_5
REMARK    4  A    between atoms: C_8  and  C_9
REMARK    5  A    between atoms: C_9  and  N_10
REMARK    6  A    between atoms: N_10  and  C_11
REMARK    7  A    between atoms: C_11  and  C_12
REMARK    8  A    between atoms: C_15  and  O_16
REMARK                            x       y       z     vdW  Elec       q    Type
REMARK                         _______ _______ _______ _____ _____    ______ ____
ROOT
ATOM      1  C   UNL     1      48.671   7.489  16.121  0.00  0.00    +0.000 A 
ATOM      2  C   UNL     1      48.625   6.342  15.318  0.00  0.00    +0.000 A 
ATOM      3  C   UNL     1      48.339   6.441  13.953  0.00  0.00    +0.000 A 
ATOM      4  C   UNL     1      48.103   7.689  13.360  0.00  0.00    +0.000 A 
ATOM      5  C   UNL     1      48.182   8.838  14.159  0.00  0.00    +0.000 A 
ATOM      6  C   UNL     1      48.472   8.739  15.523  0.00  0.00    +0.000 A 
ENDROOT
BRANCH   1   7
ATOM      7  C   UNL     1      48.930   7.375  17.600  0.00  0.00    +0.000 C 
BRANCH   7  10
ATOM      8  O   UNL     1      48.807   4.859  18.849  0.00  0.00    +0.000 OA
ATOM      9  C   UNL     1      49.894   5.277  18.462  0.00  0.00    +0.000 C 
ATOM     10  N   UNL     1      50.046   6.511  17.885  0.00  0.00    +0.000 N 
ATOM     11  H   UNL     1      50.926   6.752  17.445  0.00  0.00    +0.000 HD
BRANCH   9  12
ATOM     12  C   UNL     1      51.119   4.489  18.641  0.00  0.00    +0.000 A 
ATOM     13  C   UNL     1      52.150   4.987  19.428  0.00  0.00    +0.000 A 
ATOM     14  S   UNL     1      53.479   3.926  19.562  0.00  0.00    +0.000 S 
ATOM     15  C   UNL     1      52.709   2.754  18.603  0.00  0.00    +0.000 A 
ATOM     16  N   UNL     1      53.296   1.548  18.364  0.00  0.00    +0.000 NA
ATOM     17  C   UNL     1      52.581   0.737  17.660  0.00  0.00    +0.000 A 
ATOM     18  N   UNL     1      51.343   1.030  17.149  0.00  0.00    +0.000 N 
ATOM     19  C   UNL     1      50.753   2.262  17.284  0.00  0.00    +0.000 A 
ATOM     20  O   UNL     1      49.730   2.544  16.674  0.00  0.00    +0.000 OA
ATOM     21  C   UNL     1      51.477   3.182  18.141  0.00  0.00    +0.000 A 
ATOM     22  H   UNL     1      50.857   0.367  16.561  0.00  0.00    +0.000 HD
ENDBRANCH   9  12
ENDBRANCH   7  10
ENDBRANCH   1   7
BRANCH   4  23
ATOM     23  C   UNL     1      47.806   7.805  11.883  0.00  0.00    +0.000 C 
BRANCH  23  24
ATOM     24  N   UNL     1      46.783   6.849  11.459  0.00  0.00    +0.000 NA
ATOM     25  H   UNL     1      46.989   5.936  11.863  0.00  0.00    +0.000 HD
BRANCH  24  26
ATOM     26  C   UNL     1      45.448   7.293  11.862  0.00  0.00    +0.000 C 
BRANCH  26  27
ATOM     27  C   UNL     1      44.406   6.164  11.714  0.00  0.00    +0.000 C 
ATOM     28  C   UNL     1      44.839   5.205  10.588  0.00  0.00    +0.000 C 
ATOM     29  C   UNL     1      43.936   3.980  10.478  0.00  0.00    +0.000 C 
ATOM     30  C   UNL     1      43.828   3.253  11.816  0.00  0.00    +0.000 C 
ATOM     31  C   UNL     1      43.305   4.191  12.897  0.00  0.00    +0.000 C 
ATOM     32  C   UNL     1      44.202   5.415  13.044  0.00  0.00    +0.000 C 
BRANCH  30  33
ATOM     33  O   UNL     1      42.960   2.134  11.685  0.00  0.00    +0.000 OA
ATOM     34  H   UNL     1      43.299   1.572  10.966  0.00  0.00    +0.000 HD
ENDBRANCH  30  33
ENDBRANCH  26  27
ENDBRANCH  24  26
ENDBRANCH  23  24
ENDBRANCH   4  23
TORSDOF 8
ENDMDL
MODEL 6
REMARK VINA RESULT:    -6.588      5.116      8.253
REMARK INTER + INTRA:         -10.533
REMARK INTER:                  -9.416
REMARK INTRA:                  -1.117
REMARK UNBOUND:                -1.057
REMARK  Name = 
REMARK  8 active torsions:
REMARK  status: ('A' for Active; 'I' for Inactive)
REMARK    1  A    between atoms: C_2  and  C_21
REMARK    2  A    between atoms: N_3  and  C_4
REMARK    3  A    between atoms: C_4  and  C_5
REMARK    4  A    between atoms: C_8  and  C_9
REMARK    5  A    between atoms: C_9  and  N_10
REMARK    6  A    between atoms: N_10  and  C_11
REMARK    7  A    between atoms: C_11  and  C_12
REMARK    8  A    between atoms: C_15  and  O_16
REMARK                            x       y       z     vdW  Elec       q    Type
REMARK                         _______ _______ _______ _____ _____    ______ ____
ROOT
ATOM      1  C   UNL     1      47.004   8.821  12.394  0.00  0.00    +0.000 A 
ATOM      2  C   UNL     1      48.003   7.869  12.149  0.00  0.00    +0.000 A 
ATOM      3  C   UNL     1      49.245   8.258  11.638  0.00  0.00    +0.000 A 
ATOM      4  C   UNL     1      49.518   9.607  11.371  0.00  0.00    +0.000 A 
ATOM      5  C   UNL     1      48.529  10.560  11.647  0.00  0.00    +0.000 A 
ATOM      6  C   UNL     1      47.289  10.172  12.162  0.00  0.00    +0.000 A 
ENDROOT
BRANCH   1   7
ATOM      7  C   UNL     1      45.651   8.395  12.898  0.00  0.00    +0.000 C 
BRANCH   7  10
ATOM      8  O   UNL     1      43.702   7.482  11.088  0.00  0.00    +0.000 OA
ATOM      9  C   UNL     1      44.423   6.662  11.648  0.00  0.00    +0.000 C 
ATOM     10  N   UNL     1      45.365   7.020  12.576  0.00  0.00    +0.000 N 
ATOM     11  H   UNL     1      46.037   6.334  12.899  0.00  0.00    +0.000 HD
BRANCH   9  12
ATOM     12  C   UNL     1      44.283   5.223  11.389  0.00  0.00    +0.000 A 
ATOM     13  C   UNL     1      43.544   4.435  12.261  0.00  0.00    +0.000 A 
ATOM     14  S   UNL     1      43.450   2.799  11.788  0.00  0.00    +0.000 S 
ATOM     15  C   UNL     1      44.362   3.095  10.386  0.00  0.00    +0.000 A 
ATOM     16  N   UNL     1      44.609   2.103   9.486  0.00  0.00    +0.000 NA
ATOM     17  C   UNL     1      45.273   2.477   8.447  0.00  0.00    +0.000 A 
ATOM     18  N   UNL     1      45.738   3.749   8.234  0.00  0.00    +0.000 N 
ATOM     19  C   UNL     1      45.595   4.759   9.153  0.00  0.00    +0.000 A 
ATOM     20  O   UNL     1      46.168   5.832   9.009  0.00  0.00    +0.000 OA
ATOM     21  C   UNL     1      44.780   4.412  10.302  0.00  0.00    +0.000 A 
ATOM     22  H   UNL     1      46.298   3.966   7.421  0.00  0.00    +0.000 HD
ENDBRANCH   9  12
ENDBRANCH   7  10
ENDBRANCH   1   7
BRANCH   4  23
ATOM     23  C   UNL     1      50.862  10.035  10.830  0.00  0.00    +0.000 C 
BRANCH  23  24
ATOM     24  N   UNL     1      51.920   9.092  11.196  0.00  0.00    +0.000 NA
ATOM     25  H   UNL     1      51.622   8.146  10.960  0.00  0.00    +0.000 HD
BRANCH  24  26
ATOM     26  C   UNL     1      53.173   9.415  10.512  0.00  0.00    +0.000 C 
BRANCH  26  27
ATOM     27  C   UNL     1      53.530   8.352   9.452  0.00  0.00    +0.000 C 
ATOM     28  C   UNL     1      52.915   6.996   9.852  0.00  0.00    +0.000 C 
ATOM     29  C   UNL     1      53.099   5.927   8.779  0.00  0.00    +0.000 C 
ATOM     30  C   UNL     1      52.567   6.401   7.430  0.00  0.00    +0.000 C 
ATOM     31  C   UNL     1      53.256   7.692   7.003  0.00  0.00    +0.000 C 
ATOM     32  C   UNL     1      53.070   8.786   8.048  0.00  0.00    +0.000 C 
BRANCH  30  33
ATOM     33  O   UNL     1      52.778   5.393   6.449  0.00  0.00    +0.000 OA
ATOM     34  H   UNL     1      53.529   4.845   6.735  0.00  0.00    +0.000 HD
ENDBRANCH  30  33
ENDBRANCH  26  27
ENDBRANCH  24  26
ENDBRANCH  23  24
ENDBRANCH   4  23
TORSDOF 8
ENDMDL
