MODEL 1
REMARK VINA RESULT:    -7.507      0.000      0.000
REMARK INTER + INTRA:         -10.190
REMARK INTER:                  -9.701
REMARK INTRA:                  -0.489
REMARK UNBOUND:                -0.489
REMARK  Name = 
REMARK  6 active torsions:
REMARK  status: ('A' for Active; 'I' for Inactive)
REMARK    1  A    between atoms: C_1  and  O_2
REMARK    2  A    between atoms: O_2  and  C_3
REMARK    3  A    between atoms: C_5  and  C_6
REMARK    4  A    between atoms: C_11  and  O_12
REMARK    5  A    between atoms: O_12  and  C_13
REMARK    6  A    between atoms: C_13  and  C_14
REMARK                            x       y       z     vdW  Elec       q    Type
REMARK                         _______ _______ _______ _____ _____    ______ ____
ROOT
ATOM      1  C   UNL     1      45.821   4.872  12.894  0.00  0.00    +0.000 A 
ATOM      2  C   UNL     1      46.051   6.199  13.282  0.00  0.00    +0.000 A 
ATOM      3  C   UNL     1      45.513   7.271  12.555  0.00  0.00    +0.000 A 
ATOM      4  C   UNL     1      44.721   7.006  11.437  0.00  0.00    +0.000 A 
ATOM      5  C   UNL     1      44.490   5.689  11.039  0.00  0.00    +0.000 A 
ATOM      6  C   UNL     1      45.065   4.617  11.735  0.00  0.00    +0.000 A 
ENDROOT
BRANCH   3   7
ATOM      7  C   UNL     1      45.818   8.652  13.023  0.00  0.00    +0.000 C 
ATOM      8  N   UNL     1      46.695   8.818  14.055  0.00  0.00    +0.000 N 
ATOM      9  O   UNL     1      45.296   9.632  12.500  0.00  0.00    +0.000 OA
ATOM     10  H   UNL     1      47.162   8.080  14.557  0.00  0.00    +0.000 HD
ATOM     11  H   UNL     1      46.874   9.769  14.348  0.00  0.00    +0.000 HD
ENDBRANCH   3   7
BRANCH   1  13
ATOM     12  C   UNL     1      47.128   4.066  14.712  0.00  0.00    +0.000 C 
ATOM     13  O   UNL     1      46.330   3.785  13.563  0.00  0.00    +0.000 OA
ENDBRANCH   1  13
BRANCH   6  14
ATOM     14  O   UNL     1      44.916   3.305  11.345  0.00  0.00    +0.000 OA
BRANCH  14  15
ATOM     15  C   UNL     1      44.161   3.110  10.144  0.00  0.00    +0.000 C 
BRANCH  15  16
ATOM     16  C   UNL     1      45.040   2.826   8.955  0.00  0.00    +0.000 A 
ATOM     17  C   UNL     1      45.664   1.595   8.749  0.00  0.00    +0.000 A 
ATOM     18  C   UNL     1      46.550   1.442   7.686  0.00  0.00    +0.000 A 
ATOM     19  C   UNL     1      46.781   2.537   6.871  0.00  0.00    +0.000 A 
ATOM     20 CL   UNL     1      47.887   2.443   5.564  0.00  0.00    +0.000 Cl
ATOM     21  N   UNL     1      46.202   3.745   7.028  0.00  0.00    +0.000 NA
ATOM     22  C   UNL     1      45.348   3.860   8.069  0.00  0.00    +0.000 A 
ENDBRANCH  15  16
ENDBRANCH  14  15
ENDBRANCH   6  14
TORSDOF 5
ENDMDL
MODEL 2
REMARK VINA RESULT:    -7.276      1.696      2.766
REMARK INTER + INTRA:          -9.892
REMARK INTER:                  -9.297
REMARK INTRA:                  -0.595
REMARK UNBOUND:                -0.489
REMARK  Name = 
REMARK  6 active torsions:
REMARK  status: ('A' for Active; 'I' for Inactive)
REMARK    1  A    between atoms: C_1  and  O_2
REMARK    2  A    between atoms: O_2  and  C_3
REMARK    3  A    between atoms: C_5  and  C_6
REMARK    4  A    between atoms: C_11  and  O_12
REMARK    5  A    between atoms: O_12  and  C_13
REMARK    6  A    between atoms: C_13  and  C_14
REMARK                            x       y       z     vdW  Elec       q    Type
REMARK                         _______ _______ _______ _____ _____    ______ ____
ROOT
ATOM      1  C   UNL     1      45.715   5.980  11.792  0.00  0.00    +0.000 A 
ATOM      2  C   UNL     1      46.589   6.240  12.856  0.00  0.00    +0.000 A 
ATOM      3  C   UNL     1      46.956   5.229  13.756  0.00  0.00    +0.000 A 
ATOM      4  C   UNL     1      46.454   3.940  13.575  0.00  0.00    +0.000 A 
ATOM      5  C   UNL     1      45.578   3.672  12.522  0.00  0.00    +0.000 A 
ATOM      6  C   UNL     1      45.173   4.689  11.649  0.00  0.00    +0.000 A 
ENDROOT
BRANCH   3   7
ATOM      7  C   UNL     1      47.876   5.589  14.872  0.00  0.00    +0.000 C 
ATOM      8  N   UNL     1      47.580   5.160  16.134  0.00  0.00    +0.000 N 
ATOM      9  O   UNL     1      48.883   6.262  14.675  0.00  0.00    +0.000 OA
ATOM     10  H   UNL     1      46.773   4.619  16.398  0.00  0.00    +0.000 HD
ATOM     11  H   UNL     1      48.223   5.428  16.865  0.00  0.00    +0.000 HD
ENDBRANCH   3   7
BRANCH   1  13
ATOM     12  C   UNL     1      44.650   8.075  11.422  0.00  0.00    +0.000 C 
ATOM     13  O   UNL     1      45.316   6.933  10.886  0.00  0.00    +0.000 OA
ENDBRANCH   1  13
BRANCH   6  14
ATOM     14  O   UNL     1      44.265   4.487  10.633  0.00  0.00    +0.000 OA
BRANCH  14  15
ATOM     15  C   UNL     1      44.157   3.135  10.176  0.00  0.00    +0.000 C 
BRANCH  15  16
ATOM     16  C   UNL     1      45.021   2.865   8.973  0.00  0.00    +0.000 A 
ATOM     17  C   UNL     1      45.657   1.643   8.754  0.00  0.00    +0.000 A 
ATOM     18  C   UNL     1      46.529   1.504   7.676  0.00  0.00    +0.000 A 
ATOM     19  C   UNL     1      46.735   2.604   6.863  0.00  0.00    +0.000 A 
ATOM     20 CL   UNL     1      47.823   2.529   5.539  0.00  0.00    +0.000 Cl
ATOM     21  N   UNL     1      46.144   3.805   7.033  0.00  0.00    +0.000 NA
ATOM     22  C   UNL     1      45.303   3.906   8.086  0.00  0.00    +0.000 A 
ENDBRANCH  15  16
ENDBRANCH  14  15
ENDBRANCH   6  14
TORSDOF 5
ENDMDL
MODEL 3
REMARK VINA RESULT:    -7.001      3.100      6.453
REMARK INTER + INTRA:          -9.537
REMARK INTER:                  -8.891
REMARK INTRA:                  -0.645
REMARK UNBOUND:                -0.489
REMARK  Name = 
REMARK  6 active torsions:
REMARK  status: ('A' for Active; 'I' for Inactive)
REMARK    1  A    between atoms: C_1  and  O_2
REMARK    2  A    between atoms: O_2  and  C_3
REMARK    3  A    between atoms: C_5  and  C_6
REMARK    4  A    between atoms: C_11  and  O_12
REMARK    5  A    between atoms: O_12  and  C_13
REMARK    6  A    between atoms: C_13  and  C_14
REMARK                            x       y       z     vdW  Elec       q    Type
REMARK                         _______ _______ _______ _____ _____    ______ ____
ROOT
ATOM      1  C   UNL     1      44.219   3.203  10.021  0.00  0.00    +0.000 A 
ATOM      2  C   UNL     1      44.871   2.193   9.302  0.00  0.00    +0.000 A 
ATOM      3  C   UNL     1      45.871   2.499   8.366  0.00  0.00    +0.000 A 
ATOM      4  C   UNL     1      46.229   3.833   8.163  0.00  0.00    +0.000 A 
ATOM      5  C   UNL     1      45.580   4.846   8.871  0.00  0.00    +0.000 A 
ATOM      6  C   UNL     1      44.550   4.547   9.772  0.00  0.00    +0.000 A 
ENDROOT
BRANCH   3   7
ATOM      7  C   UNL     1      46.505   1.370   7.629  0.00  0.00    +0.000 C 
ATOM      8  N   UNL     1      47.155   1.632   6.457  0.00  0.00    +0.000 N 
ATOM      9  O   UNL     1      46.449   0.221   8.054  0.00  0.00    +0.000 OA
ATOM     10  H   UNL     1      47.243   2.535   6.021  0.00  0.00    +0.000 HD
ATOM     11  H   UNL     1      47.569   0.841   5.983  0.00  0.00    +0.000 HD
ENDBRANCH   3   7
BRANCH   1  13
ATOM     12  C   UNL     1      43.557   2.065  12.003  0.00  0.00    +0.000 C 
ATOM     13  O   UNL     1      43.228   2.960  10.942  0.00  0.00    +0.000 OA
ENDBRANCH   1  13
BRANCH   6  14
ATOM     14  O   UNL     1      43.842   5.516  10.447  0.00  0.00    +0.000 OA
BRANCH  14  15
ATOM     15  C   UNL     1      44.639   6.514  11.092  0.00  0.00    +0.000 C 
BRANCH  15  16
ATOM     16  C   UNL     1      45.424   5.961  12.251  0.00  0.00    +0.000 A 
ATOM     17  C   UNL     1      46.797   6.156  12.400  0.00  0.00    +0.000 A 
ATOM     18  C   UNL     1      47.474   5.521  13.438  0.00  0.00    +0.000 A 
ATOM     19  C   UNL     1      46.744   4.706  14.286  0.00  0.00    +0.000 A 
ATOM     20 CL   UNL     1      47.508   3.857  15.565  0.00  0.00    +0.000 Cl
ATOM     21  N   UNL     1      45.417   4.487  14.184  0.00  0.00    +0.000 NA
ATOM     22  C   UNL     1      44.790   5.118  13.166  0.00  0.00    +0.000 A 
ENDBRANCH  15  16
ENDBRANCH  14  15
ENDBRANCH   6  14
TORSDOF 5
ENDMDL
MODEL 4
REMARK VINA RESULT:    -6.721      2.903      6.254
REMARK INTER + INTRA:          -9.175
REMARK INTER:                  -9.188
REMARK INTRA:                   0.014
REMARK UNBOUND:                -0.489
REMARK  Name = 
REMARK  6 active torsions:
REMARK  status: ('A' for Active; 'I' for Inactive)
REMARK    1  A    between atoms: C_1  and  O_2
REMARK    2  A    between atoms: O_2  and  C_3
REMARK    3  A    between atoms: C_5  and  C_6
REMARK    4  A    between atoms: C_11  and  O_12
REMARK    5  A    between atoms: O_12  and  C_13
REMARK    6  A    between atoms: C_13  and  C_14
REMARK                            x       y       z     vdW  Elec       q    Type
REMARK                         _______ _______ _______ _____ _____    ______ ____
ROOT
ATOM      1  C   UNL     1      44.162   2.966   9.935  0.00  0.00    +0.000 A 
ATOM      2  C   UNL     1      44.969   2.003   9.315  0.00  0.00    +0.000 A 
ATOM      3  C   UNL     1      45.955   2.371   8.388  0.00  0.00    +0.000 A 
ATOM      4  C   UNL     1      46.144   3.722   8.094  0.00  0.00    +0.000 A 
ATOM      5  C   UNL     1      45.341   4.689   8.702  0.00  0.00    +0.000 A 
ATOM      6  C   UNL     1      44.325   4.321   9.593  0.00  0.00    +0.000 A 
ENDROOT
BRANCH   3   7
ATOM      7  C   UNL     1      46.760   1.286   7.759  0.00  0.00    +0.000 C 
ATOM      8  N   UNL     1      47.822   1.627   6.972  0.00  0.00    +0.000 N 
ATOM      9  O   UNL     1      46.483   0.104   7.935  0.00  0.00    +0.000 OA
ATOM     10  H   UNL     1      48.119   2.565   6.756  0.00  0.00    +0.000 HD
ATOM     11  H   UNL     1      48.341   0.865   6.559  0.00  0.00    +0.000 HD
ENDBRANCH   3   7
BRANCH   1  13
ATOM     12  C   UNL     1      43.615   2.207  12.122  0.00  0.00    +0.000 C 
ATOM     13  O   UNL     1      43.177   2.662  10.843  0.00  0.00    +0.000 OA
ENDBRANCH   1  13
BRANCH   6  14
ATOM     14  O   UNL     1      43.470   5.233  10.170  0.00  0.00    +0.000 OA
BRANCH  14  15
ATOM     15  C   UNL     1      43.612   5.389  11.585  0.00  0.00    +0.000 C 
BRANCH  15  16
ATOM     16  C   UNL     1      44.973   5.904  11.971  0.00  0.00    +0.000 A 
ATOM     17  C   UNL     1      45.475   7.129  11.530  0.00  0.00    +0.000 A 
ATOM     18  C   UNL     1      46.785   7.487  11.838  0.00  0.00    +0.000 A 
ATOM     19  C   UNL     1      47.546   6.595  12.573  0.00  0.00    +0.000 A 
ATOM     20 CL   UNL     1      49.180   6.943  12.961  0.00  0.00    +0.000 Cl
ATOM     21  N   UNL     1      47.107   5.402  13.023  0.00  0.00    +0.000 NA
ATOM     22  C   UNL     1      45.831   5.085  12.707  0.00  0.00    +0.000 A 
ENDBRANCH  15  16
ENDBRANCH  14  15
ENDBRANCH   6  14
TORSDOF 5
ENDMDL
MODEL 5
REMARK VINA RESULT:    -6.211      4.137      7.197
REMARK INTER + INTRA:          -8.515
REMARK INTER:                  -8.031
REMARK INTRA:                  -0.484
REMARK UNBOUND:                -0.489
REMARK  Name = 
REMARK  6 active torsions:
REMARK  status: ('A' for Active; 'I' for Inactive)
REMARK    1  A    between atoms: C_1  and  O_2
REMARK    2  A    between atoms: O_2  and  C_3
REMARK    3  A    between atoms: C_5  and  C_6
REMARK    4  A    between atoms: C_11  and  O_12
REMARK    5  A    between atoms: O_12  and  C_13
REMARK    6  A    between atoms: C_13  and  C_14
REMARK                            x       y       z     vdW  Elec       q    Type
REMARK                         _______ _______ _______ _____ _____    ______ ____
ROOT
ATOM      1  C   UNL     1      46.370   5.968  13.045  0.00  0.00    +0.000 A 
ATOM      2  C   UNL     1      45.514   5.678  11.974  0.00  0.00    +0.000 A 
ATOM      3  C   UNL     1      45.137   4.358  11.684  0.00  0.00    +0.000 A 
ATOM      4  C   UNL     1      45.612   3.321  12.489  0.00  0.00    +0.000 A 
ATOM      5  C   UNL     1      46.469   3.600  13.555  0.00  0.00    +0.000 A 
ATOM      6  C   UNL     1      46.884   4.911  13.819  0.00  0.00    +0.000 A 
ENDROOT
BRANCH   3   7
ATOM      7  C   UNL     1      44.239   4.130  10.518  0.00  0.00    +0.000 C 
ATOM      8  N   UNL     1      44.461   4.833   9.369  0.00  0.00    +0.000 N 
ATOM      9  O   UNL     1      43.310   3.331  10.576  0.00  0.00    +0.000 OA
ATOM     10  H   UNL     1      45.184   5.520   9.229  0.00  0.00    +0.000 HD
ATOM     11  H   UNL     1      43.828   4.656   8.601  0.00  0.00    +0.000 HD
ENDBRANCH   3   7
BRANCH   1  13
ATOM     12  C   UNL     1      47.397   7.990  12.327  0.00  0.00    +0.000 C 
ATOM     13  O   UNL     1      46.777   7.240  13.369  0.00  0.00    +0.000 OA
ENDBRANCH   1  13
BRANCH   6  14
ATOM     14  O   UNL     1      47.775   5.227  14.820  0.00  0.00    +0.000 OA
BRANCH  14  15
ATOM     15  C   UNL     1      47.487   4.647  16.096  0.00  0.00    +0.000 C 
BRANCH  15  16
ATOM     16  C   UNL     1      48.602   3.766  16.591  0.00  0.00    +0.000 A 
ATOM     17  C   UNL     1      49.632   4.232  17.409  0.00  0.00    +0.000 A 
ATOM     18  C   UNL     1      50.689   3.385  17.736  0.00  0.00    +0.000 A 
ATOM     19  C   UNL     1      50.674   2.101  17.221  0.00  0.00    +0.000 A 
ATOM     20 CL   UNL     1      51.956   1.008  17.543  0.00  0.00    +0.000 Cl
ATOM     21  N   UNL     1      49.702   1.604  16.428  0.00  0.00    +0.000 NA
ATOM     22  C   UNL     1      48.691   2.451  16.130  0.00  0.00    +0.000 A 
ENDBRANCH  15  16
ENDBRANCH  14  15
ENDBRANCH   6  14
TORSDOF 5
ENDMDL
MODEL 6
REMARK VINA RESULT:    -6.144      1.888      2.727
REMARK INTER + INTRA:          -8.429
REMARK INTER:                  -8.067
REMARK INTRA:                  -0.361
REMARK UNBOUND:                -0.489
REMARK  Name = 
REMARK  6 active torsions:
REMARK  status: ('A' for Active; 'I' for Inactive)
REMARK    1  A    between atoms: C_1  and  O_2
REMARK    2  A    between atoms: O_2  and  C_3
REMARK    3  A    between atoms: C_5  and  C_6
REMARK    4  A    between atoms: C_11  and  O_12
REMARK    5  A    between atoms: O_12  and  C_13
REMARK    6  A    between atoms: C_13  and  C_14
REMARK                            x       y       z     vdW  Elec       q    Type
REMARK                         _______ _______ _______ _____ _____    ______ ____
ROOT
ATOM      1  C   UNL     1      45.575   4.432  12.428  0.00  0.00    +0.000 A 
ATOM      2  C   UNL     1      46.394   4.582  13.555  0.00  0.00    +0.000 A 
ATOM      3  C   UNL     1      47.132   5.757  13.763  0.00  0.00    +0.000 A 
ATOM      4  C   UNL     1      47.032   6.797  12.839  0.00  0.00    +0.000 A 
ATOM      5  C   UNL     1      46.222   6.656  11.711  0.00  0.00    +0.000 A 
ATOM      6  C   UNL     1      45.521   5.467  11.476  0.00  0.00    +0.000 A 
ENDROOT
BRANCH   3   7
ATOM      7  C   UNL     1      47.994   5.831  14.976  0.00  0.00    +0.000 C 
ATOM      8  N   UNL     1      48.542   7.034  15.320  0.00  0.00    +0.000 N 
ATOM      9  O   UNL     1      48.218   4.839  15.661  0.00  0.00    +0.000 OA
ATOM     10  H   UNL     1      48.430   7.898  14.817  0.00  0.00    +0.000 HD
ATOM     11  H   UNL     1      49.125   7.045  16.146  0.00  0.00    +0.000 HD
ENDBRANCH   3   7
BRANCH   1  13
ATOM     12  C   UNL     1      43.472   3.330  12.582  0.00  0.00    +0.000 C 
ATOM     13  O   UNL     1      44.837   3.302  12.170  0.00  0.00    +0.000 OA
ENDBRANCH   1  13
BRANCH   6  14
ATOM     14  O   UNL     1      44.758   5.258  10.348  0.00  0.00    +0.000 OA
BRANCH  14  15
ATOM     15  C   UNL     1      45.491   5.207   9.120  0.00  0.00    +0.000 C 
BRANCH  15  16
ATOM     16  C   UNL     1      45.694   3.798   8.631  0.00  0.00    +0.000 A 
ATOM     17  C   UNL     1      44.968   2.712   9.123  0.00  0.00    +0.000 A 
ATOM     18  C   UNL     1      45.289   1.423   8.703  0.00  0.00    +0.000 A 
ATOM     19  C   UNL     1      46.333   1.273   7.808  0.00  0.00    +0.000 A 
ATOM     20 CL   UNL     1      46.816  -0.282   7.271  0.00  0.00    +0.000 Cl
ATOM     21  N   UNL     1      47.063   2.290   7.304  0.00  0.00    +0.000 NA
ATOM     22  C   UNL     1      46.726   3.528   7.731  0.00  0.00    +0.000 A 
ENDBRANCH  15  16
ENDBRANCH  14  15
ENDBRANCH   6  14
TORSDOF 5
ENDMDL
MODEL 7
REMARK VINA RESULT:    -5.952      2.045      2.503
REMARK INTER + INTRA:          -8.181
REMARK INTER:                  -7.532
REMARK INTRA:                  -0.649
REMARK UNBOUND:                -0.489
REMARK  Name = 
REMARK  6 active torsions:
REMARK  status: ('A' for Active; 'I' for Inactive)
REMARK    1  A    between atoms: C_1  and  O_2
REMARK    2  A    between atoms: O_2  and  C_3
REMARK    3  A    between atoms: C_5  and  C_6
REMARK    4  A    between atoms: C_11  and  O_12
REMARK    5  A    between atoms: O_12  and  C_13
REMARK    6  A    between atoms: C_13  and  C_14
REMARK                            x       y       z     vdW  Elec       q    Type
REMARK                         _______ _______ _______ _____ _____    ______ ____
ROOT
ATOM      1  C   UNL     1      46.861   5.364  13.239  0.00  0.00    +0.000 A 
ATOM      2  C   UNL     1      48.004   6.175  13.214  0.00  0.00    +0.000 A 
ATOM      3  C   UNL     1      47.970   7.458  12.649  0.00  0.00    +0.000 A 
ATOM      4  C   UNL     1      46.773   7.938  12.118  0.00  0.00    +0.000 A 
ATOM      5  C   UNL     1      45.630   7.137  12.133  0.00  0.00    +0.000 A 
ATOM      6  C   UNL     1      45.671   5.837  12.655  0.00  0.00    +0.000 A 
ENDROOT
BRANCH   3   7
ATOM      7  C   UNL     1      49.232   8.250  12.646  0.00  0.00    +0.000 C 
ATOM      8  N   UNL     1      50.424   7.590  12.730  0.00  0.00    +0.000 N 
ATOM      9  O   UNL     1      49.216   9.475  12.572  0.00  0.00    +0.000 OA
ATOM     10  H   UNL     1      50.541   6.593  12.809  0.00  0.00    +0.000 HD
ATOM     11  H   UNL     1      51.258   8.160  12.730  0.00  0.00    +0.000 HD
ENDBRANCH   3   7
BRANCH   1  13
ATOM     12  C   UNL     1      47.061   4.000  15.178  0.00  0.00    +0.000 C 
ATOM     13  O   UNL     1      46.838   4.098  13.772  0.00  0.00    +0.000 OA
ENDBRANCH   1  13
BRANCH   6  14
ATOM     14  O   UNL     1      44.587   4.989  12.636  0.00  0.00    +0.000 OA
BRANCH  14  15
ATOM     15  C   UNL     1      43.868   4.947  11.400  0.00  0.00    +0.000 C 
BRANCH  15  16
ATOM     16  C   UNL     1      44.642   4.257  10.309  0.00  0.00    +0.000 A 
ATOM     17  C   UNL     1      45.302   4.948   9.292  0.00  0.00    +0.000 A 
ATOM     18  C   UNL     1      45.904   4.238   8.256  0.00  0.00    +0.000 A 
ATOM     19  C   UNL     1      45.814   2.857   8.277  0.00  0.00    +0.000 A 
ATOM     20 CL   UNL     1      46.494   1.911   7.018  0.00  0.00    +0.000 Cl
ATOM     21  N   UNL     1      45.189   2.145   9.237  0.00  0.00    +0.000 NA
ATOM     22  C   UNL     1      44.616   2.864  10.228  0.00  0.00    +0.000 A 
ENDBRANCH  15  16
ENDBRANCH  14  15
ENDBRANCH   6  14
TORSDOF 5
ENDMDL
MODEL 8
REMARK VINA RESULT:    -5.922      4.435      6.858
REMARK INTER + INTRA:          -8.142
REMARK INTER:                  -7.625
REMARK INTRA:                  -0.517
REMARK UNBOUND:                -0.489
REMARK  Name = 
REMARK  6 active torsions:
REMARK  status: ('A' for Active; 'I' for Inactive)
REMARK    1  A    between atoms: C_1  and  O_2
REMARK    2  A    between atoms: O_2  and  C_3
REMARK    3  A    between atoms: C_5  and  C_6
REMARK    4  A    between atoms: C_11  and  O_12
REMARK    5  A    between atoms: O_12  and  C_13
REMARK    6  A    between atoms: C_13  and  C_14
REMARK                            x       y       z     vdW  Elec       q    Type
REMARK                         _______ _______ _______ _____ _____    ______ ____
ROOT
ATOM      1  C   UNL     1      45.501   4.428  13.021  0.00  0.00    +0.000 A 
ATOM      2  C   UNL     1      44.933   5.529  12.367  0.00  0.00    +0.000 A 
ATOM      3  C   UNL     1      45.533   6.796  12.426  0.00  0.00    +0.000 A 
ATOM      4  C   UNL     1      46.724   6.954  13.136  0.00  0.00    +0.000 A 
ATOM      5  C   UNL     1      47.294   5.864  13.796  0.00  0.00    +0.000 A 
ATOM      6  C   UNL     1      46.674   4.609  13.778  0.00  0.00    +0.000 A 
ENDROOT
BRANCH   3   7
ATOM      7  C   UNL     1      44.858   7.920  11.719  0.00  0.00    +0.000 C 
ATOM      8  N   UNL     1      43.661   7.687  11.105  0.00  0.00    +0.000 N 
ATOM      9  O   UNL     1      45.358   9.039  11.677  0.00  0.00    +0.000 OA
ATOM     10  H   UNL     1      43.179   6.803  11.070  0.00  0.00    +0.000 HD
ATOM     11  H   UNL     1      43.235   8.471  10.631  0.00  0.00    +0.000 HD
ENDBRANCH   3   7
BRANCH   1  13
ATOM     12  C   UNL     1      43.725   3.022  12.292  0.00  0.00    +0.000 C 
ATOM     13  O   UNL     1      44.953   3.168  13.003  0.00  0.00    +0.000 OA
ENDBRANCH   1  13
BRANCH   6  14
ATOM     14  O   UNL     1      47.166   3.520  14.462  0.00  0.00    +0.000 OA
BRANCH  14  15
ATOM     15  C   UNL     1      47.165   3.647  15.888  0.00  0.00    +0.000 C 
BRANCH  15  16
ATOM     16  C   UNL     1      48.541   3.494  16.478  0.00  0.00    +0.000 A 
ATOM     17  C   UNL     1      49.172   2.258  16.622  0.00  0.00    +0.000 A 
ATOM     18  C   UNL     1      50.399   2.184  17.279  0.00  0.00    +0.000 A 
ATOM     19  C   UNL     1      50.942   3.357  17.774  0.00  0.00    +0.000 A 
ATOM     20 CL   UNL     1      52.429   3.346  18.628  0.00  0.00    +0.000 Cl
ATOM     21  N   UNL     1      50.371   4.574  17.659  0.00  0.00    +0.000 NA
ATOM     22  C   UNL     1      49.182   4.611  17.017  0.00  0.00    +0.000 A 
ENDBRANCH  15  16
ENDBRANCH  14  15
ENDBRANCH   6  14
TORSDOF 5
ENDMDL
MODEL 9
REMARK VINA RESULT:    -5.719      3.872      7.411
REMARK INTER + INTRA:          -7.880
REMARK INTER:                  -7.369
REMARK INTRA:                  -0.511
REMARK UNBOUND:                -0.489
REMARK  Name = 
REMARK  6 active torsions:
REMARK  status: ('A' for Active; 'I' for Inactive)
REMARK    1  A    between atoms: C_1  and  O_2
REMARK    2  A    between atoms: O_2  and  C_3
REMARK    3  A    between atoms: C_5  and  C_6
REMARK    4  A    between atoms: C_11  and  O_12
REMARK    5  A    between atoms: O_12  and  C_13
REMARK    6  A    between atoms: C_13  and  C_14
REMARK                            x       y       z     vdW  Elec       q    Type
REMARK                         _______ _______ _______ _____ _____    ______ ____
ROOT
ATOM      1  C   UNL     1      45.584   5.757  11.454  0.00  0.00    +0.000 A 
ATOM      2  C   UNL     1      45.216   5.037  10.309  0.00  0.00    +0.000 A 
ATOM      3  C   UNL     1      44.930   3.665  10.378  0.00  0.00    +0.000 A 
ATOM      4  C   UNL     1      44.998   3.015  11.610  0.00  0.00    +0.000 A 
ATOM      5  C   UNL     1      45.368   3.723  12.755  0.00  0.00    +0.000 A 
ATOM      6  C   UNL     1      45.700   5.082  12.683  0.00  0.00    +0.000 A 
ENDROOT
BRANCH   3   7
ATOM      7  C   UNL     1      44.564   2.966   9.113  0.00  0.00    +0.000 C 
ATOM      8  N   UNL     1      44.206   3.714   8.029  0.00  0.00    +0.000 N 
ATOM      9  O   UNL     1      44.577   1.742   9.035  0.00  0.00    +0.000 OA
ATOM     10  H   UNL     1      44.151   4.719   7.998  0.00  0.00    +0.000 HD
ATOM     11  H   UNL     1      43.960   3.206   7.191  0.00  0.00    +0.000 HD
ENDBRANCH   3   7
BRANCH   1  13
ATOM     12  C   UNL     1      44.771   7.994  11.470  0.00  0.00    +0.000 C 
ATOM     13  O   UNL     1      45.882   7.099  11.444  0.00  0.00    +0.000 OA
ENDBRANCH   1  13
BRANCH   6  14
ATOM     14  O   UNL     1      46.128   5.807  13.772  0.00  0.00    +0.000 OA
BRANCH  14  15
ATOM     15  C   UNL     1      47.534   5.738  14.033  0.00  0.00    +0.000 C 
BRANCH  15  16
ATOM     16  C   UNL     1      47.835   5.243  15.423  0.00  0.00    +0.000 A 
ATOM     17  C   UNL     1      47.213   4.126  15.982  0.00  0.00    +0.000 A 
ATOM     18  C   UNL     1      47.461   3.794  17.312  0.00  0.00    +0.000 A 
ATOM     19  C   UNL     1      48.320   4.604  18.034  0.00  0.00    +0.000 A 
ATOM     20 CL   UNL     1      48.648   4.288  19.687  0.00  0.00    +0.000 Cl
ATOM     21  N   UNL     1      48.945   5.692  17.538  0.00  0.00    +0.000 NA
ATOM     22  C   UNL     1      48.684   5.986  16.245  0.00  0.00    +0.000 A 
ENDBRANCH  15  16
ENDBRANCH  14  15
ENDBRANCH   6  14
TORSDOF 5
ENDMDL
