MODEL 1
REMARK VINA RESULT:    -7.479      0.000      0.000
REMARK INTER + INTRA:         -11.934
REMARK INTER:                 -10.539
REMARK INTRA:                  -1.395
REMARK UNBOUND:                -1.395
REMARK  Name = 
REMARK  10 active torsions:
REMARK  status: ('A' for Active; 'I' for Inactive)
REMARK    1  A    between atoms: C_1  and  O_2
REMARK    2  A    between atoms: O_2  and  C_3
REMARK    3  A    between atoms: C_5  and  N_6
REMARK    4  A    between atoms: N_6  and  C_7
REMARK    5  A    between atoms: C_7  and  C_8
REMARK    6  A    between atoms: C_8  and  C_9
REMARK    7  A    between atoms: C_8  and  C_10
REMARK    8  A    between atoms: C_8  and  C_11
REMARK    9  A    between atoms: C_15  and  C_16
REMARK   10  A    between atoms: C_21  and  C_22
REMARK                            x       y       z     vdW  Elec       q    Type
REMARK                         _______ _______ _______ _____ _____    ______ ____
ROOT
ATOM      1  N   UNL     1      43.590   3.088  10.135  0.00  0.00    +0.000 N 
ATOM      2  H   UNL     1      42.881   3.730   9.791  0.00  0.00    +0.000 HD
ENDROOT
BRANCH   1   5
ATOM      3  C   UNL     1      46.360   1.651   8.057  0.00  0.00    +0.000 A 
ATOM      4  C   UNL     1      45.384   1.795   9.054  0.00  0.00    +0.000 A 
ATOM      5  C   UNL     1      44.665   2.985   9.235  0.00  0.00    +0.000 A 
ATOM      6  C   UNL     1      44.951   4.050   8.381  0.00  0.00    +0.000 A 
ATOM      7  C   UNL     1      45.930   3.933   7.386  0.00  0.00    +0.000 A 
ATOM      8  C   UNL     1      46.631   2.727   7.201  0.00  0.00    +0.000 A 
BRANCH   8   9
ATOM      9  C   UNL     1      47.584   2.666   6.048  0.00  0.00    +0.000 C 
ATOM     10  N   UNL     1      48.895   2.393   6.311  0.00  0.00    +0.000 N 
ATOM     11  O   UNL     1      47.211   2.834   4.892  0.00  0.00    +0.000 OA
ATOM     12  H   UNL     1      49.231   2.302   7.263  0.00  0.00    +0.000 HD
ATOM     13  H   UNL     1      49.553   2.359   5.546  0.00  0.00    +0.000 HD
ENDBRANCH   8   9
BRANCH   3  15
ATOM     14  C   UNL     1      46.405  -0.651   7.437  0.00  0.00    +0.000 C 
ATOM     15  O   UNL     1      47.092   0.493   7.928  0.00  0.00    +0.000 OA
ENDBRANCH   3  15
ENDBRANCH   1   5
BRANCH   1  16
ATOM     16  C   UNL     1      43.910   3.255  11.559  0.00  0.00    +0.000 C 
BRANCH  16  17
ATOM     17  C   UNL     1      43.833   4.724  12.077  0.00  0.00    +0.000 C 
ATOM     18  C   UNL     1      43.049   5.582  11.058  0.00  0.00    +0.000 C 
ATOM     19  C   UNL     1      43.097   4.727  13.436  0.00  0.00    +0.000 C 
BRANCH  17  20
ATOM     20  C   UNL     1      45.246   5.343  12.251  0.00  0.00    +0.000 A 
ATOM     21  C   UNL     1      45.837   6.187  11.290  0.00  0.00    +0.000 A 
ATOM     22  C   UNL     1      47.081   6.790  11.506  0.00  0.00    +0.000 A 
ATOM     23  C   UNL     1      47.768   6.569  12.695  0.00  0.00    +0.000 A 
ATOM     24  C   UNL     1      47.218   5.726  13.662  0.00  0.00    +0.000 A 
ATOM     25  C   UNL     1      45.979   5.110  13.432  0.00  0.00    +0.000 A 
BRANCH  24  26
ATOM     26  C   UNL     1      47.902   5.517  14.900  0.00  0.00    +0.000 C 
ATOM     27  N   UNL     1      48.467   5.342  15.902  0.00  0.00    +0.000 NA
ENDBRANCH  24  26
ENDBRANCH  17  20
ENDBRANCH  16  17
ENDBRANCH   1  16
TORSDOF 7
ENDMDL
MODEL 2
REMARK VINA RESULT:    -7.128      3.274      6.568
REMARK INTER + INTRA:         -11.440
REMARK INTER:                 -10.087
REMARK INTRA:                  -1.352
REMARK UNBOUND:                -1.395
REMARK  Name = 
REMARK  10 active torsions:
REMARK  status: ('A' for Active; 'I' for Inactive)
REMARK    1  A    between atoms: C_1  and  O_2
REMARK    2  A    between atoms: O_2  and  C_3
REMARK    3  A    between atoms: C_5  and  N_6
REMARK    4  A    between atoms: N_6  and  C_7
REMARK    5  A    between atoms: C_7  and  C_8
REMARK    6  A    between atoms: C_8  and  C_9
REMARK    7  A    between atoms: C_8  and  C_10
REMARK    8  A    between atoms: C_8  and  C_11
REMARK    9  A    between atoms: C_15  and  C_16
REMARK   10  A    between atoms: C_21  and  C_22
REMARK                            x       y       z     vdW  Elec       q    Type
REMARK                         _______ _______ _______ _____ _____    ______ ____
ROOT
ATOM      1  N   UNL     1      44.992   5.196  13.081  0.00  0.00    +0.000 N 
ATOM      2  H   UNL     1      44.648   5.216  14.037  0.00  0.00    +0.000 HD
ENDROOT
BRANCH   1   5
ATOM      3  C   UNL     1      48.388   6.704  13.575  0.00  0.00    +0.000 A 
ATOM      4  C   UNL     1      47.207   5.986  13.808  0.00  0.00    +0.000 A 
ATOM      5  C   UNL     1      46.118   6.021  12.925  0.00  0.00    +0.000 A 
ATOM      6  C   UNL     1      46.240   6.808  11.779  0.00  0.00    +0.000 A 
ATOM      7  C   UNL     1      47.407   7.543  11.531  0.00  0.00    +0.000 A 
ATOM      8  C   UNL     1      48.500   7.484  12.415  0.00  0.00    +0.000 A 
BRANCH   8   9
ATOM      9  C   UNL     1      49.739   8.222  12.014  0.00  0.00    +0.000 C 
ATOM     10  N   UNL     1      50.942   7.602  12.186  0.00  0.00    +0.000 N 
ATOM     11  O   UNL     1      49.691   9.346  11.526  0.00  0.00    +0.000 OA
ATOM     12  H   UNL     1      51.005   6.695  12.634  0.00  0.00    +0.000 HD
ATOM     13  H   UNL     1      51.788   8.091  11.930  0.00  0.00    +0.000 HD
ENDBRANCH   8   9
BRANCH   3  15
ATOM     14  C   UNL     1      49.089   6.474  15.842  0.00  0.00    +0.000 C 
ATOM     15  O   UNL     1      49.426   6.699  14.479  0.00  0.00    +0.000 OA
ENDBRANCH   3  15
ENDBRANCH   1   5
BRANCH   1  16
ATOM     16  C   UNL     1      45.048   3.851  12.491  0.00  0.00    +0.000 C 
BRANCH  16  17
ATOM     17  C   UNL     1      44.072   3.622  11.297  0.00  0.00    +0.000 C 
ATOM     18  C   UNL     1      43.276   2.318  11.534  0.00  0.00    +0.000 C 
ATOM     19  C   UNL     1      43.098   4.820  11.223  0.00  0.00    +0.000 C 
BRANCH  17  20
ATOM     20  C   UNL     1      44.835   3.489   9.952  0.00  0.00    +0.000 A 
ATOM     21  C   UNL     1      45.208   4.600   9.168  0.00  0.00    +0.000 A 
ATOM     22  C   UNL     1      45.959   4.454   7.997  0.00  0.00    +0.000 A 
ATOM     23  C   UNL     1      46.363   3.192   7.578  0.00  0.00    +0.000 A 
ATOM     24  C   UNL     1      45.998   2.068   8.322  0.00  0.00    +0.000 A 
ATOM     25  C   UNL     1      45.229   2.218   9.486  0.00  0.00    +0.000 A 
BRANCH  24  26
ATOM     26  C   UNL     1      46.435   0.769   7.916  0.00  0.00    +0.000 C 
ATOM     27  N   UNL     1      46.800  -0.285   7.584  0.00  0.00    +0.000 NA
ENDBRANCH  24  26
ENDBRANCH  17  20
ENDBRANCH  16  17
ENDBRANCH   1  16
TORSDOF 7
ENDMDL
MODEL 3
REMARK VINA RESULT:    -6.971      3.828      6.918
REMARK INTER + INTRA:         -11.219
REMARK INTER:                  -9.889
REMARK INTRA:                  -1.330
REMARK UNBOUND:                -1.395
REMARK  Name = 
REMARK  10 active torsions:
REMARK  status: ('A' for Active; 'I' for Inactive)
REMARK    1  A    between atoms: C_1  and  O_2
REMARK    2  A    between atoms: O_2  and  C_3
REMARK    3  A    between atoms: C_5  and  N_6
REMARK    4  A    between atoms: N_6  and  C_7
REMARK    5  A    between atoms: C_7  and  C_8
REMARK    6  A    between atoms: C_8  and  C_9
REMARK    7  A    between atoms: C_8  and  C_10
REMARK    8  A    between atoms: C_8  and  C_11
REMARK    9  A    between atoms: C_15  and  C_16
REMARK   10  A    between atoms: C_21  and  C_22
REMARK                            x       y       z     vdW  Elec       q    Type
REMARK                         _______ _______ _______ _____ _____    ______ ____
ROOT
ATOM      1  N   UNL     1      44.838   5.592  13.017  0.00  0.00    +0.000 N 
ATOM      2  H   UNL     1      44.669   5.632  14.018  0.00  0.00    +0.000 HD
ENDROOT
BRANCH   1   5
ATOM      3  C   UNL     1      46.425   8.903  12.261  0.00  0.00    +0.000 A 
ATOM      4  C   UNL     1      45.458   7.921  12.520  0.00  0.00    +0.000 A 
ATOM      5  C   UNL     1      45.775   6.559  12.617  0.00  0.00    +0.000 A 
ATOM      6  C   UNL     1      47.110   6.193  12.443  0.00  0.00    +0.000 A 
ATOM      7  C   UNL     1      48.092   7.155  12.172  0.00  0.00    +0.000 A 
ATOM      8  C   UNL     1      47.764   8.520  12.097  0.00  0.00    +0.000 A 
BRANCH   8   9
ATOM      9  C   UNL     1      48.895   9.481  11.903  0.00  0.00    +0.000 C 
ATOM     10  N   UNL     1      48.723  10.509  11.023  0.00  0.00    +0.000 N 
ATOM     11  O   UNL     1      49.947   9.374  12.525  0.00  0.00    +0.000 OA
ATOM     12  H   UNL     1      47.882  10.585  10.463  0.00  0.00    +0.000 HD
ATOM     13  H   UNL     1      49.480  11.160  10.873  0.00  0.00    +0.000 HD
ENDBRANCH   8   9
BRANCH   3  15
ATOM     14  C   UNL     1      44.772  10.510  11.652  0.00  0.00    +0.000 C 
ATOM     15  O   UNL     1      46.086  10.229  12.117  0.00  0.00    +0.000 OA
ENDBRANCH   3  15
ENDBRANCH   1   5
BRANCH   1  16
ATOM     16  C   UNL     1      45.000   4.230  12.489  0.00  0.00    +0.000 C 
BRANCH  16  17
ATOM     17  C   UNL     1      44.049   3.872  11.306  0.00  0.00    +0.000 C 
ATOM     18  C   UNL     1      43.330   2.540  11.618  0.00  0.00    +0.000 C 
ATOM     19  C   UNL     1      43.007   5.003  11.155  0.00  0.00    +0.000 C 
BRANCH  17  20
ATOM     20  C   UNL     1      44.830   3.704   9.975  0.00  0.00    +0.000 A 
ATOM     21  C   UNL     1      45.257   4.796   9.192  0.00  0.00    +0.000 A 
ATOM     22  C   UNL     1      46.022   4.616   8.036  0.00  0.00    +0.000 A 
ATOM     23  C   UNL     1      46.388   3.338   7.630  0.00  0.00    +0.000 A 
ATOM     24  C   UNL     1      45.970   2.233   8.374  0.00  0.00    +0.000 A 
ATOM     25  C   UNL     1      45.187   2.417   9.523  0.00  0.00    +0.000 A 
BRANCH  24  26
ATOM     26  C   UNL     1      46.366   0.916   7.983  0.00  0.00    +0.000 C 
ATOM     27  N   UNL     1      46.690  -0.158   7.675  0.00  0.00    +0.000 NA
ENDBRANCH  24  26
ENDBRANCH  17  20
ENDBRANCH  16  17
ENDBRANCH   1  16
TORSDOF 7
ENDMDL
MODEL 4
REMARK VINA RESULT:    -6.773      1.849      2.571
REMARK INTER + INTRA:         -10.939
REMARK INTER:                  -9.843
REMARK INTRA:                  -1.096
REMARK UNBOUND:                -1.395
REMARK  Name = 
REMARK  10 active torsions:
REMARK  status: ('A' for Active; 'I' for Inactive)
REMARK    1  A    between atoms: C_1  and  O_2
REMARK    2  A    between atoms: O_2  and  C_3
REMARK    3  A    between atoms: C_5  and  N_6
REMARK    4  A    between atoms: N_6  and  C_7
REMARK    5  A    between atoms: C_7  and  C_8
REMARK    6  A    between atoms: C_8  and  C_9
REMARK    7  A    between atoms: C_8  and  C_10
REMARK    8  A    between atoms: C_8  and  C_11
REMARK    9  A    between atoms: C_15  and  C_16
REMARK   10  A    between atoms: C_21  and  C_22
REMARK                            x       y       z     vdW  Elec       q    Type
REMARK                         _______ _______ _______ _____ _____    ______ ____
ROOT
ATOM      1  N   UNL     1      43.869   2.830  10.280  0.00  0.00    +0.000 N 
ATOM      2  H   UNL     1      43.067   2.278   9.987  0.00  0.00    +0.000 HD
ENDROOT
BRANCH   1   5
ATOM      3  C   UNL     1      46.456   1.616   7.854  0.00  0.00    +0.000 A 
ATOM      4  C   UNL     1      45.552   1.651   8.925  0.00  0.00    +0.000 A 
ATOM      5  C   UNL     1      44.879   2.821   9.303  0.00  0.00    +0.000 A 
ATOM      6  C   UNL     1      45.137   3.981   8.571  0.00  0.00    +0.000 A 
ATOM      7  C   UNL     1      46.045   3.972   7.504  0.00  0.00    +0.000 A 
ATOM      8  C   UNL     1      46.699   2.787   7.122  0.00  0.00    +0.000 A 
BRANCH   8   9
ATOM      9  C   UNL     1      47.573   2.854   5.908  0.00  0.00    +0.000 C 
ATOM     10  N   UNL     1      48.917   2.686   6.073  0.00  0.00    +0.000 N 
ATOM     11  O   UNL     1      47.109   3.036   4.788  0.00  0.00    +0.000 OA
ATOM     12  H   UNL     1      49.324   2.586   6.995  0.00  0.00    +0.000 HD
ATOM     13  H   UNL     1      49.521   2.739   5.266  0.00  0.00    +0.000 HD
ENDBRANCH   8   9
BRANCH   3  15
ATOM     14  C   UNL     1      46.397  -0.736   7.466  0.00  0.00    +0.000 C 
ATOM     15  O   UNL     1      47.147   0.471   7.531  0.00  0.00    +0.000 OA
ENDBRANCH   3  15
ENDBRANCH   1   5
BRANCH   1  16
ATOM     16  C   UNL     1      43.520   4.123  10.885  0.00  0.00    +0.000 C 
BRANCH  16  17
ATOM     17  C   UNL     1      44.232   4.421  12.240  0.00  0.00    +0.000 C 
ATOM     18  C   UNL     1      43.171   4.534  13.358  0.00  0.00    +0.000 C 
ATOM     19  C   UNL     1      45.197   3.255  12.554  0.00  0.00    +0.000 C 
BRANCH  17  20
ATOM     20  C   UNL     1      45.027   5.753  12.187  0.00  0.00    +0.000 A 
ATOM     21  C   UNL     1      46.408   5.835  12.459  0.00  0.00    +0.000 A 
ATOM     22  C   UNL     1      47.112   7.036  12.332  0.00  0.00    +0.000 A 
ATOM     23  C   UNL     1      46.457   8.192  11.924  0.00  0.00    +0.000 A 
ATOM     24  C   UNL     1      45.086   8.150  11.660  0.00  0.00    +0.000 A 
ATOM     25  C   UNL     1      44.381   6.947  11.806  0.00  0.00    +0.000 A 
BRANCH  24  26
ATOM     26  C   UNL     1      44.409   9.326  11.209  0.00  0.00    +0.000 C 
ATOM     27  N   UNL     1      43.859  10.279  10.832  0.00  0.00    +0.000 NA
ENDBRANCH  24  26
ENDBRANCH  17  20
ENDBRANCH  16  17
ENDBRANCH   1  16
TORSDOF 7
ENDMDL
MODEL 5
REMARK VINA RESULT:    -6.416      3.527      7.481
REMARK INTER + INTRA:         -10.436
REMARK INTER:                  -9.373
REMARK INTRA:                  -1.063
REMARK UNBOUND:                -1.395
REMARK  Name = 
REMARK  10 active torsions:
REMARK  status: ('A' for Active; 'I' for Inactive)
REMARK    1  A    between atoms: C_1  and  O_2
REMARK    2  A    between atoms: O_2  and  C_3
REMARK    3  A    between atoms: C_5  and  N_6
REMARK    4  A    between atoms: N_6  and  C_7
REMARK    5  A    between atoms: C_7  and  C_8
REMARK    6  A    between atoms: C_8  and  C_9
REMARK    7  A    between atoms: C_8  and  C_10
REMARK    8  A    between atoms: C_8  and  C_11
REMARK    9  A    between atoms: C_15  and  C_16
REMARK   10  A    between atoms: C_21  and  C_22
REMARK                            x       y       z     vdW  Elec       q    Type
REMARK                         _______ _______ _______ _____ _____    ______ ____
ROOT
ATOM      1  N   UNL     1      45.534   4.084  13.790  0.00  0.00    +0.000 N 
ATOM      2  H   UNL     1      45.057   3.529  14.496  0.00  0.00    +0.000 HD
ENDROOT
BRANCH   1   5
ATOM      3  C   UNL     1      48.306   6.558  14.290  0.00  0.00    +0.000 A 
ATOM      4  C   UNL     1      47.276   5.820  13.689  0.00  0.00    +0.000 A 
ATOM      5  C   UNL     1      46.658   4.735  14.326  0.00  0.00    +0.000 A 
ATOM      6  C   UNL     1      47.103   4.396  15.605  0.00  0.00    +0.000 A 
ATOM      7  C   UNL     1      48.138   5.113  16.220  0.00  0.00    +0.000 A 
ATOM      8  C   UNL     1      48.737   6.212  15.578  0.00  0.00    +0.000 A 
BRANCH   8   9
ATOM      9  C   UNL     1      49.763   6.976  16.355  0.00  0.00    +0.000 C 
ATOM     10  N   UNL     1      50.995   7.153  15.795  0.00  0.00    +0.000 N 
ATOM     11  O   UNL     1      49.515   7.452  17.458  0.00  0.00    +0.000 OA
ATOM     12  H   UNL     1      51.234   6.724  14.909  0.00  0.00    +0.000 HD
ATOM     13  H   UNL     1      51.701   7.657  16.310  0.00  0.00    +0.000 HD
ENDBRANCH   8   9
BRANCH   3  15
ATOM     14  C   UNL     1      48.966   7.515  12.208  0.00  0.00    +0.000 C 
ATOM     15  O   UNL     1      48.936   7.587  13.628  0.00  0.00    +0.000 OA
ENDBRANCH   3  15
ENDBRANCH   1   5
BRANCH   1  16
ATOM     16  C   UNL     1      45.695   3.403  12.498  0.00  0.00    +0.000 C 
BRANCH  16  17
ATOM     17  C   UNL     1      44.619   3.768  11.431  0.00  0.00    +0.000 C 
ATOM     18  C   UNL     1      43.387   2.853  11.617  0.00  0.00    +0.000 C 
ATOM     19  C   UNL     1      44.207   5.244  11.634  0.00  0.00    +0.000 C 
BRANCH  17  20
ATOM     20  C   UNL     1      45.155   3.573   9.987  0.00  0.00    +0.000 A 
ATOM     21  C   UNL     1      45.376   4.645   9.099  0.00  0.00    +0.000 A 
ATOM     22  C   UNL     1      45.930   4.446   7.830  0.00  0.00    +0.000 A 
ATOM     23  C   UNL     1      46.283   3.168   7.414  0.00  0.00    +0.000 A 
ATOM     24  C   UNL     1      46.065   2.081   8.262  0.00  0.00    +0.000 A 
ATOM     25  C   UNL     1      45.492   2.284   9.527  0.00  0.00    +0.000 A 
BRANCH  24  26
ATOM     26  C   UNL     1      46.453   0.767   7.856  0.00  0.00    +0.000 C 
ATOM     27  N   UNL     1      46.780  -0.300   7.527  0.00  0.00    +0.000 NA
ENDBRANCH  24  26
ENDBRANCH  17  20
ENDBRANCH  16  17
ENDBRANCH   1  16
TORSDOF 7
ENDMDL
MODEL 6
REMARK VINA RESULT:    -6.084      2.585      5.261
REMARK INTER + INTRA:          -9.969
REMARK INTER:                  -8.745
REMARK INTRA:                  -1.225
REMARK UNBOUND:                -1.395
REMARK  Name = 
REMARK  10 active torsions:
REMARK  status: ('A' for Active; 'I' for Inactive)
REMARK    1  A    between atoms: C_1  and  O_2
REMARK    2  A    between atoms: O_2  and  C_3
REMARK    3  A    between atoms: C_5  and  N_6
REMARK    4  A    between atoms: N_6  and  C_7
REMARK    5  A    between atoms: C_7  and  C_8
REMARK    6  A    between atoms: C_8  and  C_9
REMARK    7  A    between atoms: C_8  and  C_10
REMARK    8  A    between atoms: C_8  and  C_11
REMARK    9  A    between atoms: C_15  and  C_16
REMARK   10  A    between atoms: C_21  and  C_22
REMARK                            x       y       z     vdW  Elec       q    Type
REMARK                         _______ _______ _______ _____ _____    ______ ____
ROOT
ATOM      1  N   UNL     1      47.360   7.293  11.779  0.00  0.00    +0.000 N 
ATOM      2  H   UNL     1      47.554   7.876  10.969  0.00  0.00    +0.000 HD
ENDROOT
BRANCH   1   5
ATOM      3  C   UNL     1      45.307   4.816   9.854  0.00  0.00    +0.000 A 
ATOM      4  C   UNL     1      46.128   5.912  10.156  0.00  0.00    +0.000 A 
ATOM      5  C   UNL     1      46.428   6.287  11.473  0.00  0.00    +0.000 A 
ATOM      6  C   UNL     1      45.875   5.526  12.504  0.00  0.00    +0.000 A 
ATOM      7  C   UNL     1      45.043   4.433  12.226  0.00  0.00    +0.000 A 
ATOM      8  C   UNL     1      44.766   4.055  10.900  0.00  0.00    +0.000 A 
BRANCH   8   9
ATOM      9  C   UNL     1      43.950   2.816  10.703  0.00  0.00    +0.000 C 
ATOM     10  N   UNL     1      44.387   1.895   9.796  0.00  0.00    +0.000 N 
ATOM     11  O   UNL     1      42.926   2.608  11.345  0.00  0.00    +0.000 OA
ATOM     12  H   UNL     1      45.202   2.072   9.220  0.00  0.00    +0.000 HD
ATOM     13  H   UNL     1      43.843   1.058   9.643  0.00  0.00    +0.000 HD
ENDBRANCH   8   9
BRANCH   3  15
ATOM     14  C   UNL     1      46.039   4.038   7.722  0.00  0.00    +0.000 C 
ATOM     15  O   UNL     1      44.982   4.495   8.556  0.00  0.00    +0.000 OA
ENDBRANCH   3  15
ENDBRANCH   1   5
BRANCH   1  16
ATOM     16  C   UNL     1      48.556   6.902  12.537  0.00  0.00    +0.000 C 
BRANCH  16  17
ATOM     17  C   UNL     1      48.814   7.742  13.826  0.00  0.00    +0.000 C 
ATOM     18  C   UNL     1      50.031   8.667  13.596  0.00  0.00    +0.000 C 
ATOM     19  C   UNL     1      47.558   8.597  14.113  0.00  0.00    +0.000 C 
BRANCH  17  20
ATOM     20  C   UNL     1      49.116   6.835  15.049  0.00  0.00    +0.000 A 
ATOM     21  C   UNL     1      50.261   6.990  15.855  0.00  0.00    +0.000 A 
ATOM     22  C   UNL     1      50.470   6.205  16.994  0.00  0.00    +0.000 A 
ATOM     23  C   UNL     1      49.535   5.245  17.362  0.00  0.00    +0.000 A 
ATOM     24  C   UNL     1      48.396   5.054  16.578  0.00  0.00    +0.000 A 
ATOM     25  C   UNL     1      48.201   5.831  15.427  0.00  0.00    +0.000 A 
BRANCH  24  26
ATOM     26  C   UNL     1      47.414   4.090  16.965  0.00  0.00    +0.000 C 
ATOM     27  N   UNL     1      46.612   3.305  17.270  0.00  0.00    +0.000 NA
ENDBRANCH  24  26
ENDBRANCH  17  20
ENDBRANCH  16  17
ENDBRANCH   1  16
TORSDOF 7
ENDMDL
MODEL 7
REMARK VINA RESULT:    -6.005      4.156      6.978
REMARK INTER + INTRA:          -9.858
REMARK INTER:                  -8.585
REMARK INTRA:                  -1.273
REMARK UNBOUND:                -1.395
REMARK  Name = 
REMARK  10 active torsions:
REMARK  status: ('A' for Active; 'I' for Inactive)
REMARK    1  A    between atoms: C_1  and  O_2
REMARK    2  A    between atoms: O_2  and  C_3
REMARK    3  A    between atoms: C_5  and  N_6
REMARK    4  A    between atoms: N_6  and  C_7
REMARK    5  A    between atoms: C_7  and  C_8
REMARK    6  A    between atoms: C_8  and  C_9
REMARK    7  A    between atoms: C_8  and  C_10
REMARK    8  A    between atoms: C_8  and  C_11
REMARK    9  A    between atoms: C_15  and  C_16
REMARK   10  A    between atoms: C_21  and  C_22
REMARK                            x       y       z     vdW  Elec       q    Type
REMARK                         _______ _______ _______ _____ _____    ______ ____
ROOT
ATOM      1  N   UNL     1      48.819   6.878  14.363  0.00  0.00    +0.000 N 
ATOM      2  H   UNL     1      49.476   6.107  14.283  0.00  0.00    +0.000 HD
ENDROOT
BRANCH   1   5
ATOM      3  C   UNL     1      45.741   5.020  13.300  0.00  0.00    +0.000 A 
ATOM      4  C   UNL     1      47.026   5.291  13.792  0.00  0.00    +0.000 A 
ATOM      5  C   UNL     1      47.595   6.572  13.745  0.00  0.00    +0.000 A 
ATOM      6  C   UNL     1      46.834   7.597  13.182  0.00  0.00    +0.000 A 
ATOM      7  C   UNL     1      45.552   7.347  12.674  0.00  0.00    +0.000 A 
ATOM      8  C   UNL     1      44.985   6.062  12.745  0.00  0.00    +0.000 A 
BRANCH   8   9
ATOM      9  C   UNL     1      43.573   5.915  12.268  0.00  0.00    +0.000 C 
ATOM     10  N   UNL     1      42.641   5.453  13.151  0.00  0.00    +0.000 N 
ATOM     11  O   UNL     1      43.243   6.214  11.126  0.00  0.00    +0.000 OA
ATOM     12  H   UNL     1      42.904   5.153  14.083  0.00  0.00    +0.000 HD
ATOM     13  H   UNL     1      41.686   5.339  12.843  0.00  0.00    +0.000 HD
ENDBRANCH   8   9
BRANCH   3  15
ATOM     14  C   UNL     1      45.294   3.015  12.089  0.00  0.00    +0.000 C 
ATOM     15  O   UNL     1      45.220   3.746  13.307  0.00  0.00    +0.000 OA
ENDBRANCH   3  15
ENDBRANCH   1   5
BRANCH   1  16
ATOM     16  C   UNL     1      48.772   7.492  15.696  0.00  0.00    +0.000 C 
BRANCH  16  17
ATOM     17  C   UNL     1      49.664   6.792  16.767  0.00  0.00    +0.000 C 
ATOM     18  C   UNL     1      51.112   6.692  16.237  0.00  0.00    +0.000 C 
ATOM     19  C   UNL     1      49.639   7.641  18.058  0.00  0.00    +0.000 C 
BRANCH  17  20
ATOM     20  C   UNL     1      49.161   5.357  17.080  0.00  0.00    +0.000 A 
ATOM     21  C   UNL     1      47.799   5.045  17.270  0.00  0.00    +0.000 A 
ATOM     22  C   UNL     1      47.368   3.731  17.478  0.00  0.00    +0.000 A 
ATOM     23  C   UNL     1      48.288   2.688  17.499  0.00  0.00    +0.000 A 
ATOM     24  C   UNL     1      49.646   2.963  17.330  0.00  0.00    +0.000 A 
ATOM     25  C   UNL     1      50.075   4.285  17.140  0.00  0.00    +0.000 A 
BRANCH  24  26
ATOM     26  C   UNL     1      50.596   1.895  17.319  0.00  0.00    +0.000 C 
ATOM     27  N   UNL     1      51.368   1.024  17.321  0.00  0.00    +0.000 NA
ENDBRANCH  24  26
ENDBRANCH  17  20
ENDBRANCH  16  17
ENDBRANCH   1  16
TORSDOF 7
ENDMDL
MODEL 8
REMARK VINA RESULT:    -5.961      3.776      6.660
REMARK INTER + INTRA:          -9.796
REMARK INTER:                  -8.905
REMARK INTRA:                  -0.891
REMARK UNBOUND:                -1.395
REMARK  Name = 
REMARK  10 active torsions:
REMARK  status: ('A' for Active; 'I' for Inactive)
REMARK    1  A    between atoms: C_1  and  O_2
REMARK    2  A    between atoms: O_2  and  C_3
REMARK    3  A    between atoms: C_5  and  N_6
REMARK    4  A    between atoms: N_6  and  C_7
REMARK    5  A    between atoms: C_7  and  C_8
REMARK    6  A    between atoms: C_8  and  C_9
REMARK    7  A    between atoms: C_8  and  C_10
REMARK    8  A    between atoms: C_8  and  C_11
REMARK    9  A    between atoms: C_15  and  C_16
REMARK   10  A    between atoms: C_21  and  C_22
REMARK                            x       y       z     vdW  Elec       q    Type
REMARK                         _______ _______ _______ _____ _____    ______ ____
ROOT
ATOM      1  N   UNL     1      47.310   5.321  14.875  0.00  0.00    +0.000 N 
ATOM      2  H   UNL     1      48.223   5.589  14.519  0.00  0.00    +0.000 HD
ENDROOT
BRANCH   1   5
ATOM      3  C   UNL     1      44.923   5.576  11.996  0.00  0.00    +0.000 A 
ATOM      4  C   UNL     1      45.681   5.911  13.127  0.00  0.00    +0.000 A 
ATOM      5  C   UNL     1      46.439   4.966  13.831  0.00  0.00    +0.000 A 
ATOM      6  C   UNL     1      46.420   3.649  13.371  0.00  0.00    +0.000 A 
ATOM      7  C   UNL     1      45.661   3.288  12.250  0.00  0.00    +0.000 A 
ATOM      8  C   UNL     1      44.920   4.250  11.540  0.00  0.00    +0.000 A 
BRANCH   8   9
ATOM      9  C   UNL     1      44.223   3.790  10.298  0.00  0.00    +0.000 C 
ATOM     10  N   UNL     1      44.128   4.661   9.252  0.00  0.00    +0.000 N 
ATOM     11  O   UNL     1      43.761   2.658  10.199  0.00  0.00    +0.000 OA
ATOM     12  H   UNL     1      44.458   5.616   9.333  0.00  0.00    +0.000 HD
ATOM     13  H   UNL     1      43.651   4.370   8.411  0.00  0.00    +0.000 HD
ENDBRANCH   8   9
BRANCH   3  15
ATOM     14  C   UNL     1      44.588   7.857  11.389  0.00  0.00    +0.000 C 
ATOM     15  O   UNL     1      44.144   6.507  11.348  0.00  0.00    +0.000 OA
ENDBRANCH   3  15
ENDBRANCH   1   5
BRANCH   1  16
ATOM     16  C   UNL     1      47.357   4.441  16.050  0.00  0.00    +0.000 C 
BRANCH  16  17
ATOM     17  C   UNL     1      48.322   4.914  17.180  0.00  0.00    +0.000 C 
ATOM     18  C   UNL     1      48.913   6.291  16.801  0.00  0.00    +0.000 C 
ATOM     19  C   UNL     1      47.517   5.036  18.494  0.00  0.00    +0.000 C 
BRANCH  17  20
ATOM     20  C   UNL     1      49.497   3.920  17.382  0.00  0.00    +0.000 A 
ATOM     21  C   UNL     1      49.408   2.550  17.063  0.00  0.00    +0.000 A 
ATOM     22  C   UNL     1      50.506   1.693  17.186  0.00  0.00    +0.000 A 
ATOM     23  C   UNL     1      51.729   2.183  17.630  0.00  0.00    +0.000 A 
ATOM     24  C   UNL     1      51.850   3.531  17.970  0.00  0.00    +0.000 A 
ATOM     25  C   UNL     1      50.740   4.383  17.861  0.00  0.00    +0.000 A 
BRANCH  24  26
ATOM     26  C   UNL     1      53.111   4.051  18.398  0.00  0.00    +0.000 C 
ATOM     27  N   UNL     1      54.142   4.467  18.741  0.00  0.00    +0.000 NA
ENDBRANCH  24  26
ENDBRANCH  17  20
ENDBRANCH  16  17
ENDBRANCH   1  16
TORSDOF 7
ENDMDL
MODEL 9
REMARK VINA RESULT:    -5.644      4.011      7.028
REMARK INTER + INTRA:          -9.349
REMARK INTER:                  -7.812
REMARK INTRA:                  -1.537
REMARK UNBOUND:                -1.395
REMARK  Name = 
REMARK  10 active torsions:
REMARK  status: ('A' for Active; 'I' for Inactive)
REMARK    1  A    between atoms: C_1  and  O_2
REMARK    2  A    between atoms: O_2  and  C_3
REMARK    3  A    between atoms: C_5  and  N_6
REMARK    4  A    between atoms: N_6  and  C_7
REMARK    5  A    between atoms: C_7  and  C_8
REMARK    6  A    between atoms: C_8  and  C_9
REMARK    7  A    between atoms: C_8  and  C_10
REMARK    8  A    between atoms: C_8  and  C_11
REMARK    9  A    between atoms: C_15  and  C_16
REMARK   10  A    between atoms: C_21  and  C_22
REMARK                            x       y       z     vdW  Elec       q    Type
REMARK                         _______ _______ _______ _____ _____    ______ ____
ROOT
ATOM      1  N   UNL     1      48.938   6.982  14.239  0.00  0.00    +0.000 N 
ATOM      2  H   UNL     1      49.797   6.452  14.119  0.00  0.00    +0.000 HD
ENDROOT
BRANCH   1   5
ATOM      3  C   UNL     1      46.004   5.785  12.237  0.00  0.00    +0.000 A 
ATOM      4  C   UNL     1      47.033   6.600  12.728  0.00  0.00    +0.000 A 
ATOM      5  C   UNL     1      47.818   6.238  13.832  0.00  0.00    +0.000 A 
ATOM      6  C   UNL     1      47.544   5.016  14.447  0.00  0.00    +0.000 A 
ATOM      7  C   UNL     1      46.513   4.190  13.980  0.00  0.00    +0.000 A 
ATOM      8  C   UNL     1      45.746   4.555  12.859  0.00  0.00    +0.000 A 
BRANCH   8   9
ATOM      9  C   UNL     1      44.736   3.563  12.374  0.00  0.00    +0.000 C 
ATOM     10  N   UNL     1      44.957   2.954  11.173  0.00  0.00    +0.000 N 
ATOM     11  O   UNL     1      43.742   3.278  13.034  0.00  0.00    +0.000 OA
ATOM     12  H   UNL     1      45.745   3.214  10.591  0.00  0.00    +0.000 HD
ATOM     13  H   UNL     1      44.280   2.290  10.827  0.00  0.00    +0.000 HD
ENDBRANCH   8   9
BRANCH   3  15
ATOM     14  C   UNL     1      44.615   7.469  11.277  0.00  0.00    +0.000 C 
ATOM     15  O   UNL     1      45.210   6.181  11.185  0.00  0.00    +0.000 OA
ENDBRANCH   3  15
ENDBRANCH   1   5
BRANCH   1  16
ATOM     16  C   UNL     1      48.849   7.700  15.517  0.00  0.00    +0.000 C 
BRANCH  16  17
ATOM     17  C   UNL     1      49.844   7.207  16.612  0.00  0.00    +0.000 C 
ATOM     18  C   UNL     1      51.230   6.971  15.970  0.00  0.00    +0.000 C 
ATOM     19  C   UNL     1      49.954   8.298  17.702  0.00  0.00    +0.000 C 
BRANCH  17  20
ATOM     20  C   UNL     1      49.373   5.876  17.256  0.00  0.00    +0.000 A 
ATOM     21  C   UNL     1      48.176   5.761  17.991  0.00  0.00    +0.000 A 
ATOM     22  C   UNL     1      47.740   4.532  18.498  0.00  0.00    +0.000 A 
ATOM     23  C   UNL     1      48.487   3.380  18.279  0.00  0.00    +0.000 A 
ATOM     24  C   UNL     1      49.686   3.461  17.569  0.00  0.00    +0.000 A 
ATOM     25  C   UNL     1      50.128   4.699  17.078  0.00  0.00    +0.000 A 
BRANCH  24  26
ATOM     26  C   UNL     1      50.447   2.278  17.312  0.00  0.00    +0.000 C 
ATOM     27  N   UNL     1      51.062   1.311  17.113  0.00  0.00    +0.000 NA
ENDBRANCH  24  26
ENDBRANCH  17  20
ENDBRANCH  16  17
ENDBRANCH   1  16
TORSDOF 7
ENDMDL
