MODEL 1
REMARK VINA RESULT:    -8.484      0.000      0.000
REMARK INTER + INTRA:         -12.760
REMARK INTER:                 -11.956
REMARK INTRA:                  -0.805
REMARK UNBOUND:                -0.805
REMARK  Name = 
REMARK  7 active torsions:
REMARK  status: ('A' for Active; 'I' for Inactive)
REMARK    1  A    between atoms: C_2  and  C_4
REMARK    2  A    between atoms: C_7  and  N_8
REMARK    3  A    between atoms: N_8  and  C_9
REMARK    4  A    between atoms: C_9  and  C_10
REMARK    5  A    between atoms: C_10  and  C_11
REMARK    6  A    between atoms: C_15  and  O_16
REMARK    7  A    between atoms: O_16  and  C_17
REMARK                            x       y       z     vdW  Elec       q    Type
REMARK                         _______ _______ _______ _____ _____    ______ ____
ROOT
ATOM      1  N   UNL     1      43.697   4.774  10.032  0.00  0.00    +0.000 N 
ATOM      2  H   UNL     1      43.037   5.288   9.451  0.00  0.00    +0.000 HD
ENDROOT
BRANCH   1   6
ATOM      3  C   UNL     1      46.302   2.275   7.841  0.00  0.00    +0.000 A 
ATOM      4  C   UNL     1      45.397   1.704   8.740  0.00  0.00    +0.000 A 
ATOM      5  C   UNL     1      44.517   2.521   9.461  0.00  0.00    +0.000 A 
ATOM      6  C   UNL     1      44.497   3.909   9.283  0.00  0.00    +0.000 A 
ATOM      7  C   UNL     1      45.427   4.464   8.392  0.00  0.00    +0.000 A 
ATOM      8  C   UNL     1      46.324   3.661   7.680  0.00  0.00    +0.000 A 
BRANCH   3  10
ATOM      9  N   UNL     1      48.391   2.076   6.608  0.00  0.00    +0.000 N 
ATOM     10  C   UNL     1      47.273   1.447   7.082  0.00  0.00    +0.000 C 
ATOM     11  O   UNL     1      47.106   0.246   6.914  0.00  0.00    +0.000 OA
ATOM     12  H   UNL     1      49.096   1.479   6.189  0.00  0.00    +0.000 HD
ATOM     13  H   UNL     1      48.680   2.986   6.937  0.00  0.00    +0.000 HD
ENDBRANCH   3  10
ENDBRANCH   1   6
BRANCH   1  14
ATOM     14  C   UNL     1      43.180   4.363  11.336  0.00  0.00    +0.000 C 
BRANCH  14  15
ATOM     15  C   UNL     1      43.435   5.449  12.383  0.00  0.00    +0.000 C 
BRANCH  15  16
ATOM     16  C   UNL     1      44.906   5.623  12.672  0.00  0.00    +0.000 A 
ATOM     17  C   UNL     1      45.622   6.691  12.119  0.00  0.00    +0.000 A 
ATOM     18  C   UNL     1      46.982   6.849  12.393  0.00  0.00    +0.000 A 
ATOM     19  C   UNL     1      47.647   5.934  13.216  0.00  0.00    +0.000 A 
ATOM     20  C   UNL     1      46.948   4.854  13.750  0.00  0.00    +0.000 A 
ATOM     21  C   UNL     1      45.586   4.704  13.482  0.00  0.00    +0.000 A 
BRANCH  20  22
ATOM     22  O   UNL     1      47.485   3.903  14.580  0.00  0.00    +0.000 OA
BRANCH  22  23
ATOM     23  C   UNL     1      47.320   4.042  16.009  0.00  0.00    +0.000 C 
ATOM     24  C   UNL     1      48.240   5.018  16.753  0.00  0.00    +0.000 C 
ATOM     25  O   UNL     1      48.736   3.974  17.623  0.00  0.00    +0.000 OA
ATOM     26  C   UNL     1      48.036   2.974  16.847  0.00  0.00    +0.000 C 
ENDBRANCH  22  23
ENDBRANCH  20  22
ENDBRANCH  15  16
ENDBRANCH  14  15
ENDBRANCH   1  14
TORSDOF 7
ENDMDL
MODEL 2
REMARK VINA RESULT:    -7.789      2.143      3.551
REMARK INTER + INTRA:         -11.781
REMARK INTER:                 -10.860
REMARK INTRA:                  -0.921
REMARK UNBOUND:                -0.805
REMARK  Name = 
REMARK  7 active torsions:
REMARK  status: ('A' for Active; 'I' for Inactive)
REMARK    1  A    between atoms: C_2  and  C_4
REMARK    2  A    between atoms: C_7  and  N_8
REMARK    3  A    between atoms: N_8  and  C_9
REMARK    4  A    between atoms: C_9  and  C_10
REMARK    5  A    between atoms: C_10  and  C_11
REMARK    6  A    between atoms: C_15  and  O_16
REMARK    7  A    between atoms: O_16  and  C_17
REMARK                            x       y       z     vdW  Elec       q    Type
REMARK                         _______ _______ _______ _____ _____    ______ ____
ROOT
ATOM      1  N   UNL     1      43.718   4.770  10.014  0.00  0.00    +0.000 N 
ATOM      2  H   UNL     1      43.127   5.366   9.438  0.00  0.00    +0.000 HD
ENDROOT
BRANCH   1   6
ATOM      3  C   UNL     1      46.444   2.447   7.776  0.00  0.00    +0.000 A 
ATOM      4  C   UNL     1      45.546   1.812   8.638  0.00  0.00    +0.000 A 
ATOM      5  C   UNL     1      44.626   2.570   9.374  0.00  0.00    +0.000 A 
ATOM      6  C   UNL     1      44.559   3.962   9.246  0.00  0.00    +0.000 A 
ATOM      7  C   UNL     1      45.482   4.582   8.393  0.00  0.00    +0.000 A 
ATOM      8  C   UNL     1      46.419   3.839   7.667  0.00  0.00    +0.000 A 
BRANCH   3  10
ATOM      9  N   UNL     1      48.481   2.395   6.445  0.00  0.00    +0.000 N 
ATOM     10  C   UNL     1      47.455   1.683   7.004  0.00  0.00    +0.000 C 
ATOM     11  O   UNL     1      47.402   0.465   6.897  0.00  0.00    +0.000 OA
ATOM     12  H   UNL     1      49.221   1.851   6.015  0.00  0.00    +0.000 HD
ATOM     13  H   UNL     1      48.693   3.343   6.719  0.00  0.00    +0.000 HD
ENDBRANCH   3  10
ENDBRANCH   1   6
BRANCH   1  14
ATOM     14  C   UNL     1      43.074   4.240  11.214  0.00  0.00    +0.000 C 
BRANCH  14  15
ATOM     15  C   UNL     1      43.245   5.206  12.389  0.00  0.00    +0.000 C 
BRANCH  15  16
ATOM     16  C   UNL     1      44.691   5.347  12.798  0.00  0.00    +0.000 A 
ATOM     17  C   UNL     1      45.457   4.219  13.118  0.00  0.00    +0.000 A 
ATOM     18  C   UNL     1      46.795   4.356  13.491  0.00  0.00    +0.000 A 
ATOM     19  C   UNL     1      47.384   5.623  13.561  0.00  0.00    +0.000 A 
ATOM     20  C   UNL     1      46.623   6.752  13.268  0.00  0.00    +0.000 A 
ATOM     21  C   UNL     1      45.287   6.612  12.886  0.00  0.00    +0.000 A 
BRANCH  20  22
ATOM     22  O   UNL     1      47.090   8.042  13.286  0.00  0.00    +0.000 OA
BRANCH  22  23
ATOM     23  C   UNL     1      47.085   8.808  12.061  0.00  0.00    +0.000 C 
ATOM     24  C   UNL     1      48.212   9.826  11.839  0.00  0.00    +0.000 C 
ATOM     25  O   UNL     1      47.272  10.917  11.696  0.00  0.00    +0.000 OA
ATOM     26  C   UNL     1      46.182  10.049  12.080  0.00  0.00    +0.000 C 
ENDBRANCH  22  23
ENDBRANCH  20  22
ENDBRANCH  15  16
ENDBRANCH  14  15
ENDBRANCH   1  14
TORSDOF 7
ENDMDL
MODEL 3
REMARK VINA RESULT:    -7.543      3.178      5.017
REMARK INTER + INTRA:         -11.434
REMARK INTER:                 -10.706
REMARK INTRA:                  -0.728
REMARK UNBOUND:                -0.805
REMARK  Name = 
REMARK  7 active torsions:
REMARK  status: ('A' for Active; 'I' for Inactive)
REMARK    1  A    between atoms: C_2  and  C_4
REMARK    2  A    between atoms: C_7  and  N_8
REMARK    3  A    between atoms: N_8  and  C_9
REMARK    4  A    between atoms: C_9  and  C_10
REMARK    5  A    between atoms: C_10  and  C_11
REMARK    6  A    between atoms: C_15  and  O_16
REMARK    7  A    between atoms: O_16  and  C_17
REMARK                            x       y       z     vdW  Elec       q    Type
REMARK                         _______ _______ _______ _____ _____    ______ ____
ROOT
ATOM      1  N   UNL     1      43.729   4.771   9.934  0.00  0.00    +0.000 N 
ATOM      2  H   UNL     1      42.789   4.633   9.569  0.00  0.00    +0.000 HD
ENDROOT
BRANCH   1   6
ATOM      3  C   UNL     1      46.425   2.335   7.784  0.00  0.00    +0.000 A 
ATOM      4  C   UNL     1      46.453   3.719   7.599  0.00  0.00    +0.000 A 
ATOM      5  C   UNL     1      45.575   4.540   8.317  0.00  0.00    +0.000 A 
ATOM      6  C   UNL     1      44.678   4.008   9.251  0.00  0.00    +0.000 A 
ATOM      7  C   UNL     1      44.650   2.615   9.407  0.00  0.00    +0.000 A 
ATOM      8  C   UNL     1      45.509   1.783   8.681  0.00  0.00    +0.000 A 
BRANCH   3  10
ATOM      9  N   UNL     1      48.414   1.987   6.424  0.00  0.00    +0.000 N 
ATOM     10  C   UNL     1      47.316   1.428   7.017  0.00  0.00    +0.000 C 
ATOM     11  O   UNL     1      47.104   0.225   6.943  0.00  0.00    +0.000 OA
ATOM     12  H   UNL     1      49.070   1.342   5.998  0.00  0.00    +0.000 HD
ATOM     13  H   UNL     1      48.751   2.907   6.669  0.00  0.00    +0.000 HD
ENDBRANCH   3  10
ENDBRANCH   1   6
BRANCH   1  14
ATOM     14  C   UNL     1      43.809   4.928  11.385  0.00  0.00    +0.000 C 
BRANCH  14  15
ATOM     15  C   UNL     1      45.269   4.970  11.843  0.00  0.00    +0.000 C 
BRANCH  15  16
ATOM     16  C   UNL     1      45.708   6.368  12.204  0.00  0.00    +0.000 A 
ATOM     17  C   UNL     1      46.919   6.588  12.870  0.00  0.00    +0.000 A 
ATOM     18  C   UNL     1      47.322   7.884  13.198  0.00  0.00    +0.000 A 
ATOM     19  C   UNL     1      46.512   8.979  12.872  0.00  0.00    +0.000 A 
ATOM     20  C   UNL     1      45.295   8.767  12.231  0.00  0.00    +0.000 A 
ATOM     21  C   UNL     1      44.899   7.470  11.896  0.00  0.00    +0.000 A 
BRANCH  20  22
ATOM     22  O   UNL     1      44.425   9.757  11.848  0.00  0.00    +0.000 OA
BRANCH  22  23
ATOM     23  C   UNL     1      43.688   9.606  10.614  0.00  0.00    +0.000 C 
ATOM     24  C   UNL     1      43.792  10.724   9.567  0.00  0.00    +0.000 C 
ATOM     25  O   UNL     1      42.361  10.937   9.573  0.00  0.00    +0.000 OA
ATOM     26  C   UNL     1      42.214  10.029  10.688  0.00  0.00    +0.000 C 
ENDBRANCH  22  23
ENDBRANCH  20  22
ENDBRANCH  15  16
ENDBRANCH  14  15
ENDBRANCH   1  14
TORSDOF 7
ENDMDL
MODEL 4
REMARK VINA RESULT:    -7.417      1.618      2.225
REMARK INTER + INTRA:         -11.256
REMARK INTER:                 -10.390
REMARK INTRA:                  -0.866
REMARK UNBOUND:                -0.805
REMARK  Name = 
REMARK  7 active torsions:
REMARK  status: ('A' for Active; 'I' for Inactive)
REMARK    1  A    between atoms: C_2  and  C_4
REMARK    2  A    between atoms: C_7  and  N_8
REMARK    3  A    between atoms: N_8  and  C_9
REMARK    4  A    between atoms: C_9  and  C_10
REMARK    5  A    between atoms: C_10  and  C_11
REMARK    6  A    between atoms: C_15  and  O_16
REMARK    7  A    between atoms: O_16  and  C_17
REMARK                            x       y       z     vdW  Elec       q    Type
REMARK                         _______ _______ _______ _____ _____    ______ ____
ROOT
ATOM      1  N   UNL     1      43.749   4.706  10.004  0.00  0.00    +0.000 N 
ATOM      2  H   UNL     1      42.918   4.138  10.161  0.00  0.00    +0.000 HD
ENDROOT
BRANCH   1   6
ATOM      3  C   UNL     1      46.528   2.517   7.699  0.00  0.00    +0.000 A 
ATOM      4  C   UNL     1      46.527   3.912   7.629  0.00  0.00    +0.000 A 
ATOM      5  C   UNL     1      45.620   4.651   8.401  0.00  0.00    +0.000 A 
ATOM      6  C   UNL     1      44.724   4.024   9.274  0.00  0.00    +0.000 A 
ATOM      7  C   UNL     1      44.727   2.622   9.314  0.00  0.00    +0.000 A 
ATOM      8  C   UNL     1      45.614   1.872   8.534  0.00  0.00    +0.000 A 
BRANCH   3  10
ATOM      9  N   UNL     1      48.570   2.315   6.390  0.00  0.00    +0.000 N 
ATOM     10  C   UNL     1      47.450   1.697   6.873  0.00  0.00    +0.000 C 
ATOM     11  O   UNL     1      47.242   0.511   6.658  0.00  0.00    +0.000 OA
ATOM     12  H   UNL     1      49.244   1.718   5.922  0.00  0.00    +0.000 HD
ATOM     13  H   UNL     1      48.897   3.201   6.748  0.00  0.00    +0.000 HD
ENDBRANCH   3  10
ENDBRANCH   1   6
BRANCH   1  14
ATOM     14  C   UNL     1      44.128   5.567  11.123  0.00  0.00    +0.000 C 
BRANCH  14  15
ATOM     15  C   UNL     1      45.118   4.849  12.043  0.00  0.00    +0.000 C 
BRANCH  15  16
ATOM     16  C   UNL     1      46.294   5.725  12.400  0.00  0.00    +0.000 A 
ATOM     17  C   UNL     1      46.864   6.579  11.448  0.00  0.00    +0.000 A 
ATOM     18  C   UNL     1      47.949   7.391  11.786  0.00  0.00    +0.000 A 
ATOM     19  C   UNL     1      48.487   7.351  13.078  0.00  0.00    +0.000 A 
ATOM     20  C   UNL     1      47.941   6.487  14.023  0.00  0.00    +0.000 A 
ATOM     21  C   UNL     1      46.850   5.683  13.685  0.00  0.00    +0.000 A 
BRANCH  20  22
ATOM     22  O   UNL     1      48.369   6.370  15.321  0.00  0.00    +0.000 OA
BRANCH  22  23
ATOM     23  C   UNL     1      49.734   6.712  15.645  0.00  0.00    +0.000 C 
ATOM     24  C   UNL     1      50.389   6.018  16.847  0.00  0.00    +0.000 C 
ATOM     25  O   UNL     1      50.662   7.281  17.497  0.00  0.00    +0.000 OA
ATOM     26  C   UNL     1      49.898   7.982  16.490  0.00  0.00    +0.000 C 
ENDBRANCH  22  23
ENDBRANCH  20  22
ENDBRANCH  15  16
ENDBRANCH  14  15
ENDBRANCH   1  14
TORSDOF 7
ENDMDL
MODEL 5
REMARK VINA RESULT:    -7.109      2.386      3.337
REMARK INTER + INTRA:         -10.823
REMARK INTER:                 -10.179
REMARK INTRA:                  -0.644
REMARK UNBOUND:                -0.805
REMARK  Name = 
REMARK  7 active torsions:
REMARK  status: ('A' for Active; 'I' for Inactive)
REMARK    1  A    between atoms: C_2  and  C_4
REMARK    2  A    between atoms: C_7  and  N_8
REMARK    3  A    between atoms: N_8  and  C_9
REMARK    4  A    between atoms: C_9  and  C_10
REMARK    5  A    between atoms: C_10  and  C_11
REMARK    6  A    between atoms: C_15  and  O_16
REMARK    7  A    between atoms: O_16  and  C_17
REMARK                            x       y       z     vdW  Elec       q    Type
REMARK                         _______ _______ _______ _____ _____    ______ ____
ROOT
ATOM      1  N   UNL     1      43.768   5.016   9.833  0.00  0.00    +0.000 N 
ATOM      2  H   UNL     1      42.764   4.859   9.762  0.00  0.00    +0.000 HD
ENDROOT
BRANCH   1   6
ATOM      3  C   UNL     1      46.191   2.057   8.044  0.00  0.00    +0.000 A 
ATOM      4  C   UNL     1      45.287   1.691   9.044  0.00  0.00    +0.000 A 
ATOM      5  C   UNL     1      44.466   2.661   9.635  0.00  0.00    +0.000 A 
ATOM      6  C   UNL     1      44.505   3.999   9.224  0.00  0.00    +0.000 A 
ATOM      7  C   UNL     1      45.434   4.349   8.235  0.00  0.00    +0.000 A 
ATOM      8  C   UNL     1      46.273   3.394   7.650  0.00  0.00    +0.000 A 
BRANCH   3  10
ATOM      9  N   UNL     1      46.795  -0.256   7.585  0.00  0.00    +0.000 N 
ATOM     10  C   UNL     1      47.101   1.066   7.417  0.00  0.00    +0.000 C 
ATOM     11  O   UNL     1      48.067   1.409   6.747  0.00  0.00    +0.000 OA
ATOM     12  H   UNL     1      47.360  -0.916   7.062  0.00  0.00    +0.000 HD
ATOM     13  H   UNL     1      45.889  -0.564   7.908  0.00  0.00    +0.000 HD
ENDBRANCH   3  10
ENDBRANCH   1   6
BRANCH   1  14
ATOM     14  C   UNL     1      44.212   5.599  11.097  0.00  0.00    +0.000 C 
BRANCH  14  15
ATOM     15  C   UNL     1      45.677   6.031  11.006  0.00  0.00    +0.000 C 
BRANCH  15  16
ATOM     16  C   UNL     1      46.411   5.820  12.308  0.00  0.00    +0.000 A 
ATOM     17  C   UNL     1      46.023   4.805  13.191  0.00  0.00    +0.000 A 
ATOM     18  C   UNL     1      46.708   4.612  14.392  0.00  0.00    +0.000 A 
ATOM     19  C   UNL     1      47.785   5.439  14.732  0.00  0.00    +0.000 A 
ATOM     20  C   UNL     1      48.162   6.466  13.870  0.00  0.00    +0.000 A 
ATOM     21  C   UNL     1      47.481   6.651  12.666  0.00  0.00    +0.000 A 
BRANCH  20  22
ATOM     22  O   UNL     1      49.207   7.329  14.085  0.00  0.00    +0.000 OA
BRANCH  22  23
ATOM     23  C   UNL     1      49.554   8.283  13.058  0.00  0.00    +0.000 C 
ATOM     24  C   UNL     1      51.035   8.443  12.687  0.00  0.00    +0.000 C 
ATOM     25  O   UNL     1      51.018   9.854  13.004  0.00  0.00    +0.000 OA
ATOM     26  C   UNL     1      49.681   9.734  13.541  0.00  0.00    +0.000 C 
ENDBRANCH  22  23
ENDBRANCH  20  22
ENDBRANCH  15  16
ENDBRANCH  14  15
ENDBRANCH   1  14
TORSDOF 7
ENDMDL
MODEL 6
REMARK VINA RESULT:    -6.906      2.580      8.043
REMARK INTER + INTRA:         -10.537
REMARK INTER:                  -9.905
REMARK INTRA:                  -0.632
REMARK UNBOUND:                -0.805
REMARK  Name = 
REMARK  7 active torsions:
REMARK  status: ('A' for Active; 'I' for Inactive)
REMARK    1  A    between atoms: C_2  and  C_4
REMARK    2  A    between atoms: C_7  and  N_8
REMARK    3  A    between atoms: N_8  and  C_9
REMARK    4  A    between atoms: C_9  and  C_10
REMARK    5  A    between atoms: C_10  and  C_11
REMARK    6  A    between atoms: C_15  and  O_16
REMARK    7  A    between atoms: O_16  and  C_17
REMARK                            x       y       z     vdW  Elec       q    Type
REMARK                         _______ _______ _______ _____ _____    ______ ____
ROOT
ATOM      1  N   UNL     1      47.094   6.020  12.831  0.00  0.00    +0.000 N 
ATOM      2  H   UNL     1      47.617   5.493  12.135  0.00  0.00    +0.000 HD
ENDROOT
BRANCH   1   6
ATOM      3  C   UNL     1      48.126   4.636  16.685  0.00  0.00    +0.000 A 
ATOM      4  C   UNL     1      48.568   5.893  16.265  0.00  0.00    +0.000 A 
ATOM      5  C   UNL     1      48.220   6.371  14.995  0.00  0.00    +0.000 A 
ATOM      6  C   UNL     1      47.404   5.627  14.134  0.00  0.00    +0.000 A 
ATOM      7  C   UNL     1      46.989   4.359  14.564  0.00  0.00    +0.000 A 
ATOM      8  C   UNL     1      47.346   3.863  15.823  0.00  0.00    +0.000 A 
BRANCH   3  10
ATOM      9  N   UNL     1      47.631   3.196  18.583  0.00  0.00    +0.000 N 
ATOM     10  C   UNL     1      48.501   4.080  18.009  0.00  0.00    +0.000 C 
ATOM     11  O   UNL     1      49.558   4.368  18.555  0.00  0.00    +0.000 OA
ATOM     12  H   UNL     1      47.949   2.742  19.432  0.00  0.00    +0.000 HD
ATOM     13  H   UNL     1      46.890   2.750  18.061  0.00  0.00    +0.000 HD
ENDBRANCH   3  10
ENDBRANCH   1   6
BRANCH   1  14
ATOM     14  C   UNL     1      45.715   6.331  12.460  0.00  0.00    +0.000 C 
BRANCH  14  15
ATOM     15  C   UNL     1      45.572   6.414  10.938  0.00  0.00    +0.000 C 
BRANCH  15  16
ATOM     16  C   UNL     1      45.190   5.086  10.333  0.00  0.00    +0.000 A 
ATOM     17  C   UNL     1      44.450   4.152  11.068  0.00  0.00    +0.000 A 
ATOM     18  C   UNL     1      44.096   2.926  10.500  0.00  0.00    +0.000 A 
ATOM     19  C   UNL     1      44.487   2.612   9.194  0.00  0.00    +0.000 A 
ATOM     20  C   UNL     1      45.244   3.526   8.465  0.00  0.00    +0.000 A 
ATOM     21  C   UNL     1      45.589   4.755   9.031  0.00  0.00    +0.000 A 
BRANCH  20  22
ATOM     22  O   UNL     1      45.672   3.340   7.175  0.00  0.00    +0.000 OA
BRANCH  22  23
ATOM     23  C   UNL     1      47.070   3.072   6.929  0.00  0.00    +0.000 C 
ATOM     24  C   UNL     1      47.495   2.689   5.505  0.00  0.00    +0.000 C 
ATOM     25  O   UNL     1      48.058   1.433   5.952  0.00  0.00    +0.000 OA
ATOM     26  C   UNL     1      47.523   1.647   7.278  0.00  0.00    +0.000 C 
ENDBRANCH  22  23
ENDBRANCH  20  22
ENDBRANCH  15  16
ENDBRANCH  14  15
ENDBRANCH   1  14
TORSDOF 7
ENDMDL
MODEL 7
REMARK VINA RESULT:    -6.342      3.484      8.247
REMARK INTER + INTRA:          -9.742
REMARK INTER:                  -9.293
REMARK INTRA:                  -0.449
REMARK UNBOUND:                -0.805
REMARK  Name = 
REMARK  7 active torsions:
REMARK  status: ('A' for Active; 'I' for Inactive)
REMARK    1  A    between atoms: C_2  and  C_4
REMARK    2  A    between atoms: C_7  and  N_8
REMARK    3  A    between atoms: N_8  and  C_9
REMARK    4  A    between atoms: C_9  and  C_10
REMARK    5  A    between atoms: C_10  and  C_11
REMARK    6  A    between atoms: C_15  and  O_16
REMARK    7  A    between atoms: O_16  and  C_17
REMARK                            x       y       z     vdW  Elec       q    Type
REMARK                         _______ _______ _______ _____ _____    ______ ____
ROOT
ATOM      1  N   UNL     1      46.772   4.400  15.761  0.00  0.00    +0.000 N 
ATOM      2  H   UNL     1      46.209   5.164  16.130  0.00  0.00    +0.000 HD
ENDROOT
BRANCH   1   6
ATOM      3  C   UNL     1      50.438   3.740  17.750  0.00  0.00    +0.000 A 
ATOM      4  C   UNL     1      50.046   5.046  17.448  0.00  0.00    +0.000 A 
ATOM      5  C   UNL     1      48.826   5.280  16.802  0.00  0.00    +0.000 A 
ATOM      6  C   UNL     1      47.960   4.230  16.473  0.00  0.00    +0.000 A 
ATOM      7  C   UNL     1      48.381   2.925  16.766  0.00  0.00    +0.000 A 
ATOM      8  C   UNL     1      49.606   2.676  17.393  0.00  0.00    +0.000 A 
BRANCH   3  10
ATOM      9  N   UNL     1      52.296   2.222  18.161  0.00  0.00    +0.000 N 
ATOM     10  C   UNL     1      51.738   3.447  18.403  0.00  0.00    +0.000 C 
ATOM     11  O   UNL     1      52.311   4.274  19.100  0.00  0.00    +0.000 OA
ATOM     12  H   UNL     1      53.232   2.077  18.523  0.00  0.00    +0.000 HD
ATOM     13  H   UNL     1      51.986   1.626  17.408  0.00  0.00    +0.000 HD
ENDBRANCH   3  10
ENDBRANCH   1   6
BRANCH   1  14
ATOM     14  C   UNL     1      46.755   4.270  14.305  0.00  0.00    +0.000 C 
BRANCH  14  15
ATOM     15  C   UNL     1      46.284   5.572  13.653  0.00  0.00    +0.000 C 
BRANCH  15  16
ATOM     16  C   UNL     1      45.230   5.328  12.601  0.00  0.00    +0.000 A 
ATOM     17  C   UNL     1      43.873   5.297  12.942  0.00  0.00    +0.000 A 
ATOM     18  C   UNL     1      42.902   5.075  11.963  0.00  0.00    +0.000 A 
ATOM     19  C   UNL     1      43.277   4.870  10.630  0.00  0.00    +0.000 A 
ATOM     20  C   UNL     1      44.626   4.874  10.287  0.00  0.00    +0.000 A 
ATOM     21  C   UNL     1      45.595   5.106  11.266  0.00  0.00    +0.000 A 
BRANCH  20  22
ATOM     22  O   UNL     1      45.115   4.701   9.017  0.00  0.00    +0.000 OA
BRANCH  22  23
ATOM     23  C   UNL     1      44.898   3.440   8.346  0.00  0.00    +0.000 C 
ATOM     24  C   UNL     1      44.958   2.154   9.182  0.00  0.00    +0.000 C 
ATOM     25  O   UNL     1      46.015   1.604   8.361  0.00  0.00    +0.000 OA
ATOM     26  C   UNL     1      46.137   2.858   7.651  0.00  0.00    +0.000 C 
ENDBRANCH  22  23
ENDBRANCH  20  22
ENDBRANCH  15  16
ENDBRANCH  14  15
ENDBRANCH   1  14
TORSDOF 7
ENDMDL
MODEL 8
REMARK VINA RESULT:    -6.067      2.803      5.022
REMARK INTER + INTRA:          -9.354
REMARK INTER:                  -9.001
REMARK INTRA:                  -0.354
REMARK UNBOUND:                -0.805
REMARK  Name = 
REMARK  7 active torsions:
REMARK  status: ('A' for Active; 'I' for Inactive)
REMARK    1  A    between atoms: C_2  and  C_4
REMARK    2  A    between atoms: C_7  and  N_8
REMARK    3  A    between atoms: N_8  and  C_9
REMARK    4  A    between atoms: C_9  and  C_10
REMARK    5  A    between atoms: C_10  and  C_11
REMARK    6  A    between atoms: C_15  and  O_16
REMARK    7  A    between atoms: O_16  and  C_17
REMARK                            x       y       z     vdW  Elec       q    Type
REMARK                         _______ _______ _______ _____ _____    ______ ____
ROOT
ATOM      1  N   UNL     1      46.876   7.254  13.624  0.00  0.00    +0.000 N 
ATOM      2  H   UNL     1      46.328   7.519  14.440  0.00  0.00    +0.000 HD
ENDROOT
BRANCH   1   6
ATOM      3  C   UNL     1      44.908   4.122  11.588  0.00  0.00    +0.000 A 
ATOM      4  C   UNL     1      44.950   5.394  11.013  0.00  0.00    +0.000 A 
ATOM      5  C   UNL     1      45.613   6.438  11.671  0.00  0.00    +0.000 A 
ATOM      6  C   UNL     1      46.270   6.233  12.890  0.00  0.00    +0.000 A 
ATOM      7  C   UNL     1      46.198   4.955  13.461  0.00  0.00    +0.000 A 
ATOM      8  C   UNL     1      45.522   3.908  12.823  0.00  0.00    +0.000 A 
BRANCH   3  10
ATOM      9  N   UNL     1      44.860   2.301   9.974  0.00  0.00    +0.000 N 
ATOM     10  C   UNL     1      44.187   2.998  10.939  0.00  0.00    +0.000 C 
ATOM     11  O   UNL     1      43.054   2.679  11.272  0.00  0.00    +0.000 OA
ATOM     12  H   UNL     1      44.398   1.470   9.618  0.00  0.00    +0.000 HD
ATOM     13  H   UNL     1      45.860   2.371   9.854  0.00  0.00    +0.000 HD
ENDBRANCH   3  10
ENDBRANCH   1   6
BRANCH   1  14
ATOM     14  C   UNL     1      48.323   7.264  13.825  0.00  0.00    +0.000 C 
BRANCH  14  15
ATOM     15  C   UNL     1      48.673   7.836  15.201  0.00  0.00    +0.000 C 
BRANCH  15  16
ATOM     16  C   UNL     1      49.565   6.908  15.988  0.00  0.00    +0.000 A 
ATOM     17  C   UNL     1      50.959   7.009  15.898  0.00  0.00    +0.000 A 
ATOM     18  C   UNL     1      51.779   6.150  16.633  0.00  0.00    +0.000 A 
ATOM     19  C   UNL     1      51.217   5.172  17.460  0.00  0.00    +0.000 A 
ATOM     20  C   UNL     1      49.832   5.049  17.537  0.00  0.00    +0.000 A 
ATOM     21  C   UNL     1      49.013   5.915  16.808  0.00  0.00    +0.000 A 
BRANCH  20  22
ATOM     22  O   UNL     1      49.165   4.143  18.322  0.00  0.00    +0.000 OA
BRANCH  22  23
ATOM     23  C   UNL     1      48.977   2.795  17.836  0.00  0.00    +0.000 C 
ATOM     24  C   UNL     1      50.161   2.101  17.148  0.00  0.00    +0.000 C 
ATOM     25  O   UNL     1      49.403   1.892  15.934  0.00  0.00    +0.000 OA
ATOM     26  C   UNL     1      48.319   2.695  16.453  0.00  0.00    +0.000 C 
ENDBRANCH  22  23
ENDBRANCH  20  22
ENDBRANCH  15  16
ENDBRANCH  14  15
ENDBRANCH   1  14
TORSDOF 7
ENDMDL
MODEL 9
REMARK VINA RESULT:    -6.044      2.805      4.320
REMARK INTER + INTRA:          -9.322
REMARK INTER:                  -8.265
REMARK INTRA:                  -1.057
REMARK UNBOUND:                -0.805
REMARK  Name = 
REMARK  7 active torsions:
REMARK  status: ('A' for Active; 'I' for Inactive)
REMARK    1  A    between atoms: C_2  and  C_4
REMARK    2  A    between atoms: C_7  and  N_8
REMARK    3  A    between atoms: N_8  and  C_9
REMARK    4  A    between atoms: C_9  and  C_10
REMARK    5  A    between atoms: C_10  and  C_11
REMARK    6  A    between atoms: C_15  and  O_16
REMARK    7  A    between atoms: O_16  and  C_17
REMARK                            x       y       z     vdW  Elec       q    Type
REMARK                         _______ _______ _______ _____ _____    ______ ____
ROOT
ATOM      1  N   UNL     1      45.743   7.994  12.848  0.00  0.00    +0.000 N 
ATOM      2  H   UNL     1      45.742   8.013  13.865  0.00  0.00    +0.000 HD
ENDROOT
BRANCH   1   6
ATOM      3  C   UNL     1      44.477   4.217  11.447  0.00  0.00    +0.000 A 
ATOM      4  C   UNL     1      44.800   5.217  10.527  0.00  0.00    +0.000 A 
ATOM      5  C   UNL     1      45.236   6.470  10.978  0.00  0.00    +0.000 A 
ATOM      6  C   UNL     1      45.389   6.741  12.343  0.00  0.00    +0.000 A 
ATOM      7  C   UNL     1      45.039   5.732  13.251  0.00  0.00    +0.000 A 
ATOM      8  C   UNL     1      44.584   4.483  12.813  0.00  0.00    +0.000 A 
BRANCH   3  10
ATOM      9  N   UNL     1      44.667   2.264  10.007  0.00  0.00    +0.000 N 
ATOM     10  C   UNL     1      43.979   2.888  11.010  0.00  0.00    +0.000 C 
ATOM     11  O   UNL     1      43.016   2.352  11.542  0.00  0.00    +0.000 OA
ATOM     12  H   UNL     1      44.384   1.313   9.794  0.00  0.00    +0.000 HD
ATOM     13  H   UNL     1      45.593   2.553   9.725  0.00  0.00    +0.000 HD
ENDBRANCH   3  10
ENDBRANCH   1   6
BRANCH   1  14
ATOM     14  C   UNL     1      46.808   8.772  12.218  0.00  0.00    +0.000 C 
BRANCH  14  15
ATOM     15  C   UNL     1      48.173   8.134  12.488  0.00  0.00    +0.000 C 
BRANCH  15  16
ATOM     16  C   UNL     1      48.441   7.977  13.965  0.00  0.00    +0.000 A 
ATOM     17  C   UNL     1      48.506   9.097  14.803  0.00  0.00    +0.000 A 
ATOM     18  C   UNL     1      48.750   8.945  16.169  0.00  0.00    +0.000 A 
ATOM     19  C   UNL     1      48.942   7.671  16.715  0.00  0.00    +0.000 A 
ATOM     20  C   UNL     1      48.902   6.553  15.885  0.00  0.00    +0.000 A 
ATOM     21  C   UNL     1      48.650   6.708  14.520  0.00  0.00    +0.000 A 
BRANCH  20  22
ATOM     22  O   UNL     1      49.060   5.257  16.303  0.00  0.00    +0.000 OA
BRANCH  22  23
ATOM     23  C   UNL     1      47.908   4.386  16.343  0.00  0.00    +0.000 C 
ATOM     24  C   UNL     1      47.127   4.276  17.660  0.00  0.00    +0.000 C 
ATOM     25  O   UNL     1      47.330   2.845  17.724  0.00  0.00    +0.000 OA
ATOM     26  C   UNL     1      48.227   2.905  16.592  0.00  0.00    +0.000 C 
ENDBRANCH  22  23
ENDBRANCH  20  22
ENDBRANCH  15  16
ENDBRANCH  14  15
ENDBRANCH   1  14
TORSDOF 7
ENDMDL
