MODEL 1
REMARK VINA RESULT:    -8.867      0.000      0.000
REMARK INTER + INTRA:         -13.063
REMARK INTER:                 -11.977
REMARK INTRA:                  -1.085
REMARK UNBOUND:                -1.085
REMARK  Name = 
REMARK  6 active torsions:
REMARK  status: ('A' for Active; 'I' for Inactive)
REMARK    1  A    between atoms: C_2  and  C_3
REMARK    2  A    between atoms: C_6  and  N_7
REMARK    3  A    between atoms: N_7  and  C_8
REMARK    4  A    between atoms: C_8  and  C_9
REMARK    5  A    between atoms: C_9  and  C_12
REMARK    6  A    between atoms: C_16  and  C_17
REMARK                            x       y       z     vdW  Elec       q    Type
REMARK                         _______ _______ _______ _____ _____    ______ ____
ROOT
ATOM      1  C   UNL     1      43.569   5.013  12.292  0.00  0.00    +0.000 C 
ATOM      2  F   UNL     1      42.908   6.043  11.688  0.00  0.00    +0.000 F 
ATOM      3  F   UNL     1      42.881   4.793  13.460  0.00  0.00    +0.000 F 
ENDROOT
BRANCH   1   4
ATOM      4  C   UNL     1      45.026   5.330  12.568  0.00  0.00    +0.000 A 
ATOM      5  C   UNL     1      45.682   6.292  11.788  0.00  0.00    +0.000 A 
ATOM      6  C   UNL     1      46.995   6.653  12.063  0.00  0.00    +0.000 A 
ATOM      7  C   UNL     1      47.648   6.094  13.157  0.00  0.00    +0.000 A 
ATOM      8  C   UNL     1      47.013   5.154  13.989  0.00  0.00    +0.000 A 
ATOM      9  C   UNL     1      45.718   4.736  13.637  0.00  0.00    +0.000 A 
BRANCH   8  10
ATOM     10  C   UNL     1      47.647   4.697  15.241  0.00  0.00    +0.000 A 
ATOM     11  C   UNL     1      48.256   5.581  16.130  0.00  0.00    +0.000 A 
ATOM     12  C   UNL     1      48.763   5.105  17.330  0.00  0.00    +0.000 A 
ATOM     13  C   UNL     1      48.654   3.751  17.617  0.00  0.00    +0.000 A 
ATOM     14  C   UNL     1      48.034   2.933  16.695  0.00  0.00    +0.000 A 
ATOM     15  N   UNL     1      47.533   3.372  15.517  0.00  0.00    +0.000 NA
ENDBRANCH   8  10
ENDBRANCH   1   4
BRANCH   1  16
ATOM     16  C   UNL     1      43.402   3.732  11.434  0.00  0.00    +0.000 C 
BRANCH  16  17
ATOM     17  N   UNL     1      43.507   3.926   9.979  0.00  0.00    +0.000 N 
ATOM     18  H   UNL     1      43.055   4.749   9.589  0.00  0.00    +0.000 HD
BRANCH  17  22
ATOM     19  C   UNL     1      46.631   2.505   7.540  0.00  0.00    +0.000 A 
ATOM     20  C   UNL     1      45.921   1.610   8.344  0.00  0.00    +0.000 A 
ATOM     21  C   UNL     1      44.909   2.072   9.186  0.00  0.00    +0.000 A 
ATOM     22  C   UNL     1      44.593   3.440   9.265  0.00  0.00    +0.000 A 
ATOM     23  C   UNL     1      45.324   4.323   8.461  0.00  0.00    +0.000 A 
ATOM     24  C   UNL     1      46.332   3.867   7.609  0.00  0.00    +0.000 A 
BRANCH  19  26
ATOM     25  N   UNL     1      48.444   1.628   5.909  0.00  0.00    +0.000 NA
ATOM     26  C   UNL     1      47.636   2.021   6.645  0.00  0.00    +0.000 C 
ENDBRANCH  19  26
ENDBRANCH  17  22
ENDBRANCH  16  17
ENDBRANCH   1  16
TORSDOF 6
ENDMDL
MODEL 2
REMARK VINA RESULT:    -8.247      1.982      3.572
REMARK INTER + INTRA:         -12.225
REMARK INTER:                 -11.162
REMARK INTRA:                  -1.063
REMARK UNBOUND:                -1.085
REMARK  Name = 
REMARK  6 active torsions:
REMARK  status: ('A' for Active; 'I' for Inactive)
REMARK    1  A    between atoms: C_2  and  C_3
REMARK    2  A    between atoms: C_6  and  N_7
REMARK    3  A    between atoms: N_7  and  C_8
REMARK    4  A    between atoms: C_8  and  C_9
REMARK    5  A    between atoms: C_9  and  C_12
REMARK    6  A    between atoms: C_16  and  C_17
REMARK                            x       y       z     vdW  Elec       q    Type
REMARK                         _______ _______ _______ _____ _____    ______ ____
ROOT
ATOM      1  C   UNL     1      43.587   5.453  12.160  0.00  0.00    +0.000 C 
ATOM      2  F   UNL     1      43.157   6.463  11.346  0.00  0.00    +0.000 F 
ATOM      3  F   UNL     1      42.703   5.450  13.210  0.00  0.00    +0.000 F 
ENDROOT
BRANCH   1   4
ATOM      4  C   UNL     1      45.010   5.655  12.644  0.00  0.00    +0.000 A 
ATOM      5  C   UNL     1      45.660   4.616  13.326  0.00  0.00    +0.000 A 
ATOM      6  C   UNL     1      46.986   4.747  13.719  0.00  0.00    +0.000 A 
ATOM      7  C   UNL     1      47.693   5.898  13.386  0.00  0.00    +0.000 A 
ATOM      8  C   UNL     1      47.090   6.947  12.668  0.00  0.00    +0.000 A 
ATOM      9  C   UNL     1      45.723   6.831  12.362  0.00  0.00    +0.000 A 
BRANCH   8  10
ATOM     10  C   UNL     1      47.889   8.083  12.170  0.00  0.00    +0.000 A 
ATOM     11  C   UNL     1      47.380   9.380  12.115  0.00  0.00    +0.000 A 
ATOM     12  C   UNL     1      48.204  10.422  11.717  0.00  0.00    +0.000 A 
ATOM     13  C   UNL     1      49.522  10.147  11.377  0.00  0.00    +0.000 A 
ATOM     14  C   UNL     1      49.961   8.842  11.460  0.00  0.00    +0.000 A 
ATOM     15  N   UNL     1      49.179   7.807  11.843  0.00  0.00    +0.000 NA
ENDBRANCH   8  10
ENDBRANCH   1   4
BRANCH   1  16
ATOM     16  C   UNL     1      43.406   4.101  11.424  0.00  0.00    +0.000 C 
BRANCH  16  17
ATOM     17  N   UNL     1      43.486   4.161   9.957  0.00  0.00    +0.000 N 
ATOM     18  H   UNL     1      43.031   4.947   9.501  0.00  0.00    +0.000 HD
BRANCH  17  22
ATOM     19  C   UNL     1      46.575   2.537   7.600  0.00  0.00    +0.000 A 
ATOM     20  C   UNL     1      45.800   1.694   8.400  0.00  0.00    +0.000 A 
ATOM     21  C   UNL     1      44.799   2.222   9.215  0.00  0.00    +0.000 A 
ATOM     22  C   UNL     1      44.558   3.605   9.271  0.00  0.00    +0.000 A 
ATOM     23  C   UNL     1      45.353   4.436   8.472  0.00  0.00    +0.000 A 
ATOM     24  C   UNL     1      46.351   3.914   7.647  0.00  0.00    +0.000 A 
BRANCH  19  26
ATOM     25  N   UNL     1      48.375   1.527   6.034  0.00  0.00    +0.000 NA
ATOM     26  C   UNL     1      47.571   1.986   6.733  0.00  0.00    +0.000 C 
ENDBRANCH  19  26
ENDBRANCH  17  22
ENDBRANCH  16  17
ENDBRANCH   1  16
TORSDOF 6
ENDMDL
MODEL 3
REMARK VINA RESULT:    -8.038      1.482      2.129
REMARK INTER + INTRA:         -11.942
REMARK INTER:                 -10.894
REMARK INTRA:                  -1.049
REMARK UNBOUND:                -1.085
REMARK  Name = 
REMARK  6 active torsions:
REMARK  status: ('A' for Active; 'I' for Inactive)
REMARK    1  A    between atoms: C_2  and  C_3
REMARK    2  A    between atoms: C_6  and  N_7
REMARK    3  A    between atoms: N_7  and  C_8
REMARK    4  A    between atoms: C_8  and  C_9
REMARK    5  A    between atoms: C_9  and  C_12
REMARK    6  A    between atoms: C_16  and  C_17
REMARK                            x       y       z     vdW  Elec       q    Type
REMARK                         _______ _______ _______ _____ _____    ______ ____
ROOT
ATOM      1  C   UNL     1      45.024   4.554  12.484  0.00  0.00    +0.000 C 
ATOM      2  F   UNL     1      44.230   4.551  13.595  0.00  0.00    +0.000 F 
ATOM      3  F   UNL     1      45.410   3.246  12.326  0.00  0.00    +0.000 F 
ENDROOT
BRANCH   1   4
ATOM      4  C   UNL     1      46.228   5.466  12.624  0.00  0.00    +0.000 A 
ATOM      5  C   UNL     1      46.444   6.474  11.673  0.00  0.00    +0.000 A 
ATOM      6  C   UNL     1      47.498   7.367  11.815  0.00  0.00    +0.000 A 
ATOM      7  C   UNL     1      48.316   7.296  12.938  0.00  0.00    +0.000 A 
ATOM      8  C   UNL     1      48.109   6.325  13.935  0.00  0.00    +0.000 A 
ATOM      9  C   UNL     1      47.095   5.375  13.725  0.00  0.00    +0.000 A 
BRANCH   8  10
ATOM     10  C   UNL     1      48.868   6.363  15.201  0.00  0.00    +0.000 A 
ATOM     11  C   UNL     1      48.376   5.800  16.377  0.00  0.00    +0.000 A 
ATOM     12  C   UNL     1      49.168   5.792  17.515  0.00  0.00    +0.000 A 
ATOM     13  C   UNL     1      50.438   6.351  17.456  0.00  0.00    +0.000 A 
ATOM     14  C   UNL     1      50.863   6.885  16.258  0.00  0.00    +0.000 A 
ATOM     15  N   UNL     1      50.110   6.907  15.134  0.00  0.00    +0.000 NA
ENDBRANCH   8  10
ENDBRANCH   1   4
BRANCH   1  16
ATOM     16  C   UNL     1      44.160   4.912  11.247  0.00  0.00    +0.000 C 
BRANCH  16  17
ATOM     17  N   UNL     1      43.810   3.784  10.370  0.00  0.00    +0.000 N 
ATOM     18  H   UNL     1      42.820   3.608  10.218  0.00  0.00    +0.000 HD
BRANCH  17  22
ATOM     19  C   UNL     1      46.601   2.449   7.515  0.00  0.00    +0.000 A 
ATOM     20  C   UNL     1      46.330   3.815   7.629  0.00  0.00    +0.000 A 
ATOM     21  C   UNL     1      45.379   4.268   8.544  0.00  0.00    +0.000 A 
ATOM     22  C   UNL     1      44.659   3.372   9.353  0.00  0.00    +0.000 A 
ATOM     23  C   UNL     1      44.937   2.007   9.215  0.00  0.00    +0.000 A 
ATOM     24  C   UNL     1      45.893   1.546   8.308  0.00  0.00    +0.000 A 
BRANCH  19  26
ATOM     25  N   UNL     1      48.419   1.613   5.867  0.00  0.00    +0.000 NA
ATOM     26  C   UNL     1      47.609   1.994   6.607  0.00  0.00    +0.000 C 
ENDBRANCH  19  26
ENDBRANCH  17  22
ENDBRANCH  16  17
ENDBRANCH   1  16
TORSDOF 6
ENDMDL
MODEL 4
REMARK VINA RESULT:    -7.819      2.631      4.704
REMARK INTER + INTRA:         -11.647
REMARK INTER:                 -10.772
REMARK INTRA:                  -0.875
REMARK UNBOUND:                -1.085
REMARK  Name = 
REMARK  6 active torsions:
REMARK  status: ('A' for Active; 'I' for Inactive)
REMARK    1  A    between atoms: C_2  and  C_3
REMARK    2  A    between atoms: C_6  and  N_7
REMARK    3  A    between atoms: N_7  and  C_8
REMARK    4  A    between atoms: C_8  and  C_9
REMARK    5  A    between atoms: C_9  and  C_12
REMARK    6  A    between atoms: C_16  and  C_17
REMARK                            x       y       z     vdW  Elec       q    Type
REMARK                         _______ _______ _______ _____ _____    ______ ____
ROOT
ATOM      1  C   UNL     1      44.355   4.093  12.222  0.00  0.00    +0.000 C 
ATOM      2  F   UNL     1      43.710   3.746  13.375  0.00  0.00    +0.000 F 
ATOM      3  F   UNL     1      45.185   3.032  11.954  0.00  0.00    +0.000 F 
ENDROOT
BRANCH   1   4
ATOM      4  C   UNL     1      45.142   5.382  12.353  0.00  0.00    +0.000 A 
ATOM      5  C   UNL     1      46.511   5.328  12.654  0.00  0.00    +0.000 A 
ATOM      6  C   UNL     1      47.270   6.490  12.711  0.00  0.00    +0.000 A 
ATOM      7  C   UNL     1      46.680   7.714  12.413  0.00  0.00    +0.000 A 
ATOM      8  C   UNL     1      45.320   7.808  12.068  0.00  0.00    +0.000 A 
ATOM      9  C   UNL     1      44.551   6.632  12.108  0.00  0.00    +0.000 A 
BRANCH   8  10
ATOM     10  C   UNL     1      44.744   9.080  11.589  0.00  0.00    +0.000 A 
ATOM     11  C   UNL     1      45.366  10.307  11.814  0.00  0.00    +0.000 A 
ATOM     12  C   UNL     1      44.822  11.460  11.269  0.00  0.00    +0.000 A 
ATOM     13  C   UNL     1      43.663  11.365  10.510  0.00  0.00    +0.000 A 
ATOM     14  C   UNL     1      43.104  10.118  10.322  0.00  0.00    +0.000 A 
ATOM     15  N   UNL     1      43.613   8.978  10.844  0.00  0.00    +0.000 NA
ENDBRANCH   8  10
ENDBRANCH   1   4
BRANCH   1  16
ATOM     16  C   UNL     1      43.325   4.151  11.065  0.00  0.00    +0.000 C 
BRANCH  16  17
ATOM     17  N   UNL     1      43.836   4.673   9.787  0.00  0.00    +0.000 N 
ATOM     18  H   UNL     1      43.807   5.680   9.655  0.00  0.00    +0.000 HD
BRANCH  17  22
ATOM     19  C   UNL     1      46.692   2.750   7.363  0.00  0.00    +0.000 A 
ATOM     20  C   UNL     1      45.738   1.989   8.042  0.00  0.00    +0.000 A 
ATOM     21  C   UNL     1      44.810   2.608   8.879  0.00  0.00    +0.000 A 
ATOM     22  C   UNL     1      44.822   4.000   9.078  0.00  0.00    +0.000 A 
ATOM     23  C   UNL     1      45.793   4.745   8.398  0.00  0.00    +0.000 A 
ATOM     24  C   UNL     1      46.719   4.133   7.552  0.00  0.00    +0.000 A 
BRANCH  19  26
ATOM     25  N   UNL     1      48.361   1.610   5.741  0.00  0.00    +0.000 NA
ATOM     26  C   UNL     1      47.612   2.114   6.471  0.00  0.00    +0.000 C 
ENDBRANCH  19  26
ENDBRANCH  17  22
ENDBRANCH  16  17
ENDBRANCH   1  16
TORSDOF 6
ENDMDL
MODEL 5
REMARK VINA RESULT:    -7.547      3.014      4.201
REMARK INTER + INTRA:         -11.280
REMARK INTER:                 -10.348
REMARK INTRA:                  -0.932
REMARK UNBOUND:                -1.085
REMARK  Name = 
REMARK  6 active torsions:
REMARK  status: ('A' for Active; 'I' for Inactive)
REMARK    1  A    between atoms: C_2  and  C_3
REMARK    2  A    between atoms: C_6  and  N_7
REMARK    3  A    between atoms: N_7  and  C_8
REMARK    4  A    between atoms: C_8  and  C_9
REMARK    5  A    between atoms: C_9  and  C_12
REMARK    6  A    between atoms: C_16  and  C_17
REMARK                            x       y       z     vdW  Elec       q    Type
REMARK                         _______ _______ _______ _____ _____    ______ ____
ROOT
ATOM      1  C   UNL     1      45.179   5.267  12.076  0.00  0.00    +0.000 C 
ATOM      2  F   UNL     1      44.675   4.867  13.280  0.00  0.00    +0.000 F 
ATOM      3  F   UNL     1      46.155   4.348  11.782  0.00  0.00    +0.000 F 
ENDROOT
BRANCH   1   4
ATOM      4  C   UNL     1      45.747   6.673  12.114  0.00  0.00    +0.000 A 
ATOM      5  C   UNL     1      44.992   7.707  12.687  0.00  0.00    +0.000 A 
ATOM      6  C   UNL     1      45.516   8.988  12.798  0.00  0.00    +0.000 A 
ATOM      7  C   UNL     1      46.821   9.238  12.388  0.00  0.00    +0.000 A 
ATOM      8  C   UNL     1      47.627   8.220  11.845  0.00  0.00    +0.000 A 
ATOM      9  C   UNL     1      47.044   6.954  11.656  0.00  0.00    +0.000 A 
BRANCH   8  10
ATOM     10  C   UNL     1      49.059   8.449  11.572  0.00  0.00    +0.000 A 
ATOM     11  C   UNL     1      49.950   7.398  11.361  0.00  0.00    +0.000 A 
ATOM     12  C   UNL     1      51.268   7.676  11.027  0.00  0.00    +0.000 A 
ATOM     13  C   UNL     1      51.670   9.000  10.915  0.00  0.00    +0.000 A 
ATOM     14  C   UNL     1      50.734   9.989  11.132  0.00  0.00    +0.000 A 
ATOM     15  N   UNL     1      49.444   9.746  11.460  0.00  0.00    +0.000 NA
ENDBRANCH   8  10
ENDBRANCH   1   4
BRANCH   1  16
ATOM     16  C   UNL     1      44.083   5.110  10.991  0.00  0.00    +0.000 C 
BRANCH  16  17
ATOM     17  N   UNL     1      43.964   3.767  10.400  0.00  0.00    +0.000 N 
ATOM     18  H   UNL     1      43.051   3.323  10.443  0.00  0.00    +0.000 HD
BRANCH  17  22
ATOM     19  C   UNL     1      46.667   2.489   7.436  0.00  0.00    +0.000 A 
ATOM     20  C   UNL     1      46.339   3.843   7.533  0.00  0.00    +0.000 A 
ATOM     21  C   UNL     1      45.415   4.276   8.484  0.00  0.00    +0.000 A 
ATOM     22  C   UNL     1      44.780   3.369   9.350  0.00  0.00    +0.000 A 
ATOM     23  C   UNL     1      45.113   2.014   9.229  0.00  0.00    +0.000 A 
ATOM     24  C   UNL     1      46.043   1.575   8.285  0.00  0.00    +0.000 A 
BRANCH  19  26
ATOM     25  N   UNL     1      48.443   1.693   5.724  0.00  0.00    +0.000 NA
ATOM     26  C   UNL     1      47.648   2.057   6.488  0.00  0.00    +0.000 C 
ENDBRANCH  19  26
ENDBRANCH  17  22
ENDBRANCH  16  17
ENDBRANCH   1  16
TORSDOF 6
ENDMDL
MODEL 6
REMARK VINA RESULT:    -7.493      2.410      6.972
REMARK INTER + INTRA:         -11.207
REMARK INTER:                 -10.287
REMARK INTRA:                  -0.919
REMARK UNBOUND:                -1.085
REMARK  Name = 
REMARK  6 active torsions:
REMARK  status: ('A' for Active; 'I' for Inactive)
REMARK    1  A    between atoms: C_2  and  C_3
REMARK    2  A    between atoms: C_6  and  N_7
REMARK    3  A    between atoms: N_7  and  C_8
REMARK    4  A    between atoms: C_8  and  C_9
REMARK    5  A    between atoms: C_9  and  C_12
REMARK    6  A    between atoms: C_16  and  C_17
REMARK                            x       y       z     vdW  Elec       q    Type
REMARK                         _______ _______ _______ _____ _____    ______ ____
ROOT
ATOM      1  C   UNL     1      44.159   6.423  11.448  0.00  0.00    +0.000 C 
ATOM      2  F   UNL     1      42.901   6.944  11.342  0.00  0.00    +0.000 F 
ATOM      3  F   UNL     1      44.919   7.165  10.578  0.00  0.00    +0.000 F 
ENDROOT
BRANCH   1   4
ATOM      4  C   UNL     1      44.216   4.948  11.102  0.00  0.00    +0.000 A 
ATOM      5  C   UNL     1      43.354   4.053  11.751  0.00  0.00    +0.000 A 
ATOM      6  C   UNL     1      43.336   2.708  11.404  0.00  0.00    +0.000 A 
ATOM      7  C   UNL     1      44.142   2.254  10.365  0.00  0.00    +0.000 A 
ATOM      8  C   UNL     1      44.993   3.126   9.661  0.00  0.00    +0.000 A 
ATOM      9  C   UNL     1      45.062   4.463  10.091  0.00  0.00    +0.000 A 
BRANCH   8  10
ATOM     10  C   UNL     1      45.713   2.675   8.454  0.00  0.00    +0.000 A 
ATOM     11  C   UNL     1      46.013   3.540   7.404  0.00  0.00    +0.000 A 
ATOM     12  C   UNL     1      46.764   3.080   6.332  0.00  0.00    +0.000 A 
ATOM     13  C   UNL     1      47.198   1.761   6.330  0.00  0.00    +0.000 A 
ATOM     14  C   UNL     1      46.870   0.962   7.405  0.00  0.00    +0.000 A 
ATOM     15  N   UNL     1      46.137   1.385   8.461  0.00  0.00    +0.000 NA
ENDBRANCH   8  10
ENDBRANCH   1   4
BRANCH   1  16
ATOM     16  C   UNL     1      44.707   6.711  12.870  0.00  0.00    +0.000 C 
BRANCH  16  17
ATOM     17  N   UNL     1      45.899   5.941  13.258  0.00  0.00    +0.000 N 
ATOM     18  H   UNL     1      45.815   4.928  13.255  0.00  0.00    +0.000 HD
BRANCH  17  22
ATOM     19  C   UNL     1      49.692   7.714  12.819  0.00  0.00    +0.000 A 
ATOM     20  C   UNL     1      48.832   7.642  11.721  0.00  0.00    +0.000 A 
ATOM     21  C   UNL     1      47.588   7.023  11.841  0.00  0.00    +0.000 A 
ATOM     22  C   UNL     1      47.177   6.441  13.053  0.00  0.00    +0.000 A 
ATOM     23  C   UNL     1      48.057   6.512  14.139  0.00  0.00    +0.000 A 
ATOM     24  C   UNL     1      49.301   7.138  14.028  0.00  0.00    +0.000 A 
BRANCH  19  26
ATOM     25  N   UNL     1      51.968   8.933  12.593  0.00  0.00    +0.000 NA
ATOM     26  C   UNL     1      50.948   8.389  12.702  0.00  0.00    +0.000 C 
ENDBRANCH  19  26
ENDBRANCH  17  22
ENDBRANCH  16  17
ENDBRANCH   1  16
TORSDOF 6
ENDMDL
MODEL 7
REMARK VINA RESULT:    -7.473      1.754      7.556
REMARK INTER + INTRA:         -11.180
REMARK INTER:                 -10.251
REMARK INTRA:                  -0.929
REMARK UNBOUND:                -1.085
REMARK  Name = 
REMARK  6 active torsions:
REMARK  status: ('A' for Active; 'I' for Inactive)
REMARK    1  A    between atoms: C_2  and  C_3
REMARK    2  A    between atoms: C_6  and  N_7
REMARK    3  A    between atoms: N_7  and  C_8
REMARK    4  A    between atoms: C_8  and  C_9
REMARK    5  A    between atoms: C_9  and  C_12
REMARK    6  A    between atoms: C_16  and  C_17
REMARK                            x       y       z     vdW  Elec       q    Type
REMARK                         _______ _______ _______ _____ _____    ______ ____
ROOT
ATOM      1  C   UNL     1      44.580   6.462  11.537  0.00  0.00    +0.000 C 
ATOM      2  F   UNL     1      43.358   7.062  11.644  0.00  0.00    +0.000 F 
ATOM      3  F   UNL     1      45.241   7.186  10.577  0.00  0.00    +0.000 F 
ENDROOT
BRANCH   1   4
ATOM      4  C   UNL     1      44.486   4.999  11.151  0.00  0.00    +0.000 A 
ATOM      5  C   UNL     1      43.538   4.179  11.779  0.00  0.00    +0.000 A 
ATOM      6  C   UNL     1      43.382   2.853  11.396  0.00  0.00    +0.000 A 
ATOM      7  C   UNL     1      44.135   2.348  10.340  0.00  0.00    +0.000 A 
ATOM      8  C   UNL     1      45.069   3.148   9.657  0.00  0.00    +0.000 A 
ATOM      9  C   UNL     1      45.275   4.458  10.123  0.00  0.00    +0.000 A 
BRANCH   8  10
ATOM     10  C   UNL     1      45.736   2.660   8.435  0.00  0.00    +0.000 A 
ATOM     11  C   UNL     1      45.984   3.490   7.343  0.00  0.00    +0.000 A 
ATOM     12  C   UNL     1      46.689   2.997   6.255  0.00  0.00    +0.000 A 
ATOM     13  C   UNL     1      47.130   1.681   6.278  0.00  0.00    +0.000 A 
ATOM     14  C   UNL     1      46.855   0.917   7.393  0.00  0.00    +0.000 A 
ATOM     15  N   UNL     1      46.169   1.372   8.466  0.00  0.00    +0.000 NA
ENDBRANCH   8  10
ENDBRANCH   1   4
BRANCH   1  16
ATOM     16  C   UNL     1      45.361   6.668  12.861  0.00  0.00    +0.000 C 
BRANCH  16  17
ATOM     17  N   UNL     1      46.721   6.106  12.888  0.00  0.00    +0.000 N 
ATOM     18  H   UNL     1      47.370   6.434  12.177  0.00  0.00    +0.000 HD
BRANCH  17  22
ATOM     19  C   UNL     1      48.178   4.841  16.630  0.00  0.00    +0.000 A 
ATOM     20  C   UNL     1      48.654   6.029  16.070  0.00  0.00    +0.000 A 
ATOM     21  C   UNL     1      48.209   6.441  14.814  0.00  0.00    +0.000 A 
ATOM     22  C   UNL     1      47.295   5.670  14.074  0.00  0.00    +0.000 A 
ATOM     23  C   UNL     1      46.839   4.476  14.647  0.00  0.00    +0.000 A 
ATOM     24  C   UNL     1      47.273   4.062  15.908  0.00  0.00    +0.000 A 
BRANCH  19  26
ATOM     25  N   UNL     1      48.940   4.114  18.998  0.00  0.00    +0.000 NA
ATOM     26  C   UNL     1      48.603   4.446  17.938  0.00  0.00    +0.000 C 
ENDBRANCH  19  26
ENDBRANCH  17  22
ENDBRANCH  16  17
ENDBRANCH   1  16
TORSDOF 6
ENDMDL
MODEL 8
REMARK VINA RESULT:    -7.040      1.450      2.215
REMARK INTER + INTRA:         -10.595
REMARK INTER:                 -10.176
REMARK INTRA:                  -0.419
REMARK UNBOUND:                -1.085
REMARK  Name = 
REMARK  6 active torsions:
REMARK  status: ('A' for Active; 'I' for Inactive)
REMARK    1  A    between atoms: C_2  and  C_3
REMARK    2  A    between atoms: C_6  and  N_7
REMARK    3  A    between atoms: N_7  and  C_8
REMARK    4  A    between atoms: C_8  and  C_9
REMARK    5  A    between atoms: C_9  and  C_12
REMARK    6  A    between atoms: C_16  and  C_17
REMARK                            x       y       z     vdW  Elec       q    Type
REMARK                         _______ _______ _______ _____ _____    ______ ____
ROOT
ATOM      1  C   UNL     1      45.838   6.463  11.754  0.00  0.00    +0.000 C 
ATOM      2  F   UNL     1      46.428   6.479  10.522  0.00  0.00    +0.000 F 
ATOM      3  F   UNL     1      44.881   7.445  11.696  0.00  0.00    +0.000 F 
ENDROOT
BRANCH   1   4
ATOM      4  C   UNL     1      46.821   6.724  12.879  0.00  0.00    +0.000 A 
ATOM      5  C   UNL     1      47.344   8.013  13.054  0.00  0.00    +0.000 A 
ATOM      6  C   UNL     1      48.191   8.296  14.118  0.00  0.00    +0.000 A 
ATOM      7  C   UNL     1      48.480   7.306  15.051  0.00  0.00    +0.000 A 
ATOM      8  C   UNL     1      47.945   6.010  14.935  0.00  0.00    +0.000 A 
ATOM      9  C   UNL     1      47.166   5.722  13.801  0.00  0.00    +0.000 A 
BRANCH   8  10
ATOM     10  C   UNL     1      48.116   5.019  16.015  0.00  0.00    +0.000 A 
ATOM     11  C   UNL     1      47.126   4.090  16.333  0.00  0.00    +0.000 A 
ATOM     12  C   UNL     1      47.375   3.129  17.301  0.00  0.00    +0.000 A 
ATOM     13  C   UNL     1      48.609   3.117  17.937  0.00  0.00    +0.000 A 
ATOM     14  C   UNL     1      49.545   4.061  17.569  0.00  0.00    +0.000 A 
ATOM     15  N   UNL     1      49.327   5.010  16.630  0.00  0.00    +0.000 NA
ENDBRANCH   8  10
ENDBRANCH   1   4
BRANCH   1  16
ATOM     16  C   UNL     1      45.084   5.120  11.936  0.00  0.00    +0.000 C 
BRANCH  16  17
ATOM     17  N   UNL     1      44.298   4.673  10.776  0.00  0.00    +0.000 N 
ATOM     18  H   UNL     1      43.467   5.211  10.547  0.00  0.00    +0.000 HD
BRANCH  17  22
ATOM     19  C   UNL     1      46.350   2.561   7.766  0.00  0.00    +0.000 A 
ATOM     20  C   UNL     1      46.274   3.955   7.703  0.00  0.00    +0.000 A 
ATOM     21  C   UNL     1      45.565   4.665   8.672  0.00  0.00    +0.000 A 
ATOM     22  C   UNL     1      44.896   4.004   9.716  0.00  0.00    +0.000 A 
ATOM     23  C   UNL     1      44.973   2.607   9.756  0.00  0.00    +0.000 A 
ATOM     24  C   UNL     1      45.688   1.890   8.795  0.00  0.00    +0.000 A 
BRANCH  19  26
ATOM     25  N   UNL     1      47.748   1.257   6.017  0.00  0.00    +0.000 NA
ATOM     26  C   UNL     1      47.116   1.842   6.796  0.00  0.00    +0.000 C 
ENDBRANCH  19  26
ENDBRANCH  17  22
ENDBRANCH  16  17
ENDBRANCH   1  16
TORSDOF 6
ENDMDL
MODEL 9
REMARK VINA RESULT:    -6.562      2.423      7.936
REMARK INTER + INTRA:          -9.949
REMARK INTER:                  -9.123
REMARK INTRA:                  -0.826
REMARK UNBOUND:                -1.085
REMARK  Name = 
REMARK  6 active torsions:
REMARK  status: ('A' for Active; 'I' for Inactive)
REMARK    1  A    between atoms: C_2  and  C_3
REMARK    2  A    between atoms: C_6  and  N_7
REMARK    3  A    between atoms: N_7  and  C_8
REMARK    4  A    between atoms: C_8  and  C_9
REMARK    5  A    between atoms: C_9  and  C_12
REMARK    6  A    between atoms: C_16  and  C_17
REMARK                            x       y       z     vdW  Elec       q    Type
REMARK                         _______ _______ _______ _____ _____    ______ ____
ROOT
ATOM      1  C   UNL     1      45.167   6.388  11.821  0.00  0.00    +0.000 C 
ATOM      2  F   UNL     1      44.612   6.639  13.044  0.00  0.00    +0.000 F 
ATOM      3  F   UNL     1      44.662   7.366  11.001  0.00  0.00    +0.000 F 
ENDROOT
BRANCH   1   4
ATOM      4  C   UNL     1      44.831   5.007  11.295  0.00  0.00    +0.000 A 
ATOM      5  C   UNL     1      43.717   4.325  11.808  0.00  0.00    +0.000 A 
ATOM      6  C   UNL     1      43.345   3.089  11.296  0.00  0.00    +0.000 A 
ATOM      7  C   UNL     1      44.051   2.545  10.227  0.00  0.00    +0.000 A 
ATOM      8  C   UNL     1      45.149   3.214   9.657  0.00  0.00    +0.000 A 
ATOM      9  C   UNL     1      45.564   4.419  10.252  0.00  0.00    +0.000 A 
BRANCH   8  10
ATOM     10  C   UNL     1      45.783   2.717   8.421  0.00  0.00    +0.000 A 
ATOM     11  C   UNL     1      46.008   3.541   7.319  0.00  0.00    +0.000 A 
ATOM     12  C   UNL     1      46.682   3.040   6.216  0.00  0.00    +0.000 A 
ATOM     13  C   UNL     1      47.116   1.721   6.233  0.00  0.00    +0.000 A 
ATOM     14  C   UNL     1      46.865   0.964   7.358  0.00  0.00    +0.000 A 
ATOM     15  N   UNL     1      46.209   1.427   8.446  0.00  0.00    +0.000 NA
ENDBRANCH   8  10
ENDBRANCH   1   4
BRANCH   1  16
ATOM     16  C   UNL     1      46.697   6.626  11.903  0.00  0.00    +0.000 C 
BRANCH  16  17
ATOM     17  N   UNL     1      47.112   7.846  12.613  0.00  0.00    +0.000 N 
ATOM     18  H   UNL     1      46.602   8.700  12.401  0.00  0.00    +0.000 HD
BRANCH  17  22
ATOM     19  C   UNL     1      49.114   7.808  16.317  0.00  0.00    +0.000 A 
ATOM     20  C   UNL     1      48.914   6.610  15.628  0.00  0.00    +0.000 A 
ATOM     21  C   UNL     1      48.219   6.601  14.419  0.00  0.00    +0.000 A 
ATOM     22  C   UNL     1      47.686   7.784  13.875  0.00  0.00    +0.000 A 
ATOM     23  C   UNL     1      47.886   8.973  14.586  0.00  0.00    +0.000 A 
ATOM     24  C   UNL     1      48.589   8.990  15.793  0.00  0.00    +0.000 A 
BRANCH  19  26
ATOM     25  N   UNL     1      50.483   7.813  18.517  0.00  0.00    +0.000 NA
ATOM     26  C   UNL     1      49.866   7.817  17.534  0.00  0.00    +0.000 C 
ENDBRANCH  19  26
ENDBRANCH  17  22
ENDBRANCH  16  17
ENDBRANCH   1  16
TORSDOF 6
ENDMDL
